MODEL 1
REMARK VINA RESULT:      -8.8      0.000      0.000
REMARK  4 active torsions:
REMARK  status: ('A' for Active; 'I' for Inactive)
REMARK    1  A    between atoms: O_2  and  C_3 
REMARK    2  A    between atoms: C_3  and  C_4 
REMARK    3  A    between atoms: C_12  and  N_13 
REMARK       I    between atoms: N_13  and  C_14 
REMARK    4  A    between atoms: C_14  and  C_15 
ROOT
HETATM    1  N   UNL     1     -41.485  54.686 -55.501  1.00  0.00    -0.323 N 
HETATM    2  C   UNL     1     -42.731  54.656 -56.091  1.00  0.00     0.258 C 
HETATM    3  O   UNL     1     -43.648  53.913 -55.752  1.00  0.00    -0.267 OA
HETATM    4  H   UNL     1     -40.831  55.372 -55.856  1.00  0.00     0.169 HD
ENDROOT
BRANCH   1   5
HETATM    5  C   UNL     1     -40.996  53.878 -54.451  1.00  0.00     0.036 A 
HETATM    6  C   UNL     1     -40.196  52.749 -54.640  1.00  0.00     0.032 A 
HETATM    7  C   UNL     1     -39.729  51.987 -53.559  1.00  0.00     0.034 A 
HETATM    8  C   UNL     1     -40.096  52.401 -52.278  1.00  0.00     0.063 A 
HETATM    9  N   UNL     1     -39.811  51.890 -51.044  1.00  0.00    -0.277 N 
HETATM   10  C   UNL     1     -40.892  53.513 -52.041  1.00  0.00     0.031 A 
HETATM   11  N   UNL     1     -40.355  52.571 -50.024  1.00  0.00    -0.167 NA
HETATM   12  H   UNL     1     -39.249  51.074 -50.830  1.00  0.00     0.189 HD
HETATM   13  C   UNL     1     -41.030  53.578 -50.618  1.00  0.00     0.164 A 
HETATM   14  C   UNL     1     -41.347  54.265 -53.145  1.00  0.00     0.046 A 
BRANCH  13  15
HETATM   15  C   UNL     1     -41.794  54.581 -49.858  1.00  0.00     0.314 C 
HETATM   16  O   UNL     1     -41.284  55.338 -49.036  1.00  0.00    -0.257 OA
BRANCH  15  17
HETATM   17  O   UNL     1     -43.129  54.583 -50.162  1.00  0.00    -0.321 OA
HETATM   18  C   UNL     1     -43.602  55.804 -50.727  1.00  0.00     0.213 C 
ENDBRANCH  15  17
ENDBRANCH  13  15
ENDBRANCH   1   5
BRANCH   2  19
HETATM   19  C   UNL     1     -42.936  55.614 -57.193  1.00  0.00     0.063 A 
HETATM   20  C   UNL     1     -43.593  55.512 -58.473  1.00  0.00     0.046 A 
HETATM   21  C   UNL     1     -43.486  56.758 -59.103  1.00  0.00     0.046 A 
HETATM   22  C   UNL     1     -44.281  54.503 -59.182  1.00  0.00     0.130 A 
HETATM   23  C   UNL     1     -44.022  57.027 -60.371  1.00  0.00     0.030 A 
HETATM   24  N   UNL     1     -42.794  57.588 -58.256  1.00  0.00    -0.364 N 
HETATM   25  C   UNL     1     -44.694  55.996 -61.032  1.00  0.00     0.005 A 
HETATM   26  C   UNL     1     -44.824  54.743 -60.445  1.00  0.00     0.043 A 
HETATM   27  H   UNL     1     -42.568  58.554 -58.451  1.00  0.00     0.165 HD
HETATM   28  C   UNL     1     -42.465  56.919 -57.115  1.00  0.00     0.106 A 
HETATM   29  F   UNL     1     -44.426  53.276 -58.656  1.00  0.00    -0.205 F 
ENDBRANCH   2  19
TORSDOF 4
ENDMDL
MODEL 2
REMARK VINA RESULT:      -8.5      2.372      8.132
REMARK  4 active torsions:
REMARK  status: ('A' for Active; 'I' for Inactive)
REMARK    1  A    between atoms: O_2  and  C_3 
REMARK    2  A    between atoms: C_3  and  C_4 
REMARK    3  A    between atoms: C_12  and  N_13 
REMARK       I    between atoms: N_13  and  C_14 
REMARK    4  A    between atoms: C_14  and  C_15 
ROOT
HETATM    1  N   UNL     1     -42.505  55.375 -54.088  1.00  0.00    -0.323 N 
HETATM    2  C   UNL     1     -41.428  55.636 -53.265  1.00  0.00     0.258 C 
HETATM    3  O   UNL     1     -40.892  56.734 -53.143  1.00  0.00    -0.267 OA
HETATM    4  H   UNL     1     -42.872  54.433 -54.068  1.00  0.00     0.169 HD
ENDROOT
BRANCH   1   5
HETATM    5  C   UNL     1     -43.172  56.262 -54.961  1.00  0.00     0.036 A 
HETATM    6  C   UNL     1     -43.970  57.326 -54.536  1.00  0.00     0.032 A 
HETATM    7  C   UNL     1     -44.602  58.184 -55.448  1.00  0.00     0.034 A 
HETATM    8  C   UNL     1     -44.404  57.933 -56.806  1.00  0.00     0.063 A 
HETATM    9  N   UNL     1     -44.866  58.569 -57.922  1.00  0.00    -0.277 N 
HETATM   10  C   UNL     1     -43.623  56.886 -57.277  1.00  0.00     0.031 A 
HETATM   11  N   UNL     1     -44.456  58.026 -59.078  1.00  0.00    -0.167 NA
HETATM   12  H   UNL     1     -45.469  59.384 -57.962  1.00  0.00     0.189 HD
HETATM   13  C   UNL     1     -43.688  56.982 -58.703  1.00  0.00     0.164 A 
HETATM   14  C   UNL     1     -42.995  56.039 -56.339  1.00  0.00     0.046 A 
BRANCH  13  15
HETATM   15  C   UNL     1     -43.030  56.089 -59.670  1.00  0.00     0.314 C 
HETATM   16  O   UNL     1     -42.026  56.402 -60.304  1.00  0.00    -0.257 OA
BRANCH  15  17
HETATM   17  O   UNL     1     -43.652  54.875 -59.790  1.00  0.00    -0.321 OA
HETATM   18  C   UNL     1     -44.789  54.877 -60.651  1.00  0.00     0.213 C 
ENDBRANCH  15  17
ENDBRANCH  13  15
ENDBRANCH   1   5
BRANCH   2  19
HETATM   19  C   UNL     1     -40.932  54.488 -52.486  1.00  0.00     0.063 A 
HETATM   20  C   UNL     1     -40.493  53.165 -52.859  1.00  0.00     0.046 A 
HETATM   21  C   UNL     1     -40.113  52.500 -51.685  1.00  0.00     0.046 A 
HETATM   22  C   UNL     1     -40.364  52.441 -54.065  1.00  0.00     0.130 A 
HETATM   23  C   UNL     1     -39.625  51.185 -51.671  1.00  0.00     0.030 A 
HETATM   24  N   UNL     1     -40.310  53.368 -50.641  1.00  0.00    -0.364 N 
HETATM   25  C   UNL     1     -39.515  50.511 -52.890  1.00  0.00     0.005 A 
HETATM   26  C   UNL     1     -39.881  51.132 -54.078  1.00  0.00     0.043 A 
HETATM   27  H   UNL     1     -40.119  53.157 -49.670  1.00  0.00     0.165 HD
HETATM   28  C   UNL     1     -40.793  54.555 -51.105  1.00  0.00     0.106 A 
HETATM   29  F   UNL     1     -40.710  52.999 -55.235  1.00  0.00    -0.205 F 
ENDBRANCH   2  19
TORSDOF 4
ENDMDL
MODEL 3
REMARK VINA RESULT:      -8.3      3.602      7.378
REMARK  4 active torsions:
REMARK  status: ('A' for Active; 'I' for Inactive)
REMARK    1  A    between atoms: O_2  and  C_3 
REMARK    2  A    between atoms: C_3  and  C_4 
REMARK    3  A    between atoms: C_12  and  N_13 
REMARK       I    between atoms: N_13  and  C_14 
REMARK    4  A    between atoms: C_14  and  C_15 
ROOT
HETATM    1  N   UNL     1     -42.641  55.281 -52.603  1.00  0.00    -0.323 N 
HETATM    2  C   UNL     1     -41.323  54.962 -52.855  1.00  0.00     0.258 C 
HETATM    3  O   UNL     1     -40.568  55.620 -53.565  1.00  0.00    -0.267 OA
HETATM    4  H   UNL     1     -43.142  54.670 -51.970  1.00  0.00     0.169 HD
ENDROOT
BRANCH   1   5
HETATM    5  C   UNL     1     -43.391  56.362 -53.114  1.00  0.00     0.036 A 
HETATM    6  C   UNL     1     -43.637  56.571 -54.473  1.00  0.00     0.032 A 
HETATM    7  C   UNL     1     -44.398  57.658 -54.926  1.00  0.00     0.034 A 
HETATM    8  C   UNL     1     -44.905  58.531 -53.962  1.00  0.00     0.063 A 
HETATM    9  N   UNL     1     -45.668  59.658 -54.072  1.00  0.00    -0.277 N 
HETATM   10  C   UNL     1     -44.684  58.367 -52.602  1.00  0.00     0.031 A 
HETATM   11  N   UNL     1     -45.961  60.243 -52.901  1.00  0.00    -0.167 NA
HETATM   12  H   UNL     1     -46.023  60.081 -54.922  1.00  0.00     0.189 HD
HETATM   13  C   UNL     1     -45.360  59.463 -51.978  1.00  0.00     0.164 A 
HETATM   14  C   UNL     1     -43.918  57.263 -52.171  1.00  0.00     0.046 A 
BRANCH  13  15
HETATM   15  C   UNL     1     -45.420  59.748 -50.535  1.00  0.00     0.314 C 
HETATM   16  O   UNL     1     -45.980  59.014 -49.725  1.00  0.00    -0.257 OA
BRANCH  15  17
HETATM   17  O   UNL     1     -44.787  60.911 -50.190  1.00  0.00    -0.321 OA
HETATM   18  C   UNL     1     -43.364  60.823 -50.165  1.00  0.00     0.213 C 
ENDBRANCH  15  17
ENDBRANCH  13  15
ENDBRANCH   1   5
BRANCH   2  19
HETATM   19  C   UNL     1     -40.825  53.744 -52.189  1.00  0.00     0.063 A 
HETATM   20  C   UNL     1     -40.406  52.456 -52.685  1.00  0.00     0.046 A 
HETATM   21  C   UNL     1     -40.015  51.686 -51.583  1.00  0.00     0.046 A 
HETATM   22  C   UNL     1     -40.303  51.842 -53.953  1.00  0.00     0.130 A 
HETATM   23  C   UNL     1     -39.540  50.371 -51.694  1.00  0.00     0.030 A 
HETATM   24  N   UNL     1     -40.187  52.459 -50.461  1.00  0.00    -0.364 N 
HETATM   25  C   UNL     1     -39.456  49.808 -52.970  1.00  0.00     0.005 A 
HETATM   26  C   UNL     1     -39.833  50.535 -54.092  1.00  0.00     0.043 A 
HETATM   27  H   UNL     1     -39.982  52.160 -49.517  1.00  0.00     0.165 HD
HETATM   28  C   UNL     1     -40.665  53.686 -50.811  1.00  0.00     0.106 A 
HETATM   29  F   UNL     1     -40.662  52.505 -55.064  1.00  0.00    -0.205 F 
ENDBRANCH   2  19
TORSDOF 4
ENDMDL
MODEL 4
REMARK VINA RESULT:      -8.1      3.019      7.760
REMARK  4 active torsions:
REMARK  status: ('A' for Active; 'I' for Inactive)
REMARK    1  A    between atoms: O_2  and  C_3 
REMARK    2  A    between atoms: C_3  and  C_4 
REMARK    3  A    between atoms: C_12  and  N_13 
REMARK       I    between atoms: N_13  and  C_14 
REMARK    4  A    between atoms: C_14  and  C_15 
ROOT
HETATM    1  N   UNL     1     -41.847  54.850 -54.479  1.00  0.00    -0.323 N 
HETATM    2  C   UNL     1     -40.649  54.180 -54.343  1.00  0.00     0.258 C 
HETATM    3  O   UNL     1     -39.749  54.180 -55.178  1.00  0.00    -0.267 OA
HETATM    4  H   UNL     1     -42.489  54.793 -53.699  1.00  0.00     0.169 HD
ENDROOT
BRANCH   1   5
HETATM    5  C   UNL     1     -42.299  55.616 -55.575  1.00  0.00     0.036 A 
HETATM    6  C   UNL     1     -42.777  55.070 -56.768  1.00  0.00     0.032 A 
HETATM    7  C   UNL     1     -43.224  55.879 -57.823  1.00  0.00     0.034 A 
HETATM    8  C   UNL     1     -43.173  57.261 -57.636  1.00  0.00     0.063 A 
HETATM    9  N   UNL     1     -43.528  58.299 -58.448  1.00  0.00    -0.277 N 
HETATM   10  C   UNL     1     -42.704  57.850 -56.470  1.00  0.00     0.031 A 
HETATM   11  N   UNL     1     -43.327  59.514 -57.914  1.00  0.00    -0.167 NA
HETATM   12  H   UNL     1     -43.915  58.245 -59.384  1.00  0.00     0.189 HD
HETATM   13  C   UNL     1     -42.815  59.260 -56.691  1.00  0.00     0.164 A 
HETATM   14  C   UNL     1     -42.262  57.014 -55.422  1.00  0.00     0.046 A 
BRANCH  13  15
HETATM   15  C   UNL     1     -42.435  60.326 -55.750  1.00  0.00     0.314 C 
HETATM   16  O   UNL     1     -42.910  61.458 -55.786  1.00  0.00    -0.257 OA
BRANCH  15  17
HETATM   17  O   UNL     1     -41.501  59.925 -54.833  1.00  0.00    -0.321 OA
HETATM   18  C   UNL     1     -41.895  60.104 -53.475  1.00  0.00     0.213 C 
ENDBRANCH  15  17
ENDBRANCH  13  15
ENDBRANCH   1   5
BRANCH   2  19
HETATM   19  C   UNL     1     -40.476  53.437 -53.081  1.00  0.00     0.063 A 
HETATM   20  C   UNL     1     -40.153  52.062 -52.789  1.00  0.00     0.046 A 
HETATM   21  C   UNL     1     -40.108  51.926 -51.395  1.00  0.00     0.046 A 
HETATM   22  C   UNL     1     -39.882  50.900 -53.545  1.00  0.00     0.130 A 
HETATM   23  C   UNL     1     -39.813  50.716 -50.750  1.00  0.00     0.030 A 
HETATM   24  N   UNL     1     -40.393  53.156 -50.854  1.00  0.00    -0.364 N 
HETATM   25  C   UNL     1     -39.552  49.596 -51.542  1.00  0.00     0.005 A 
HETATM   26  C   UNL     1     -39.585  49.684 -52.928  1.00  0.00     0.043 A 
HETATM   27  H   UNL     1     -40.430  53.356 -49.864  1.00  0.00     0.165 HD
HETATM   28  C   UNL     1     -40.610  54.062 -51.848  1.00  0.00     0.106 A 
HETATM   29  F   UNL     1     -39.909  50.938 -54.887  1.00  0.00    -0.205 F 
ENDBRANCH   2  19
TORSDOF 4
ENDMDL
MODEL 5
REMARK VINA RESULT:      -7.9      2.576      7.891
REMARK  4 active torsions:
REMARK  status: ('A' for Active; 'I' for Inactive)
REMARK    1  A    between atoms: O_2  and  C_3 
REMARK    2  A    between atoms: C_3  and  C_4 
REMARK    3  A    between atoms: C_12  and  N_13 
REMARK       I    between atoms: N_13  and  C_14 
REMARK    4  A    between atoms: C_14  and  C_15 
ROOT
HETATM    1  N   UNL     1     -41.052  56.040 -53.459  1.00  0.00    -0.323 N 
HETATM    2  C   UNL     1     -41.654  55.376 -52.409  1.00  0.00     0.258 C 
HETATM    3  O   UNL     1     -42.685  55.741 -51.851  1.00  0.00    -0.267 OA
HETATM    4  H   UNL     1     -40.222  55.612 -53.849  1.00  0.00     0.169 HD
ENDROOT
BRANCH   1   5
HETATM    5  C   UNL     1     -41.448  57.249 -54.069  1.00  0.00     0.036 A 
HETATM    6  C   UNL     1     -41.226  58.513 -53.518  1.00  0.00     0.032 A 
HETATM    7  C   UNL     1     -41.633  59.685 -54.174  1.00  0.00     0.034 A 
HETATM    8  C   UNL     1     -42.272  59.541 -55.405  1.00  0.00     0.063 A 
HETATM    9  N   UNL     1     -42.777  60.462 -56.278  1.00  0.00    -0.277 N 
HETATM   10  C   UNL     1     -42.518  58.306 -55.991  1.00  0.00     0.031 A 
HETATM   11  N   UNL     1     -43.332  59.934 -57.379  1.00  0.00    -0.167 NA
HETATM   12  H   UNL     1     -42.773  61.471 -56.179  1.00  0.00     0.189 HD
HETATM   13  C   UNL     1     -43.186  58.602 -57.222  1.00  0.00     0.164 A 
HETATM   14  C   UNL     1     -42.096  57.143 -55.313  1.00  0.00     0.046 A 
BRANCH  13  15
HETATM   15  C   UNL     1     -43.669  57.625 -58.211  1.00  0.00     0.314 C 
HETATM   16  O   UNL     1     -44.857  57.365 -58.378  1.00  0.00    -0.257 OA
BRANCH  15  17
HETATM   17  O   UNL     1     -42.659  57.039 -58.925  1.00  0.00    -0.321 OA
HETATM   18  C   UNL     1     -43.019  55.813 -59.558  1.00  0.00     0.213 C 
ENDBRANCH  15  17
ENDBRANCH  13  15
ENDBRANCH   1   5
BRANCH   2  19
HETATM   19  C   UNL     1     -40.983  54.139 -51.971  1.00  0.00     0.063 A 
HETATM   20  C   UNL     1     -40.612  52.927 -52.661  1.00  0.00     0.046 A 
HETATM   21  C   UNL     1     -39.979  52.090 -51.733  1.00  0.00     0.046 A 
HETATM   22  C   UNL     1     -40.731  52.433 -53.978  1.00  0.00     0.130 A 
HETATM   23  C   UNL     1     -39.477  50.822 -52.059  1.00  0.00     0.030 A 
HETATM   24  N   UNL     1     -39.963  52.751 -50.529  1.00  0.00    -0.364 N 
HETATM   25  C   UNL     1     -39.618  50.378 -53.376  1.00  0.00     0.005 A 
HETATM   26  C   UNL     1     -40.239  51.174 -54.330  1.00  0.00     0.043 A 
HETATM   27  H   UNL     1     -39.565  52.385 -49.674  1.00  0.00     0.165 HD
HETATM   28  C   UNL     1     -40.554  53.972 -50.661  1.00  0.00     0.106 A 
HETATM   29  F   UNL     1     -41.328  53.166 -54.931  1.00  0.00    -0.205 F 
ENDBRANCH   2  19
TORSDOF 4
ENDMDL
MODEL 6
REMARK VINA RESULT:      -7.9      3.545      7.890
REMARK  4 active torsions:
REMARK  status: ('A' for Active; 'I' for Inactive)
REMARK    1  A    between atoms: O_2  and  C_3 
REMARK    2  A    between atoms: C_3  and  C_4 
REMARK    3  A    between atoms: C_12  and  N_13 
REMARK       I    between atoms: N_13  and  C_14 
REMARK    4  A    between atoms: C_14  and  C_15 
ROOT
HETATM    1  N   UNL     1     -41.112  56.786 -52.369  1.00  0.00    -0.323 N 
HETATM    2  C   UNL     1     -41.813  55.599 -52.418  1.00  0.00     0.258 C 
HETATM    3  O   UNL     1     -42.975  55.489 -52.800  1.00  0.00    -0.267 OA
HETATM    4  H   UNL     1     -40.148  56.730 -52.065  1.00  0.00     0.169 HD
ENDROOT
BRANCH   1   5
HETATM    5  C   UNL     1     -41.566  58.083 -52.693  1.00  0.00     0.036 A 
HETATM    6  C   UNL     1     -41.941  59.040 -51.748  1.00  0.00     0.032 A 
HETATM    7  C   UNL     1     -42.376  60.318 -52.126  1.00  0.00     0.034 A 
HETATM    8  C   UNL     1     -42.420  60.602 -53.491  1.00  0.00     0.063 A 
HETATM    9  N   UNL     1     -42.787  61.728 -54.171  1.00  0.00    -0.277 N 
HETATM   10  C   UNL     1     -42.061  59.683 -54.467  1.00  0.00     0.031 A 
HETATM   11  N   UNL     1     -42.700  61.620 -55.506  1.00  0.00    -0.167 NA
HETATM   12  H   UNL     1     -43.107  62.607 -53.781  1.00  0.00     0.189 HD
HETATM   13  C   UNL     1     -42.256  60.362 -55.712  1.00  0.00     0.164 A 
HETATM   14  C   UNL     1     -41.624  58.404 -54.061  1.00  0.00     0.046 A 
BRANCH  13  15
HETATM   15  C   UNL     1     -42.021  59.811 -57.056  1.00  0.00     0.314 C 
HETATM   16  O   UNL     1     -41.188  60.263 -57.836  1.00  0.00    -0.257 OA
BRANCH  15  17
HETATM   17  O   UNL     1     -42.827  58.742 -57.346  1.00  0.00    -0.321 OA
HETATM   18  C   UNL     1     -44.197  59.076 -57.552  1.00  0.00     0.213 C 
ENDBRANCH  15  17
ENDBRANCH  13  15
ENDBRANCH   1   5
BRANCH   2  19
HETATM   19  C   UNL     1     -41.068  54.402 -51.987  1.00  0.00     0.063 A 
HETATM   20  C   UNL     1     -40.694  53.183 -52.662  1.00  0.00     0.046 A 
HETATM   21  C   UNL     1     -39.972  52.400 -51.751  1.00  0.00     0.046 A 
HETATM   22  C   UNL     1     -40.876  52.641 -53.953  1.00  0.00     0.130 A 
HETATM   23  C   UNL     1     -39.443  51.142 -52.070  1.00  0.00     0.030 A 
HETATM   24  N   UNL     1     -39.907  53.101 -50.572  1.00  0.00    -0.364 N 
HETATM   25  C   UNL     1     -39.649  50.650 -53.361  1.00  0.00     0.005 A 
HETATM   26  C   UNL     1     -40.359  51.391 -54.297  1.00  0.00     0.043 A 
HETATM   27  H   UNL     1     -39.443  52.778 -49.733  1.00  0.00     0.165 HD
HETATM   28  C   UNL     1     -40.552  54.294 -50.702  1.00  0.00     0.106 A 
HETATM   29  F   UNL     1     -41.560  53.320 -54.888  1.00  0.00    -0.205 F 
ENDBRANCH   2  19
TORSDOF 4
ENDMDL
MODEL 7
REMARK VINA RESULT:      -7.8      2.939      8.794
REMARK  4 active torsions:
REMARK  status: ('A' for Active; 'I' for Inactive)
REMARK    1  A    between atoms: O_2  and  C_3 
REMARK    2  A    between atoms: C_3  and  C_4 
REMARK    3  A    between atoms: C_12  and  N_13 
REMARK       I    between atoms: N_13  and  C_14 
REMARK    4  A    between atoms: C_14  and  C_15 
ROOT
HETATM    1  N   UNL     1     -42.712  55.644 -54.285  1.00  0.00    -0.323 N 
HETATM    2  C   UNL     1     -41.550  55.870 -53.577  1.00  0.00     0.258 C 
HETATM    3  O   UNL     1     -40.902  56.913 -53.612  1.00  0.00    -0.267 OA
HETATM    4  H   UNL     1     -43.166  54.751 -54.139  1.00  0.00     0.169 HD
ENDROOT
BRANCH   1   5
HETATM    5  C   UNL     1     -43.362  56.506 -55.195  1.00  0.00     0.036 A 
HETATM    6  C   UNL     1     -44.151  57.594 -54.816  1.00  0.00     0.032 A 
HETATM    7  C   UNL     1     -44.766  58.425 -55.764  1.00  0.00     0.034 A 
HETATM    8  C   UNL     1     -44.561  58.122 -57.110  1.00  0.00     0.063 A 
HETATM    9  N   UNL     1     -45.008  58.722 -58.252  1.00  0.00    -0.277 N 
HETATM   10  C   UNL     1     -43.789  57.049 -57.536  1.00  0.00     0.031 A 
HETATM   11  N   UNL     1     -44.596  58.131 -59.385  1.00  0.00    -0.167 NA
HETATM   12  H   UNL     1     -45.599  59.542 -58.327  1.00  0.00     0.189 HD
HETATM   13  C   UNL     1     -43.843  57.092 -58.965  1.00  0.00     0.164 A 
HETATM   14  C   UNL     1     -43.178  56.230 -56.562  1.00  0.00     0.046 A 
BRANCH  13  15
HETATM   15  C   UNL     1     -43.190  56.156 -59.894  1.00  0.00     0.314 C 
HETATM   16  O   UNL     1     -42.160  56.423 -60.508  1.00  0.00    -0.257 OA
BRANCH  15  17
HETATM   17  O   UNL     1     -43.847  54.960 -60.002  1.00  0.00    -0.321 OA
HETATM   18  C   UNL     1     -44.950  54.973 -60.905  1.00  0.00     0.213 C 
ENDBRANCH  15  17
ENDBRANCH  13  15
ENDBRANCH   1   5
BRANCH   2  19
HETATM   19  C   UNL     1     -41.102  54.758 -52.719  1.00  0.00     0.063 A 
HETATM   20  C   UNL     1     -41.004  54.600 -51.289  1.00  0.00     0.046 A 
HETATM   21  C   UNL     1     -40.520  53.310 -51.038  1.00  0.00     0.046 A 
HETATM   22  C   UNL     1     -41.276  55.403 -50.159  1.00  0.00     0.130 A 
HETATM   23  C   UNL     1     -40.305  52.807 -49.747  1.00  0.00     0.030 A 
HETATM   24  N   UNL     1     -40.326  52.702 -52.255  1.00  0.00    -0.364 N 
HETATM   25  C   UNL     1     -40.590  53.638 -48.662  1.00  0.00     0.005 A 
HETATM   26  C   UNL     1     -41.071  54.926 -48.862  1.00  0.00     0.043 A 
HETATM   27  H   UNL     1     -39.981  51.760 -52.381  1.00  0.00     0.165 HD
HETATM   28  C   UNL     1     -40.672  53.553 -53.261  1.00  0.00     0.106 A 
HETATM   29  F   UNL     1     -41.737  56.655 -50.306  1.00  0.00    -0.205 F 
ENDBRANCH   2  19
TORSDOF 4
ENDMDL
MODEL 8
REMARK VINA RESULT:      -7.7      2.131      3.267
REMARK  4 active torsions:
REMARK  status: ('A' for Active; 'I' for Inactive)
REMARK    1  A    between atoms: O_2  and  C_3 
REMARK    2  A    between atoms: C_3  and  C_4 
REMARK    3  A    between atoms: C_12  and  N_13 
REMARK       I    between atoms: N_13  and  C_14 
REMARK    4  A    between atoms: C_14  and  C_15 
ROOT
HETATM    1  N   UNL     1     -41.631  56.754 -53.867  1.00  0.00    -0.323 N 
HETATM    2  C   UNL     1     -42.708  56.704 -54.728  1.00  0.00     0.258 C 
HETATM    3  O   UNL     1     -43.752  56.096 -54.507  1.00  0.00    -0.267 OA
HETATM    4  H   UNL     1     -40.844  57.320 -54.158  1.00  0.00     0.169 HD
ENDROOT
BRANCH   1   5
HETATM    5  C   UNL     1     -41.481  56.114 -52.618  1.00  0.00     0.036 A 
HETATM    6  C   UNL     1     -41.826  56.693 -51.395  1.00  0.00     0.032 A 
HETATM    7  C   UNL     1     -41.666  56.007 -50.183  1.00  0.00     0.034 A 
HETATM    8  C   UNL     1     -41.145  54.714 -50.242  1.00  0.00     0.063 A 
HETATM    9  N   UNL     1     -40.875  53.800 -49.265  1.00  0.00    -0.277 N 
HETATM   10  C   UNL     1     -40.785  54.097 -51.433  1.00  0.00     0.031 A 
HETATM   11  N   UNL     1     -40.367  52.642 -49.716  1.00  0.00    -0.167 NA
HETATM   12  H   UNL     1     -41.014  53.906 -48.266  1.00  0.00     0.189 HD
HETATM   13  C   UNL     1     -40.300  52.805 -51.054  1.00  0.00     0.164 A 
HETATM   14  C   UNL     1     -40.959  54.808 -52.640  1.00  0.00     0.046 A 
BRANCH  13  15
HETATM   15  C   UNL     1     -39.786  51.764 -51.958  1.00  0.00     0.314 C 
HETATM   16  O   UNL     1     -39.464  50.641 -51.580  1.00  0.00    -0.257 OA
BRANCH  15  17
HETATM   17  O   UNL     1     -39.706  52.175 -53.261  1.00  0.00    -0.321 OA
HETATM   18  C   UNL     1     -40.206  51.233 -54.208  1.00  0.00     0.213 C 
ENDBRANCH  15  17
ENDBRANCH  13  15
ENDBRANCH   1   5
BRANCH   2  19
HETATM   19  C   UNL     1     -42.554  57.463 -55.982  1.00  0.00     0.063 A 
HETATM   20  C   UNL     1     -42.695  57.101 -57.372  1.00  0.00     0.046 A 
HETATM   21  C   UNL     1     -42.439  58.248 -58.135  1.00  0.00     0.046 A 
HETATM   22  C   UNL     1     -43.018  55.927 -58.086  1.00  0.00     0.130 A 
HETATM   23  C   UNL     1     -42.493  58.266 -59.536  1.00  0.00     0.030 A 
HETATM   24  N   UNL     1     -42.152  59.266 -57.260  1.00  0.00    -0.364 N 
HETATM   25  C   UNL     1     -42.818  57.080 -60.197  1.00  0.00     0.005 A 
HETATM   26  C   UNL     1     -43.079  55.918 -59.481  1.00  0.00     0.043 A 
HETATM   27  H   UNL     1     -41.928  60.215 -57.531  1.00  0.00     0.165 HD
HETATM   28  C   UNL     1     -42.221  58.812 -55.977  1.00  0.00     0.106 A 
HETATM   29  F   UNL     1     -43.272  54.781 -57.436  1.00  0.00    -0.205 F 
ENDBRANCH   2  19
TORSDOF 4
ENDMDL
MODEL 9
REMARK VINA RESULT:      -7.6      2.269      2.924
REMARK  4 active torsions:
REMARK  status: ('A' for Active; 'I' for Inactive)
REMARK    1  A    between atoms: O_2  and  C_3 
REMARK    2  A    between atoms: C_3  and  C_4 
REMARK    3  A    between atoms: C_12  and  N_13 
REMARK       I    between atoms: N_13  and  C_14 
REMARK    4  A    between atoms: C_14  and  C_15 
ROOT
HETATM    1  N   UNL     1     -41.462  55.283 -56.135  1.00  0.00    -0.323 N 
HETATM    2  C   UNL     1     -42.639  55.934 -56.441  1.00  0.00     0.258 C 
HETATM    3  O   UNL     1     -43.603  56.025 -55.686  1.00  0.00    -0.267 OA
HETATM    4  H   UNL     1     -40.732  55.312 -56.836  1.00  0.00     0.169 HD
ENDROOT
BRANCH   1   5
HETATM    5  C   UNL     1     -41.135  54.576 -54.957  1.00  0.00     0.036 A 
HETATM    6  C   UNL     1     -40.486  53.340 -54.940  1.00  0.00     0.032 A 
HETATM    7  C   UNL     1     -40.176  52.686 -53.739  1.00  0.00     0.034 A 
HETATM    8  C   UNL     1     -40.543  53.320 -52.552  1.00  0.00     0.063 A 
HETATM    9  N   UNL     1     -40.387  52.957 -51.245  1.00  0.00    -0.277 N 
HETATM   10  C   UNL     1     -41.193  54.547 -52.518  1.00  0.00     0.031 A 
HETATM   11  N   UNL     1     -40.881  53.840 -50.363  1.00  0.00    -0.167 NA
HETATM   12  H   UNL     1     -39.949  52.115 -50.887  1.00  0.00     0.189 HD
HETATM   13  C   UNL     1     -41.387  54.829 -51.128  1.00  0.00     0.164 A 
HETATM   14  C   UNL     1     -41.491  55.186 -53.740  1.00  0.00     0.046 A 
BRANCH  13  15
HETATM   15  C   UNL     1     -42.043  56.018 -50.561  1.00  0.00     0.314 C 
HETATM   16  O   UNL     1     -43.257  56.202 -50.598  1.00  0.00    -0.257 OA
BRANCH  15  17
HETATM   17  O   UNL     1     -41.163  56.896 -49.988  1.00  0.00    -0.321 OA
HETATM   18  C   UNL     1     -40.805  57.998 -50.820  1.00  0.00     0.213 C 
ENDBRANCH  15  17
ENDBRANCH  13  15
ENDBRANCH   1   5
BRANCH   2  19
HETATM   19  C   UNL     1     -42.690  56.562 -57.774  1.00  0.00     0.063 A 
HETATM   20  C   UNL     1     -42.415  57.899 -58.239  1.00  0.00     0.046 A 
HETATM   21  C   UNL     1     -42.619  57.914 -59.625  1.00  0.00     0.046 A 
HETATM   22  C   UNL     1     -42.006  59.115 -57.648  1.00  0.00     0.130 A 
HETATM   23  C   UNL     1     -42.437  59.057 -60.417  1.00  0.00     0.030 A 
HETATM   24  N   UNL     1     -43.004  56.649 -59.996  1.00  0.00    -0.364 N 
HETATM   25  C   UNL     1     -42.030  60.236 -59.786  1.00  0.00     0.005 A 
HETATM   26  C   UNL     1     -41.816  60.268 -58.413  1.00  0.00     0.043 A 
HETATM   27  H   UNL     1     -43.219  56.365 -60.943  1.00  0.00     0.165 HD
HETATM   28  C   UNL     1     -43.046  55.836 -58.903  1.00  0.00     0.106 A 
HETATM   29  F   UNL     1     -41.793  59.193 -56.326  1.00  0.00    -0.205 F 
ENDBRANCH   2  19
TORSDOF 4
ENDMDL
MODEL 10
REMARK VINA RESULT:      -7.6      2.733      3.945
REMARK  4 active torsions:
REMARK  status: ('A' for Active; 'I' for Inactive)
REMARK    1  A    between atoms: O_2  and  C_3 
REMARK    2  A    between atoms: C_3  and  C_4 
REMARK    3  A    between atoms: C_12  and  N_13 
REMARK       I    between atoms: N_13  and  C_14 
REMARK    4  A    between atoms: C_14  and  C_15 
ROOT
HETATM    1  N   UNL     1     -41.692  56.272 -53.958  1.00  0.00    -0.323 N 
HETATM    2  C   UNL     1     -42.831  56.077 -54.711  1.00  0.00     0.258 C 
HETATM    3  O   UNL     1     -43.897  55.657 -54.270  1.00  0.00    -0.267 OA
HETATM    4  H   UNL     1     -40.889  56.656 -54.441  1.00  0.00     0.169 HD
ENDROOT
BRANCH   1   5
HETATM    5  C   UNL     1     -41.496  56.006 -52.586  1.00  0.00     0.036 A 
HETATM    6  C   UNL     1     -41.714  56.939 -51.569  1.00  0.00     0.032 A 
HETATM    7  C   UNL     1     -41.513  56.618 -50.219  1.00  0.00     0.034 A 
HETATM    8  C   UNL     1     -41.084  55.324 -49.925  1.00  0.00     0.063 A 
HETATM    9  N   UNL     1     -40.805  54.709 -48.738  1.00  0.00    -0.277 N 
HETATM   10  C   UNL     1     -40.851  54.364 -50.900  1.00  0.00     0.031 A 
HETATM   11  N   UNL     1     -40.407  53.433 -48.857  1.00  0.00    -0.167 NA
HETATM   12  H   UNL     1     -40.866  55.108 -47.808  1.00  0.00     0.189 HD
HETATM   13  C   UNL     1     -40.425  53.199 -50.186  1.00  0.00     0.164 A 
HETATM   14  C   UNL     1     -41.063  54.710 -52.252  1.00  0.00     0.046 A 
BRANCH  13  15
HETATM   15  C   UNL     1     -40.047  51.903 -50.771  1.00  0.00     0.314 C 
HETATM   16  O   UNL     1     -40.356  50.822 -50.277  1.00  0.00    -0.257 OA
BRANCH  15  17
HETATM   17  O   UNL     1     -39.315  52.027 -51.922  1.00  0.00    -0.321 OA
HETATM   18  C   UNL     1     -39.597  51.036 -52.908  1.00  0.00     0.213 C 
ENDBRANCH  15  17
ENDBRANCH  13  15
ENDBRANCH   1   5
BRANCH   2  19
HETATM   19  C   UNL     1     -42.717  56.426 -56.139  1.00  0.00     0.063 A 
HETATM   20  C   UNL     1     -42.473  57.669 -56.829  1.00  0.00     0.046 A 
HETATM   21  C   UNL     1     -42.455  57.394 -58.202  1.00  0.00     0.046 A 
HETATM   22  C   UNL     1     -42.256  59.013 -56.451  1.00  0.00     0.130 A 
HETATM   23  C   UNL     1     -42.235  58.375 -59.180  1.00  0.00     0.030 A 
HETATM   24  N   UNL     1     -42.679  56.048 -58.353  1.00  0.00    -0.364 N 
HETATM   25  C   UNL     1     -42.024  59.690 -58.756  1.00  0.00     0.005 A 
HETATM   26  C   UNL     1     -42.034  60.009 -57.404  1.00  0.00     0.043 A 
HETATM   27  H   UNL     1     -42.719  55.565 -59.241  1.00  0.00     0.165 HD
HETATM   28  C   UNL     1     -42.833  55.462 -57.132  1.00  0.00     0.106 A 
HETATM   29  F   UNL     1     -42.262  59.368 -55.157  1.00  0.00    -0.205 F 
ENDBRANCH   2  19
TORSDOF 4
ENDMDL
