MODEL 1
REMARK VINA RESULT:      -8.9      0.000      0.000
REMARK  4 active torsions:
REMARK  status: ('A' for Active; 'I' for Inactive)
REMARK    1  A    between atoms: C_2  and  C_3 
REMARK    2  A    between atoms: C_7  and  C_8 
REMARK       I    between atoms: C_8  and  N_9 
REMARK    3  A    between atoms: N_9  and  C_10 
REMARK    4  A    between atoms: C_10  and  C_11 
ROOT
HETATM    1  C   UNL     1     -41.508  56.974 -53.932  1.00  0.00     0.270 C 
HETATM    2  N   UNL     1     -41.972  55.947 -53.148  1.00  0.00    -0.351 N 
HETATM    3  O   UNL     1     -40.584  57.703 -53.591  1.00  0.00    -0.266 OA
HETATM    4  H   UNL     1     -42.672  55.314 -53.506  1.00  0.00     0.163 HD
ENDROOT
BRANCH   1   5
HETATM    5  C   UNL     1     -42.185  57.147 -55.189  1.00  0.00     0.120 A 
HETATM    6  N   UNL     1     -42.329  58.386 -55.747  1.00  0.00    -0.272 N 
HETATM    7  N   UNL     1     -42.972  58.390 -56.922  1.00  0.00    -0.174 NA
HETATM    8  H   UNL     1     -42.000  59.267 -55.362  1.00  0.00     0.189 HD
HETATM    9  C   UNL     1     -43.278  57.103 -57.149  1.00  0.00     0.089 A 
HETATM   10  C   UNL     1     -42.801  56.291 -56.079  1.00  0.00     0.071 A 
BRANCH   9  11
HETATM   11  C   UNL     1     -43.995  56.691 -58.361  1.00  0.00    -0.005 A 
HETATM   12  C   UNL     1     -43.678  55.474 -58.991  1.00  0.00     0.017 A 
HETATM   13  C   UNL     1     -44.357  55.062 -60.141  1.00  0.00     0.043 A 
HETATM   14  C   UNL     1     -45.355  55.868 -60.669  1.00  0.00     0.116 A 
HETATM   15  C   UNL     1     -45.686  57.077 -60.070  1.00  0.00     0.043 A 
HETATM   16  F   UNL     1     -46.008  55.476 -61.771  1.00  0.00    -0.206 F 
HETATM   17  C   UNL     1     -45.008  57.490 -58.919  1.00  0.00     0.017 A 
ENDBRANCH   9  11
ENDBRANCH   1   5
BRANCH   2  18
HETATM   18  C   UNL     1     -41.365  55.630 -51.876  1.00  0.00     0.161 C 
BRANCH  18  19
HETATM   19  C   UNL     1     -40.791  54.236 -51.869  1.00  0.00    -0.040 A 
HETATM   20  C   UNL     1     -40.765  53.468 -53.044  1.00  0.00     0.018 A 
HETATM   21  C   UNL     1     -40.268  52.156 -53.041  1.00  0.00    -0.024 A 
HETATM   22  C   UNL     1     -39.834  51.597 -51.836  1.00  0.00     0.075 A 
HETATM   23  C   UNL     1     -40.243  51.361 -54.314  1.00  0.00     0.043 C 
HETATM   24  O   UNL     1     -39.351  50.319 -51.726  1.00  0.00    -0.351 OA
HETATM   25  C   UNL     1     -39.850  52.350 -50.664  1.00  0.00     0.038 A 
HETATM   26  C   UNL     1     -39.672  49.468 -52.830  1.00  0.00     0.176 C 
HETATM   27  C   UNL     1     -39.362  50.130 -54.161  1.00  0.00     0.031 C 
HETATM   28  C   UNL     1     -40.330  53.662 -50.677  1.00  0.00     0.011 A 
ENDBRANCH  18  19
ENDBRANCH   2  18
TORSDOF 4
ENDMDL
MODEL 2
REMARK VINA RESULT:      -8.6      2.608      2.952
REMARK  4 active torsions:
REMARK  status: ('A' for Active; 'I' for Inactive)
REMARK    1  A    between atoms: C_2  and  C_3 
REMARK    2  A    between atoms: C_7  and  C_8 
REMARK       I    between atoms: C_8  and  N_9 
REMARK    3  A    between atoms: N_9  and  C_10 
REMARK    4  A    between atoms: C_10  and  C_11 
ROOT
HETATM    1  C   UNL     1     -42.911  56.071 -54.468  1.00  0.00     0.270 C 
HETATM    2  N   UNL     1     -41.741  56.140 -53.754  1.00  0.00    -0.351 N 
HETATM    3  O   UNL     1     -43.947  55.613 -53.999  1.00  0.00    -0.266 OA
HETATM    4  H   UNL     1     -40.937  56.608 -54.145  1.00  0.00     0.163 HD
ENDROOT
BRANCH   1   5
HETATM    5  C   UNL     1     -42.844  56.569 -55.815  1.00  0.00     0.120 A 
HETATM    6  N   UNL     1     -43.269  55.810 -56.870  1.00  0.00    -0.272 N 
HETATM    7  N   UNL     1     -43.155  56.410 -58.062  1.00  0.00    -0.174 NA
HETATM    8  H   UNL     1     -43.650  54.869 -56.825  1.00  0.00     0.189 HD
HETATM    9  C   UNL     1     -42.623  57.612 -57.790  1.00  0.00     0.089 A 
HETATM   10  C   UNL     1     -42.411  57.749 -56.387  1.00  0.00     0.071 A 
BRANCH   9  11
HETATM   11  C   UNL     1     -42.345  58.583 -58.856  1.00  0.00    -0.005 A 
HETATM   12  C   UNL     1     -42.313  59.959 -58.568  1.00  0.00     0.017 A 
HETATM   13  C   UNL     1     -42.041  60.896 -59.569  1.00  0.00     0.043 A 
HETATM   14  C   UNL     1     -41.804  60.460 -60.865  1.00  0.00     0.116 A 
HETATM   15  C   UNL     1     -41.836  59.107 -61.179  1.00  0.00     0.043 A 
HETATM   16  F   UNL     1     -41.544  61.355 -61.827  1.00  0.00    -0.206 F 
HETATM   17  C   UNL     1     -42.106  58.169 -60.177  1.00  0.00     0.017 A 
ENDBRANCH   9  11
ENDBRANCH   1   5
BRANCH   2  18
HETATM   18  C   UNL     1     -41.666  55.711 -52.377  1.00  0.00     0.161 C 
BRANCH  18  19
HETATM   19  C   UNL     1     -41.009  54.360 -52.253  1.00  0.00    -0.040 A 
HETATM   20  C   UNL     1     -40.969  53.482 -53.349  1.00  0.00     0.018 A 
HETATM   21  C   UNL     1     -40.395  52.207 -53.235  1.00  0.00    -0.024 A 
HETATM   22  C   UNL     1     -39.896  51.795 -51.996  1.00  0.00     0.075 A 
HETATM   23  C   UNL     1     -40.357  51.293 -54.425  1.00  0.00     0.043 C 
HETATM   24  O   UNL     1     -39.335  50.564 -51.777  1.00  0.00    -0.351 OA
HETATM   25  C   UNL     1     -39.926  52.658 -50.902  1.00  0.00     0.038 A 
HETATM   26  C   UNL     1     -39.634  49.591 -52.783  1.00  0.00     0.176 C 
HETATM   27  C   UNL     1     -39.400  50.135 -54.182  1.00  0.00     0.031 C 
HETATM   28  C   UNL     1     -40.483  53.933 -51.027  1.00  0.00     0.011 A 
ENDBRANCH  18  19
ENDBRANCH   2  18
TORSDOF 4
ENDMDL
MODEL 3
REMARK VINA RESULT:      -8.6      3.813      9.255
REMARK  4 active torsions:
REMARK  status: ('A' for Active; 'I' for Inactive)
REMARK    1  A    between atoms: C_2  and  C_3 
REMARK    2  A    between atoms: C_7  and  C_8 
REMARK       I    between atoms: C_8  and  N_9 
REMARK    3  A    between atoms: N_9  and  C_10 
REMARK    4  A    between atoms: C_10  and  C_11 
ROOT
HETATM    1  C   UNL     1     -42.525  56.138 -55.494  1.00  0.00     0.270 C 
HETATM    2  N   UNL     1     -42.047  56.736 -56.633  1.00  0.00    -0.351 N 
HETATM    3  O   UNL     1     -43.549  56.508 -54.932  1.00  0.00    -0.266 OA
HETATM    4  H   UNL     1     -41.253  56.344 -57.115  1.00  0.00     0.163 HD
ENDROOT
BRANCH   1   5
HETATM    5  C   UNL     1     -41.738  55.045 -54.992  1.00  0.00     0.120 A 
HETATM    6  N   UNL     1     -40.647  54.588 -55.677  1.00  0.00    -0.272 N 
HETATM    7  N   UNL     1     -40.008  53.573 -55.083  1.00  0.00    -0.174 NA
HETATM    8  H   UNL     1     -40.294  54.943 -56.562  1.00  0.00     0.189 HD
HETATM    9  C   UNL     1     -40.708  53.337 -53.962  1.00  0.00     0.089 A 
HETATM   10  C   UNL     1     -41.806  54.242 -53.871  1.00  0.00     0.071 A 
BRANCH   9  11
HETATM   11  C   UNL     1     -40.313  52.281 -53.022  1.00  0.00    -0.005 A 
HETATM   12  C   UNL     1     -40.013  50.990 -53.494  1.00  0.00     0.017 A 
HETATM   13  C   UNL     1     -39.627  49.976 -52.614  1.00  0.00     0.043 A 
HETATM   14  C   UNL     1     -39.543  50.247 -51.256  1.00  0.00     0.116 A 
HETATM   15  C   UNL     1     -39.839  51.511 -50.761  1.00  0.00     0.043 A 
HETATM   16  F   UNL     1     -39.174  49.277 -50.409  1.00  0.00    -0.206 F 
HETATM   17  C   UNL     1     -40.224  52.528 -51.642  1.00  0.00     0.017 A 
ENDBRANCH   9  11
ENDBRANCH   1   5
BRANCH   2  18
HETATM   18  C   UNL     1     -42.752  57.823 -57.273  1.00  0.00     0.161 C 
BRANCH  18  19
HETATM   19  C   UNL     1     -43.670  57.324 -58.359  1.00  0.00    -0.040 A 
HETATM   20  C   UNL     1     -44.836  58.032 -58.691  1.00  0.00     0.018 A 
HETATM   21  C   UNL     1     -45.717  57.557 -59.674  1.00  0.00    -0.024 A 
HETATM   22  C   UNL     1     -45.445  56.336 -60.298  1.00  0.00     0.075 A 
HETATM   23  C   UNL     1     -46.952  58.339 -60.016  1.00  0.00     0.043 C 
HETATM   24  O   UNL     1     -46.252  55.778 -61.254  1.00  0.00    -0.351 OA
HETATM   25  C   UNL     1     -44.289  55.625 -59.980  1.00  0.00     0.038 A 
HETATM   26  C   UNL     1     -47.575  56.321 -61.302  1.00  0.00     0.176 C 
HETATM   27  C   UNL     1     -47.561  57.840 -61.319  1.00  0.00     0.031 C 
HETATM   28  C   UNL     1     -43.407  56.113 -59.014  1.00  0.00     0.011 A 
ENDBRANCH  18  19
ENDBRANCH   2  18
TORSDOF 4
ENDMDL
MODEL 4
REMARK VINA RESULT:      -8.5      4.098      9.801
REMARK  4 active torsions:
REMARK  status: ('A' for Active; 'I' for Inactive)
REMARK    1  A    between atoms: C_2  and  C_3 
REMARK    2  A    between atoms: C_7  and  C_8 
REMARK       I    between atoms: C_8  and  N_9 
REMARK    3  A    between atoms: N_9  and  C_10 
REMARK    4  A    between atoms: C_10  and  C_11 
ROOT
HETATM    1  C   UNL     1     -42.985  56.676 -56.983  1.00  0.00     0.270 C 
HETATM    2  N   UNL     1     -44.320  56.950 -57.139  1.00  0.00    -0.351 N 
HETATM    3  O   UNL     1     -42.105  57.343 -57.515  1.00  0.00    -0.266 OA
HETATM    4  H   UNL     1     -45.008  56.434 -56.610  1.00  0.00     0.163 HD
ENDROOT
BRANCH   1   5
HETATM    5  C   UNL     1     -42.679  55.542 -56.153  1.00  0.00     0.120 A 
HETATM    6  N   UNL     1     -43.575  54.523 -55.991  1.00  0.00    -0.272 N 
HETATM    7  N   UNL     1     -43.147  53.532 -55.199  1.00  0.00    -0.174 NA
HETATM    8  H   UNL     1     -44.500  54.458 -56.407  1.00  0.00     0.189 HD
HETATM    9  C   UNL     1     -41.920  53.912 -54.810  1.00  0.00     0.089 A 
HETATM   10  C   UNL     1     -41.590  55.172 -55.388  1.00  0.00     0.071 A 
BRANCH   9  11
HETATM   11  C   UNL     1     -41.107  53.073 -53.921  1.00  0.00    -0.005 A 
HETATM   12  C   UNL     1     -40.848  53.485 -52.601  1.00  0.00     0.017 A 
HETATM   13  C   UNL     1     -40.083  52.694 -51.739  1.00  0.00     0.043 A 
HETATM   14  C   UNL     1     -39.571  51.488 -52.195  1.00  0.00     0.116 A 
HETATM   15  C   UNL     1     -39.806  51.060 -53.495  1.00  0.00     0.043 A 
HETATM   16  F   UNL     1     -38.837  50.728 -51.371  1.00  0.00    -0.206 F 
HETATM   17  C   UNL     1     -40.572  51.849 -54.358  1.00  0.00     0.017 A 
ENDBRANCH   9  11
ENDBRANCH   1   5
BRANCH   2  18
HETATM   18  C   UNL     1     -44.777  58.080 -57.914  1.00  0.00     0.161 C 
BRANCH  18  19
HETATM   19  C   UNL     1     -45.603  57.642 -59.097  1.00  0.00    -0.040 A 
HETATM   20  C   UNL     1     -46.526  58.519 -59.689  1.00  0.00     0.018 A 
HETATM   21  C   UNL     1     -47.326  58.110 -60.766  1.00  0.00    -0.024 A 
HETATM   22  C   UNL     1     -47.228  56.792 -61.223  1.00  0.00     0.075 A 
HETATM   23  C   UNL     1     -48.298  59.071 -61.385  1.00  0.00     0.043 C 
HETATM   24  O   UNL     1     -47.979  56.291 -62.254  1.00  0.00    -0.351 OA
HETATM   25  C   UNL     1     -46.313  55.913 -60.647  1.00  0.00     0.038 A 
HETATM   26  C   UNL     1     -49.132  57.073 -62.580  1.00  0.00     0.176 C 
HETATM   27  C   UNL     1     -48.792  58.546 -62.726  1.00  0.00     0.031 C 
HETATM   28  C   UNL     1     -45.506  56.333 -59.587  1.00  0.00     0.011 A 
ENDBRANCH  18  19
ENDBRANCH   2  18
TORSDOF 4
ENDMDL
MODEL 5
REMARK VINA RESULT:      -8.3      4.337      9.462
REMARK  4 active torsions:
REMARK  status: ('A' for Active; 'I' for Inactive)
REMARK    1  A    between atoms: C_2  and  C_3 
REMARK    2  A    between atoms: C_7  and  C_8 
REMARK       I    between atoms: C_8  and  N_9 
REMARK    3  A    between atoms: N_9  and  C_10 
REMARK    4  A    between atoms: C_10  and  C_11 
ROOT
HETATM    1  C   UNL     1     -42.855  56.028 -56.239  1.00  0.00     0.270 C 
HETATM    2  N   UNL     1     -42.524  56.342 -57.533  1.00  0.00    -0.351 N 
HETATM    3  O   UNL     1     -43.855  56.471 -55.685  1.00  0.00    -0.266 OA
HETATM    4  H   UNL     1     -41.743  55.885 -57.980  1.00  0.00     0.163 HD
ENDROOT
BRANCH   1   5
HETATM    5  C   UNL     1     -41.944  55.144 -55.564  1.00  0.00     0.120 A 
HETATM    6  N   UNL     1     -40.609  55.427 -55.492  1.00  0.00    -0.272 N 
HETATM    7  N   UNL     1     -39.888  54.518 -54.824  1.00  0.00    -0.174 NA
HETATM    8  H   UNL     1     -40.139  56.238 -55.886  1.00  0.00     0.189 HD
HETATM    9  C   UNL     1     -40.778  53.587 -54.445  1.00  0.00     0.089 A 
HETATM   10  C   UNL     1     -42.082  53.945 -54.894  1.00  0.00     0.071 A 
BRANCH   9  11
HETATM   11  C   UNL     1     -40.367  52.408 -53.672  1.00  0.00    -0.005 A 
HETATM   12  C   UNL     1     -40.107  52.521 -52.295  1.00  0.00     0.017 A 
HETATM   13  C   UNL     1     -39.725  51.408 -51.542  1.00  0.00     0.043 A 
HETATM   14  C   UNL     1     -39.597  50.175 -52.166  1.00  0.00     0.116 A 
HETATM   15  C   UNL     1     -39.842  50.035 -53.526  1.00  0.00     0.043 A 
HETATM   16  F   UNL     1     -39.230  49.105 -51.448  1.00  0.00    -0.206 F 
HETATM   17  C   UNL     1     -40.227  51.149 -54.280  1.00  0.00     0.017 A 
ENDBRANCH   9  11
ENDBRANCH   1   5
BRANCH   2  18
HETATM   18  C   UNL     1     -43.364  57.190 -58.347  1.00  0.00     0.161 C 
BRANCH  18  19
HETATM   19  C   UNL     1     -42.735  58.542 -58.570  1.00  0.00    -0.040 A 
HETATM   20  C   UNL     1     -42.577  59.051 -59.869  1.00  0.00     0.018 A 
HETATM   21  C   UNL     1     -41.960  60.291 -60.091  1.00  0.00    -0.024 A 
HETATM   22  C   UNL     1     -41.457  61.005 -58.999  1.00  0.00     0.075 A 
HETATM   23  C   UNL     1     -41.812  60.816 -61.489  1.00  0.00     0.043 C 
HETATM   24  O   UNL     1     -40.821  62.213 -59.112  1.00  0.00    -0.351 OA
HETATM   25  C   UNL     1     -41.612  60.512 -57.704  1.00  0.00     0.038 A 
HETATM   26  C   UNL     1     -40.362  62.518 -60.433  1.00  0.00     0.176 C 
HETATM   27  C   UNL     1     -41.447  62.293 -61.473  1.00  0.00     0.031 C 
HETATM   28  C   UNL     1     -42.244  59.286 -57.489  1.00  0.00     0.011 A 
ENDBRANCH  18  19
ENDBRANCH   2  18
TORSDOF 4
ENDMDL
MODEL 6
REMARK VINA RESULT:      -8.1      3.556      8.706
REMARK  4 active torsions:
REMARK  status: ('A' for Active; 'I' for Inactive)
REMARK    1  A    between atoms: C_2  and  C_3 
REMARK    2  A    between atoms: C_7  and  C_8 
REMARK       I    between atoms: C_8  and  N_9 
REMARK    3  A    between atoms: N_9  and  C_10 
REMARK    4  A    between atoms: C_10  and  C_11 
ROOT
HETATM    1  C   UNL     1     -42.700  57.465 -54.180  1.00  0.00     0.270 C 
HETATM    2  N   UNL     1     -42.083  57.682 -55.387  1.00  0.00    -0.351 N 
HETATM    3  O   UNL     1     -43.692  58.090 -53.822  1.00  0.00    -0.266 OA
HETATM    4  H   UNL     1     -41.327  57.084 -55.683  1.00  0.00     0.163 HD
ENDROOT
BRANCH   1   5
HETATM    5  C   UNL     1     -42.101  56.455 -53.352  1.00  0.00     0.120 A 
HETATM    6  N   UNL     1     -41.790  56.707 -52.045  1.00  0.00    -0.272 N 
HETATM    7  N   UNL     1     -41.247  55.668 -51.397  1.00  0.00    -0.174 NA
HETATM    8  H   UNL     1     -41.934  57.580 -51.545  1.00  0.00     0.189 HD
HETATM    9  C   UNL     1     -41.184  54.689 -52.313  1.00  0.00     0.089 A 
HETATM   10  C   UNL     1     -41.710  55.146 -53.556  1.00  0.00     0.071 A 
BRANCH   9  11
HETATM   11  C   UNL     1     -40.642  53.365 -51.980  1.00  0.00    -0.005 A 
HETATM   12  C   UNL     1     -40.731  52.875 -50.665  1.00  0.00     0.017 A 
HETATM   13  C   UNL     1     -40.229  51.614 -50.334  1.00  0.00     0.043 A 
HETATM   14  C   UNL     1     -39.631  50.838 -51.317  1.00  0.00     0.116 A 
HETATM   15  C   UNL     1     -39.525  51.300 -52.623  1.00  0.00     0.043 A 
HETATM   16  F   UNL     1     -39.148  49.629 -51.003  1.00  0.00    -0.206 F 
HETATM   17  C   UNL     1     -40.029  52.561 -52.956  1.00  0.00     0.017 A 
ENDBRANCH   9  11
ENDBRANCH   1   5
BRANCH   2  18
HETATM   18  C   UNL     1     -42.595  58.640 -56.339  1.00  0.00     0.161 C 
BRANCH  18  19
HETATM   19  C   UNL     1     -43.046  57.969 -57.612  1.00  0.00    -0.040 A 
HETATM   20  C   UNL     1     -44.409  57.733 -57.850  1.00  0.00     0.018 A 
HETATM   21  C   UNL     1     -44.838  57.076 -59.013  1.00  0.00    -0.024 A 
HETATM   22  C   UNL     1     -43.883  56.612 -59.923  1.00  0.00     0.075 A 
HETATM   23  C   UNL     1     -46.303  56.845 -59.247  1.00  0.00     0.043 C 
HETATM   24  O   UNL     1     -44.199  55.942 -61.076  1.00  0.00    -0.351 OA
HETATM   25  C   UNL     1     -42.528  56.844 -59.700  1.00  0.00     0.038 A 
HETATM   26  C   UNL     1     -45.527  55.410 -61.106  1.00  0.00     0.176 C 
HETATM   27  C   UNL     1     -46.559  56.446 -60.694  1.00  0.00     0.031 C 
HETATM   28  C   UNL     1     -42.109  57.515 -58.549  1.00  0.00     0.011 A 
ENDBRANCH  18  19
ENDBRANCH   2  18
TORSDOF 4
ENDMDL
MODEL 7
REMARK VINA RESULT:      -8.0      1.962      2.140
REMARK  4 active torsions:
REMARK  status: ('A' for Active; 'I' for Inactive)
REMARK    1  A    between atoms: C_2  and  C_3 
REMARK    2  A    between atoms: C_7  and  C_8 
REMARK       I    between atoms: C_8  and  N_9 
REMARK    3  A    between atoms: N_9  and  C_10 
REMARK    4  A    between atoms: C_10  and  C_11 
ROOT
HETATM    1  C   UNL     1     -41.576  57.699 -52.368  1.00  0.00     0.270 C 
HETATM    2  N   UNL     1     -41.597  56.328 -52.310  1.00  0.00    -0.351 N 
HETATM    3  O   UNL     1     -41.391  58.401 -51.381  1.00  0.00    -0.266 OA
HETATM    4  H   UNL     1     -41.661  55.787 -53.159  1.00  0.00     0.163 HD
ENDROOT
BRANCH   1   5
HETATM    5  C   UNL     1     -41.794  58.266 -53.671  1.00  0.00     0.120 A 
HETATM    6  N   UNL     1     -41.387  59.538 -53.964  1.00  0.00    -0.272 N 
HETATM    7  N   UNL     1     -41.649  59.925 -55.219  1.00  0.00    -0.174 NA
HETATM    8  H   UNL     1     -40.919  60.184 -53.335  1.00  0.00     0.189 HD
HETATM    9  C   UNL     1     -42.265  58.873 -55.780  1.00  0.00     0.089 A 
HETATM   10  C   UNL     1     -42.377  57.811 -54.837  1.00  0.00     0.071 A 
BRANCH   9  11
HETATM   11  C   UNL     1     -42.714  58.907 -57.177  1.00  0.00    -0.005 A 
HETATM   12  C   UNL     1     -42.075  58.111 -58.145  1.00  0.00     0.017 A 
HETATM   13  C   UNL     1     -42.495  58.125 -59.477  1.00  0.00     0.043 A 
HETATM   14  C   UNL     1     -43.556  58.938 -59.849  1.00  0.00     0.116 A 
HETATM   15  C   UNL     1     -44.202  59.738 -58.916  1.00  0.00     0.043 A 
HETATM   16  F   UNL     1     -43.961  58.954 -61.126  1.00  0.00    -0.206 F 
HETATM   17  C   UNL     1     -43.783  59.724 -57.582  1.00  0.00     0.017 A 
ENDBRANCH   9  11
ENDBRANCH   1   5
BRANCH   2  18
HETATM   18  C   UNL     1     -41.357  55.617 -51.075  1.00  0.00     0.161 C 
BRANCH  18  19
HETATM   19  C   UNL     1     -40.819  54.232 -51.330  1.00  0.00    -0.040 A 
HETATM   20  C   UNL     1     -40.764  53.715 -52.635  1.00  0.00     0.018 A 
HETATM   21  C   UNL     1     -40.301  52.414 -52.880  1.00  0.00    -0.024 A 
HETATM   22  C   UNL     1     -39.931  51.610 -51.798  1.00  0.00     0.075 A 
HETATM   23  C   UNL     1     -40.244  51.891 -54.286  1.00  0.00     0.043 C 
HETATM   24  O   UNL     1     -39.485  50.321 -51.932  1.00  0.00    -0.351 OA
HETATM   25  C   UNL     1     -39.976  52.112 -50.499  1.00  0.00     0.038 A 
HETATM   26  C   UNL     1     -39.782  49.720 -53.196  1.00  0.00     0.176 C 
HETATM   27  C   UNL     1     -39.401  50.626 -54.354  1.00  0.00     0.031 C 
HETATM   28  C   UNL     1     -40.422  53.415 -50.264  1.00  0.00     0.011 A 
ENDBRANCH  18  19
ENDBRANCH   2  18
TORSDOF 4
ENDMDL
MODEL 8
REMARK VINA RESULT:      -8.0      5.105      8.881
REMARK  4 active torsions:
REMARK  status: ('A' for Active; 'I' for Inactive)
REMARK    1  A    between atoms: C_2  and  C_3 
REMARK    2  A    between atoms: C_7  and  C_8 
REMARK       I    between atoms: C_8  and  N_9 
REMARK    3  A    between atoms: N_9  and  C_10 
REMARK    4  A    between atoms: C_10  and  C_11 
ROOT
HETATM    1  C   UNL     1     -42.158  57.702 -54.660  1.00  0.00     0.270 C 
HETATM    2  N   UNL     1     -42.632  58.261 -53.500  1.00  0.00    -0.351 N 
HETATM    3  O   UNL     1     -42.156  58.299 -55.731  1.00  0.00    -0.266 OA
HETATM    4  H   UNL     1     -42.530  57.770 -52.624  1.00  0.00     0.163 HD
ENDROOT
BRANCH   1   5
HETATM    5  C   UNL     1     -41.665  56.357 -54.543  1.00  0.00     0.120 A 
HETATM    6  N   UNL     1     -41.419  55.596 -55.652  1.00  0.00    -0.272 N 
HETATM    7  N   UNL     1     -40.954  54.368 -55.386  1.00  0.00    -0.174 NA
HETATM    8  H   UNL     1     -41.552  55.874 -56.620  1.00  0.00     0.189 HD
HETATM    9  C   UNL     1     -40.898  54.306 -54.047  1.00  0.00     0.089 A 
HETATM   10  C   UNL     1     -41.339  55.538 -53.480  1.00  0.00     0.071 A 
BRANCH   9  11
HETATM   11  C   UNL     1     -40.426  53.099 -53.357  1.00  0.00    -0.005 A 
HETATM   12  C   UNL     1     -40.290  53.092 -51.957  1.00  0.00     0.017 A 
HETATM   13  C   UNL     1     -39.850  51.950 -51.284  1.00  0.00     0.043 A 
HETATM   14  C   UNL     1     -39.540  50.808 -52.009  1.00  0.00     0.116 A 
HETATM   15  C   UNL     1     -39.660  50.789 -53.393  1.00  0.00     0.043 A 
HETATM   16  F   UNL     1     -39.117  49.711 -51.368  1.00  0.00    -0.206 F 
HETATM   17  C   UNL     1     -40.102  51.931 -54.068  1.00  0.00     0.017 A 
ENDBRANCH   9  11
ENDBRANCH   1   5
BRANCH   2  18
HETATM   18  C   UNL     1     -43.124  59.618 -53.457  1.00  0.00     0.161 C 
BRANCH  18  19
HETATM   19  C   UNL     1     -43.918  59.879 -52.202  1.00  0.00    -0.040 A 
HETATM   20  C   UNL     1     -43.646  61.004 -51.406  1.00  0.00     0.018 A 
HETATM   21  C   UNL     1     -44.352  61.237 -50.217  1.00  0.00    -0.024 A 
HETATM   22  C   UNL     1     -45.309  60.306 -49.801  1.00  0.00     0.075 A 
HETATM   23  C   UNL     1     -44.048  62.452 -49.390  1.00  0.00     0.043 C 
HETATM   24  O   UNL     1     -46.037  60.433 -48.647  1.00  0.00    -0.351 OA
HETATM   25  C   UNL     1     -45.591  59.189 -50.584  1.00  0.00     0.038 A 
HETATM   26  C   UNL     1     -45.494  61.363 -47.705  1.00  0.00     0.176 C 
HETATM   27  C   UNL     1     -45.143  62.688 -48.359  1.00  0.00     0.031 C 
HETATM   28  C   UNL     1     -44.897  58.972 -51.777  1.00  0.00     0.011 A 
ENDBRANCH  18  19
ENDBRANCH   2  18
TORSDOF 4
ENDMDL
MODEL 9
REMARK VINA RESULT:      -8.0      3.980      8.991
REMARK  4 active torsions:
REMARK  status: ('A' for Active; 'I' for Inactive)
REMARK    1  A    between atoms: C_2  and  C_3 
REMARK    2  A    between atoms: C_7  and  C_8 
REMARK       I    between atoms: C_8  and  N_9 
REMARK    3  A    between atoms: N_9  and  C_10 
REMARK    4  A    between atoms: C_10  and  C_11 
ROOT
HETATM    1  C   UNL     1     -42.373  57.911 -53.678  1.00  0.00     0.270 C 
HETATM    2  N   UNL     1     -41.760  58.413 -54.798  1.00  0.00    -0.351 N 
HETATM    3  O   UNL     1     -43.268  58.507 -53.089  1.00  0.00    -0.266 OA
HETATM    4  H   UNL     1     -41.094  57.850 -55.305  1.00  0.00     0.163 HD
ENDROOT
BRANCH   1   5
HETATM    5  C   UNL     1     -41.891  56.634 -53.228  1.00  0.00     0.120 A 
HETATM    6  N   UNL     1     -41.788  56.347 -51.896  1.00  0.00    -0.272 N 
HETATM    7  N   UNL     1     -41.333  55.116 -51.630  1.00  0.00    -0.174 NA
HETATM    8  H   UNL     1     -42.021  56.964 -51.123  1.00  0.00     0.189 HD
HETATM    9  C   UNL     1     -41.114  54.565 -52.834  1.00  0.00     0.089 A 
HETATM   10  C   UNL     1     -41.451  55.490 -53.865  1.00  0.00     0.071 A 
BRANCH   9  11
HETATM   11  C   UNL     1     -40.607  53.193 -52.966  1.00  0.00    -0.005 A 
HETATM   12  C   UNL     1     -40.768  52.493 -54.176  1.00  0.00     0.017 A 
HETATM   13  C   UNL     1     -40.284  51.191 -54.321  1.00  0.00     0.043 A 
HETATM   14  C   UNL     1     -39.638  50.580 -53.255  1.00  0.00     0.116 A 
HETATM   15  C   UNL     1     -39.470  51.246 -52.047  1.00  0.00     0.043 A 
HETATM   16  F   UNL     1     -39.173  49.331 -53.391  1.00  0.00    -0.206 F 
HETATM   17  C   UNL     1     -39.953  52.551 -51.902  1.00  0.00     0.017 A 
ENDBRANCH   9  11
ENDBRANCH   1   5
BRANCH   2  18
HETATM   18  C   UNL     1     -42.165  59.669 -55.386  1.00  0.00     0.161 C 
BRANCH  18  19
HETATM   19  C   UNL     1     -42.064  59.634 -56.890  1.00  0.00    -0.040 A 
HETATM   20  C   UNL     1     -41.857  60.815 -57.620  1.00  0.00     0.018 A 
HETATM   21  C   UNL     1     -41.798  60.800 -59.022  1.00  0.00    -0.024 A 
HETATM   22  C   UNL     1     -41.994  59.591 -59.697  1.00  0.00     0.075 A 
HETATM   23  C   UNL     1     -41.567  62.077 -59.777  1.00  0.00     0.043 C 
HETATM   24  O   UNL     1     -41.976  59.475 -61.062  1.00  0.00    -0.351 OA
HETATM   25  C   UNL     1     -42.196  58.411 -58.984  1.00  0.00     0.038 A 
HETATM   26  C   UNL     1     -42.127  60.714 -61.762  1.00  0.00     0.176 C 
HETATM   27  C   UNL     1     -41.195  61.785 -61.223  1.00  0.00     0.031 C 
HETATM   28  C   UNL     1     -42.235  58.431 -57.588  1.00  0.00     0.011 A 
ENDBRANCH  18  19
ENDBRANCH   2  18
TORSDOF 4
ENDMDL
MODEL 10
REMARK VINA RESULT:      -7.9     15.191     18.629
REMARK  4 active torsions:
REMARK  status: ('A' for Active; 'I' for Inactive)
REMARK    1  A    between atoms: C_2  and  C_3 
REMARK    2  A    between atoms: C_7  and  C_8 
REMARK       I    between atoms: C_8  and  N_9 
REMARK    3  A    between atoms: N_9  and  C_10 
REMARK    4  A    between atoms: C_10  and  C_11 
ROOT
HETATM    1  C   UNL     1     -35.374  41.889 -53.025  1.00  0.00     0.270 C 
HETATM    2  N   UNL     1     -34.926  42.013 -54.316  1.00  0.00    -0.351 N 
HETATM    3  O   UNL     1     -36.472  42.295 -52.663  1.00  0.00    -0.266 OA
HETATM    4  H   UNL     1     -34.055  41.584 -54.592  1.00  0.00     0.163 HD
ENDROOT
BRANCH   1   5
HETATM    5  C   UNL     1     -34.463  41.251 -52.112  1.00  0.00     0.120 A 
HETATM    6  N   UNL     1     -33.148  41.073 -52.437  1.00  0.00    -0.272 N 
HETATM    7  N   UNL     1     -32.421  40.474 -51.485  1.00  0.00    -0.174 NA
HETATM    8  H   UNL     1     -32.695  41.347 -53.305  1.00  0.00     0.189 HD
HETATM    9  C   UNL     1     -33.290  40.236 -50.491  1.00  0.00     0.089 A 
HETATM   10  C   UNL     1     -34.587  40.709 -50.849  1.00  0.00     0.071 A 
BRANCH   9  11
HETATM   11  C   UNL     1     -32.866  39.584 -49.245  1.00  0.00    -0.005 A 
HETATM   12  C   UNL     1     -33.659  38.574 -48.671  1.00  0.00     0.017 A 
HETATM   13  C   UNL     1     -33.266  37.937 -47.491  1.00  0.00     0.043 A 
HETATM   14  C   UNL     1     -32.078  38.310 -46.878  1.00  0.00     0.116 A 
HETATM   15  C   UNL     1     -31.279  39.308 -47.420  1.00  0.00     0.043 A 
HETATM   16  F   UNL     1     -31.699  37.701 -45.746  1.00  0.00    -0.206 F 
HETATM   17  C   UNL     1     -31.670  39.945 -48.602  1.00  0.00     0.017 A 
ENDBRANCH   9  11
ENDBRANCH   1   5
BRANCH   2  18
HETATM   18  C   UNL     1     -35.746  42.599 -55.351  1.00  0.00     0.161 C 
BRANCH  18  19
HETATM   19  C   UNL     1     -36.300  41.548 -56.279  1.00  0.00    -0.040 A 
HETATM   20  C   UNL     1     -36.504  41.831 -57.639  1.00  0.00     0.018 A 
HETATM   21  C   UNL     1     -37.054  40.873 -58.504  1.00  0.00    -0.024 A 
HETATM   22  C   UNL     1     -37.442  39.634 -57.986  1.00  0.00     0.075 A 
HETATM   23  C   UNL     1     -37.253  41.200 -59.955  1.00  0.00     0.043 C 
HETATM   24  O   UNL     1     -38.006  38.641 -58.744  1.00  0.00    -0.351 OA
HETATM   25  C   UNL     1     -37.241  39.339 -56.639  1.00  0.00     0.038 A 
HETATM   26  C   UNL     1     -38.524  39.080 -60.003  1.00  0.00     0.176 C 
HETATM   27  C   UNL     1     -37.522  39.935 -60.758  1.00  0.00     0.031 C 
HETATM   28  C   UNL     1     -36.676  40.291 -55.788  1.00  0.00     0.011 A 
ENDBRANCH  18  19
ENDBRANCH   2  18
TORSDOF 4
ENDMDL
