MODEL 1
REMARK VINA RESULT:      -9.3      0.000      0.000
REMARK  7 active torsions:
REMARK  status: ('A' for Active; 'I' for Inactive)
REMARK    1  A    between atoms: C_2  and  N_3 
REMARK    2  A    between atoms: N_7  and  C_8 
REMARK    3  A    between atoms: C_11  and  N_12 
REMARK    4  A    between atoms: N_12  and  C_13 
REMARK    5  A    between atoms: C_13  and  N_14 
REMARK       I    between atoms: N_14  and  C_15 
REMARK    6  A    between atoms: C_15  and  C_16 
REMARK    7  A    between atoms: C_18  and  C_19 
ROOT
HETATM    1  C   UNL     1     -44.416  58.031 -51.788  1.00  0.00     0.179 C 
HETATM    2  S   UNL     1     -45.694  58.778 -50.986  1.00  0.00    -0.040 SA
ENDROOT
BRANCH   1   3
HETATM    3  N   UNL     1     -44.498  56.960 -52.639  1.00  0.00    -0.333 N 
HETATM    4  H   UNL     1     -45.158  56.247 -52.340  1.00  0.00     0.168 HD
BRANCH   3   5
HETATM    5  C   UNL     1     -44.191  56.994 -54.019  1.00  0.00     0.034 A 
HETATM    6  C   UNL     1     -43.390  56.025 -54.610  1.00  0.00     0.032 A 
HETATM    7  C   UNL     1     -43.055  56.105 -55.970  1.00  0.00     0.031 A 
HETATM    8  C   UNL     1     -43.477  57.168 -56.786  1.00  0.00     0.030 A 
HETATM    9  C   UNL     1     -44.376  58.067 -56.183  1.00  0.00     0.031 A 
HETATM   10  C   UNL     1     -44.728  57.988 -54.823  1.00  0.00     0.032 A 
BRANCH   8  11
HETATM   11  N   UNL     1     -43.055  57.291 -58.124  1.00  0.00    -0.378 N 
HETATM   12  C   UNL     1     -43.794  58.232 -59.002  1.00  0.00     0.150 C 
HETATM   13  C   UNL     1     -45.118  57.589 -59.479  1.00  0.00     0.254 C 
HETATM   14  N   UNL     1     -44.842  56.261 -60.208  1.00  0.00    -0.068 N 
HETATM   15  H   UNL     1     -44.299  56.486 -61.052  1.00  0.00     0.280 HD
HETATM   16  C   UNL     1     -43.954  55.330 -59.354  1.00  0.00     0.254 C 
HETATM   17  C   UNL     1     -42.684  56.067 -58.869  1.00  0.00     0.150 C 
BRANCH  14  18
HETATM   18  C   UNL     1     -46.103  55.545 -60.635  1.00  0.00     0.230 C 
HETATM   19  C   UNL     1     -47.309  56.461 -60.540  1.00  0.00     0.034 C 
ENDBRANCH  14  18
ENDBRANCH   8  11
ENDBRANCH   3   5
ENDBRANCH   1   3
BRANCH   1  20
HETATM   20  N   UNL     1     -43.168  58.567 -51.537  1.00  0.00    -0.298 N 
HETATM   21  C   UNL     1     -41.832  58.166 -51.498  1.00  0.00     0.281 C 
HETATM   22  O   UNL     1     -41.012  59.037 -51.808  1.00  0.00    -0.265 OA
HETATM   23  H   UNL     1     -43.185  59.570 -51.691  1.00  0.00     0.171 HD
BRANCH  21  24
HETATM   24  C   UNL     1     -41.408  56.837 -51.117  1.00  0.00     0.144 A 
HETATM   25  O   UNL     1     -41.041  55.875 -52.025  1.00  0.00    -0.304 OA
HETATM   26  C   UNL     1     -40.834  54.718 -51.317  1.00  0.00     0.086 A 
HETATM   27  C   UNL     1     -41.052  54.932 -49.974  1.00  0.00     0.041 A 
HETATM   28  C   UNL     1     -41.406  56.289 -49.845  1.00  0.00     0.046 A 
BRANCH  26  29
HETATM   29  C   UNL     1     -40.488  53.532 -52.078  1.00  0.00    -0.001 A 
HETATM   30  C   UNL     1     -40.073  52.363 -51.431  1.00  0.00     0.040 A 
HETATM   31  C   UNL     1     -39.758  51.216 -52.168  1.00  0.00     0.056 A 
HETATM   32 CL   UNL     1     -39.230  49.821 -51.293  1.00  0.00    -0.083 Cl
HETATM   33  C   UNL     1     -39.873  51.225 -53.562  1.00  0.00     0.055 A 
HETATM   34 CL   UNL     1     -39.499  49.846 -54.532  1.00  0.00    -0.083 Cl
HETATM   35  C   UNL     1     -40.305  52.383 -54.213  1.00  0.00     0.026 A 
HETATM   36  C   UNL     1     -40.611  53.528 -53.473  1.00  0.00     0.016 A 
ENDBRANCH  26  29
ENDBRANCH  21  24
ENDBRANCH   1  20
TORSDOF 7
ENDMDL
MODEL 2
REMARK VINA RESULT:      -9.1      1.489      1.685
REMARK  7 active torsions:
REMARK  status: ('A' for Active; 'I' for Inactive)
REMARK    1  A    between atoms: C_2  and  N_3 
REMARK    2  A    between atoms: N_7  and  C_8 
REMARK    3  A    between atoms: C_11  and  N_12 
REMARK    4  A    between atoms: N_12  and  C_13 
REMARK    5  A    between atoms: C_13  and  N_14 
REMARK       I    between atoms: N_14  and  C_15 
REMARK    6  A    between atoms: C_15  and  C_16 
REMARK    7  A    between atoms: C_18  and  C_19 
ROOT
HETATM    1  C   UNL     1     -43.116  58.997 -52.963  1.00  0.00     0.179 C 
HETATM    2  S   UNL     1     -43.480  60.614 -52.669  1.00  0.00    -0.040 SA
ENDROOT
BRANCH   1   3
HETATM    3  N   UNL     1     -42.143  58.517 -53.802  1.00  0.00    -0.333 N 
HETATM    4  H   UNL     1     -41.352  58.099 -53.317  1.00  0.00     0.168 HD
BRANCH   3   5
HETATM    5  C   UNL     1     -42.355  58.100 -55.136  1.00  0.00     0.034 A 
HETATM    6  C   UNL     1     -42.542  56.761 -55.458  1.00  0.00     0.032 A 
HETATM    7  C   UNL     1     -42.699  56.362 -56.793  1.00  0.00     0.031 A 
HETATM    8  C   UNL     1     -42.646  57.273 -57.861  1.00  0.00     0.030 A 
HETATM    9  C   UNL     1     -42.568  58.629 -57.491  1.00  0.00     0.031 A 
HETATM   10  C   UNL     1     -42.423  59.040 -56.153  1.00  0.00     0.032 A 
BRANCH   8  11
HETATM   11  N   UNL     1     -42.706  56.851 -59.203  1.00  0.00    -0.378 N 
HETATM   12  C   UNL     1     -42.893  57.886 -60.250  1.00  0.00     0.150 C 
HETATM   13  C   UNL     1     -44.377  58.315 -60.318  1.00  0.00     0.254 C 
HETATM   14  N   UNL     1     -45.281  57.097 -60.586  1.00  0.00    -0.068 N 
HETATM   15  H   UNL     1     -45.033  56.735 -61.515  1.00  0.00     0.280 HD
HETATM   16  C   UNL     1     -44.993  55.959 -59.583  1.00  0.00     0.254 C 
HETATM   17  C   UNL     1     -43.482  55.634 -59.533  1.00  0.00     0.150 C 
BRANCH  14  18
HETATM   18  C   UNL     1     -46.753  57.439 -60.590  1.00  0.00     0.230 C 
HETATM   19  C   UNL     1     -47.537  56.471 -61.456  1.00  0.00     0.034 C 
ENDBRANCH  14  18
ENDBRANCH   8  11
ENDBRANCH   3   5
ENDBRANCH   1   3
BRANCH   1  20
HETATM   20  N   UNL     1     -43.898  58.083 -52.287  1.00  0.00    -0.298 N 
HETATM   21  C   UNL     1     -43.766  57.084 -51.322  1.00  0.00     0.281 C 
HETATM   22  O   UNL     1     -44.750  56.921 -50.593  1.00  0.00    -0.265 OA
HETATM   23  H   UNL     1     -44.864  58.394 -52.278  1.00  0.00     0.171 HD
BRANCH  21  24
HETATM   24  C   UNL     1     -42.576  56.276 -51.168  1.00  0.00     0.144 A 
HETATM   25  O   UNL     1     -42.266  55.225 -51.995  1.00  0.00    -0.304 OA
HETATM   26  C   UNL     1     -41.153  54.620 -51.471  1.00  0.00     0.086 A 
HETATM   27  C   UNL     1     -40.742  55.275 -50.332  1.00  0.00     0.041 A 
HETATM   28  C   UNL     1     -41.644  56.341 -50.145  1.00  0.00     0.046 A 
BRANCH  26  29
HETATM   29  C   UNL     1     -40.664  53.434 -52.150  1.00  0.00    -0.001 A 
HETATM   30  C   UNL     1     -40.209  52.330 -51.423  1.00  0.00     0.040 A 
HETATM   31  C   UNL     1     -39.756  51.181 -52.083  1.00  0.00     0.056 A 
HETATM   32 CL   UNL     1     -39.187  49.870 -51.110  1.00  0.00    -0.083 Cl
HETATM   33  C   UNL     1     -39.771  51.124 -53.481  1.00  0.00     0.055 A 
HETATM   34 CL   UNL     1     -39.225  49.741 -54.358  1.00  0.00    -0.083 Cl
HETATM   35  C   UNL     1     -40.242  52.217 -54.212  1.00  0.00     0.026 A 
HETATM   36  C   UNL     1     -40.687  53.364 -53.549  1.00  0.00     0.016 A 
ENDBRANCH  26  29
ENDBRANCH  21  24
ENDBRANCH   1  20
TORSDOF 7
ENDMDL
MODEL 3
REMARK VINA RESULT:      -8.6      1.606      2.569
REMARK  7 active torsions:
REMARK  status: ('A' for Active; 'I' for Inactive)
REMARK    1  A    between atoms: C_2  and  N_3 
REMARK    2  A    between atoms: N_7  and  C_8 
REMARK    3  A    between atoms: C_11  and  N_12 
REMARK    4  A    between atoms: N_12  and  C_13 
REMARK    5  A    between atoms: C_13  and  N_14 
REMARK       I    between atoms: N_14  and  C_15 
REMARK    6  A    between atoms: C_15  and  C_16 
REMARK    7  A    between atoms: C_18  and  C_19 
ROOT
HETATM    1  C   UNL     1     -43.648  59.215 -52.862  1.00  0.00     0.179 C 
HETATM    2  S   UNL     1     -44.530  58.433 -51.661  1.00  0.00    -0.040 SA
ENDROOT
BRANCH   1   3
HETATM    3  N   UNL     1     -44.153  59.854 -53.965  1.00  0.00    -0.333 N 
HETATM    4  H   UNL     1     -44.491  60.795 -53.775  1.00  0.00     0.168 HD
BRANCH   3   5
HETATM    5  C   UNL     1     -43.793  59.573 -55.302  1.00  0.00     0.034 A 
HETATM    6  C   UNL     1     -42.889  60.369 -55.995  1.00  0.00     0.032 A 
HETATM    7  C   UNL     1     -42.584  60.103 -57.338  1.00  0.00     0.031 A 
HETATM    8  C   UNL     1     -43.188  59.055 -58.052  1.00  0.00     0.030 A 
HETATM    9  C   UNL     1     -44.009  58.205 -57.290  1.00  0.00     0.031 A 
HETATM   10  C   UNL     1     -44.311  58.455 -55.939  1.00  0.00     0.032 A 
BRANCH   8  11
HETATM   11  N   UNL     1     -42.949  58.857 -59.426  1.00  0.00    -0.378 N 
HETATM   12  C   UNL     1     -44.070  59.091 -60.368  1.00  0.00     0.150 C 
HETATM   13  C   UNL     1     -45.035  57.883 -60.361  1.00  0.00     0.254 C 
HETATM   14  N   UNL     1     -44.282  56.588 -60.718  1.00  0.00    -0.068 N 
HETATM   15  H   UNL     1     -43.943  56.692 -61.683  1.00  0.00     0.280 HD
HETATM   16  C   UNL     1     -43.032  56.407 -59.832  1.00  0.00     0.254 C 
HETATM   17  C   UNL     1     -42.154  57.681 -59.848  1.00  0.00     0.150 C 
BRANCH  14  18
HETATM   18  C   UNL     1     -45.157  55.356 -60.656  1.00  0.00     0.230 C 
HETATM   19  C   UNL     1     -44.602  54.341 -59.674  1.00  0.00     0.034 C 
ENDBRANCH  14  18
ENDBRANCH   8  11
ENDBRANCH   3   5
ENDBRANCH   1   3
BRANCH   1  20
HETATM   20  N   UNL     1     -42.276  59.184 -52.702  1.00  0.00    -0.298 N 
HETATM   21  C   UNL     1     -41.165  58.508 -53.207  1.00  0.00     0.281 C 
HETATM   22  O   UNL     1     -40.118  59.163 -53.236  1.00  0.00    -0.265 OA
HETATM   23  H   UNL     1     -41.953  60.069 -52.323  1.00  0.00     0.171 HD
BRANCH  21  24
HETATM   24  C   UNL     1     -41.206  57.138 -53.665  1.00  0.00     0.144 A 
HETATM   25  O   UNL     1     -40.878  56.067 -52.870  1.00  0.00    -0.304 OA
HETATM   26  C   UNL     1     -40.903  54.954 -53.670  1.00  0.00     0.086 A 
HETATM   27  C   UNL     1     -41.253  55.295 -54.957  1.00  0.00     0.041 A 
HETATM   28  C   UNL     1     -41.459  56.688 -54.951  1.00  0.00     0.046 A 
BRANCH  26  29
HETATM   29  C   UNL     1     -40.529  53.692 -53.057  1.00  0.00    -0.001 A 
HETATM   30  C   UNL     1     -40.183  52.589 -53.845  1.00  0.00     0.040 A 
HETATM   31  C   UNL     1     -39.805  51.380 -53.249  1.00  0.00     0.056 A 
HETATM   32 CL   UNL     1     -39.417  50.059 -54.295  1.00  0.00    -0.083 Cl
HETATM   33  C   UNL     1     -39.756  51.271 -51.856  1.00  0.00     0.055 A 
HETATM   34 CL   UNL     1     -39.301  49.810 -51.056  1.00  0.00    -0.083 Cl
HETATM   35  C   UNL     1     -40.082  52.375 -51.064  1.00  0.00     0.026 A 
HETATM   36  C   UNL     1     -40.465  53.578 -51.663  1.00  0.00     0.016 A 
ENDBRANCH  26  29
ENDBRANCH  21  24
ENDBRANCH   1  20
TORSDOF 7
ENDMDL
MODEL 4
REMARK VINA RESULT:      -8.5      1.544      2.708
REMARK  7 active torsions:
REMARK  status: ('A' for Active; 'I' for Inactive)
REMARK    1  A    between atoms: C_2  and  N_3 
REMARK    2  A    between atoms: N_7  and  C_8 
REMARK    3  A    between atoms: C_11  and  N_12 
REMARK    4  A    between atoms: N_12  and  C_13 
REMARK    5  A    between atoms: C_13  and  N_14 
REMARK       I    between atoms: N_14  and  C_15 
REMARK    6  A    between atoms: C_15  and  C_16 
REMARK    7  A    between atoms: C_18  and  C_19 
ROOT
HETATM    1  C   UNL     1     -44.370  58.021 -51.824  1.00  0.00     0.179 C 
HETATM    2  S   UNL     1     -45.654  58.623 -50.917  1.00  0.00    -0.040 SA
ENDROOT
BRANCH   1   3
HETATM    3  N   UNL     1     -44.438  57.074 -52.813  1.00  0.00    -0.333 N 
HETATM    4  H   UNL     1     -44.917  56.222 -52.533  1.00  0.00     0.168 HD
BRANCH   3   5
HETATM    5  C   UNL     1     -44.393  57.345 -54.199  1.00  0.00     0.034 A 
HETATM    6  C   UNL     1     -43.670  56.542 -55.074  1.00  0.00     0.032 A 
HETATM    7  C   UNL     1     -43.596  56.857 -56.439  1.00  0.00     0.031 A 
HETATM    8  C   UNL     1     -44.211  57.997 -56.981  1.00  0.00     0.030 A 
HETATM    9  C   UNL     1     -45.025  58.721 -56.090  1.00  0.00     0.031 A 
HETATM   10  C   UNL     1     -45.116  58.406 -54.722  1.00  0.00     0.032 A 
BRANCH   8  11
HETATM   11  N   UNL     1     -44.050  58.357 -58.333  1.00  0.00    -0.378 N 
HETATM   12  C   UNL     1     -42.760  58.035 -58.990  1.00  0.00     0.150 C 
HETATM   13  C   UNL     1     -41.682  59.068 -58.586  1.00  0.00     0.254 C 
HETATM   14  N   UNL     1     -42.138  60.494 -58.946  1.00  0.00    -0.068 N 
HETATM   15  H   UNL     1     -42.221  60.535 -59.970  1.00  0.00     0.280 HD
HETATM   16  C   UNL     1     -43.544  60.789 -58.382  1.00  0.00     0.254 C 
HETATM   17  C   UNL     1     -44.545  59.679 -58.781  1.00  0.00     0.150 C 
BRANCH  14  18
HETATM   18  C   UNL     1     -41.158  61.559 -58.508  1.00  0.00     0.230 C 
HETATM   19  C   UNL     1     -40.576  62.290 -59.704  1.00  0.00     0.034 C 
ENDBRANCH  14  18
ENDBRANCH   8  11
ENDBRANCH   3   5
ENDBRANCH   1   3
BRANCH   1  20
HETATM   20  N   UNL     1     -43.131  58.545 -51.512  1.00  0.00    -0.298 N 
HETATM   21  C   UNL     1     -41.799  58.136 -51.424  1.00  0.00     0.281 C 
HETATM   22  O   UNL     1     -40.963  59.007 -51.684  1.00  0.00    -0.265 OA
HETATM   23  H   UNL     1     -43.136  59.551 -51.649  1.00  0.00     0.171 HD
BRANCH  21  24
HETATM   24  C   UNL     1     -41.399  56.799 -51.049  1.00  0.00     0.144 A 
HETATM   25  O   UNL     1     -41.015  55.844 -51.958  1.00  0.00    -0.304 OA
HETATM   26  C   UNL     1     -40.839  54.677 -51.259  1.00  0.00     0.086 A 
HETATM   27  C   UNL     1     -41.092  54.876 -49.920  1.00  0.00     0.041 A 
HETATM   28  C   UNL     1     -41.437  56.234 -49.784  1.00  0.00     0.046 A 
BRANCH  26  29
HETATM   29  C   UNL     1     -40.483  53.496 -52.025  1.00  0.00    -0.001 A 
HETATM   30  C   UNL     1     -40.044  52.333 -51.384  1.00  0.00     0.040 A 
HETATM   31  C   UNL     1     -39.720  51.192 -52.126  1.00  0.00     0.056 A 
HETATM   32 CL   UNL     1     -39.162  49.804 -51.258  1.00  0.00    -0.083 Cl
HETATM   33  C   UNL     1     -39.848  51.201 -53.518  1.00  0.00     0.055 A 
HETATM   34 CL   UNL     1     -39.464  49.829 -54.494  1.00  0.00    -0.083 Cl
HETATM   35  C   UNL     1     -40.304  52.354 -54.163  1.00  0.00     0.026 A 
HETATM   36  C   UNL     1     -40.620  53.493 -53.419  1.00  0.00     0.016 A 
ENDBRANCH  26  29
ENDBRANCH  21  24
ENDBRANCH   1  20
TORSDOF 7
ENDMDL
MODEL 5
REMARK VINA RESULT:      -8.4      1.391      2.307
REMARK  7 active torsions:
REMARK  status: ('A' for Active; 'I' for Inactive)
REMARK    1  A    between atoms: C_2  and  N_3 
REMARK    2  A    between atoms: N_7  and  C_8 
REMARK    3  A    between atoms: C_11  and  N_12 
REMARK    4  A    between atoms: N_12  and  C_13 
REMARK    5  A    between atoms: C_13  and  N_14 
REMARK       I    between atoms: N_14  and  C_15 
REMARK    6  A    between atoms: C_15  and  C_16 
REMARK    7  A    between atoms: C_18  and  C_19 
ROOT
HETATM    1  C   UNL     1     -44.292  58.571 -52.743  1.00  0.00     0.179 C 
HETATM    2  S   UNL     1     -45.461  59.491 -51.956  1.00  0.00    -0.040 SA
ENDROOT
BRANCH   1   3
HETATM    3  N   UNL     1     -44.507  57.451 -53.505  1.00  0.00    -0.333 N 
HETATM    4  H   UNL     1     -45.209  56.823 -53.123  1.00  0.00     0.168 HD
BRANCH   3   5
HETATM    5  C   UNL     1     -44.268  57.357 -54.895  1.00  0.00     0.034 A 
HETATM    6  C   UNL     1     -44.980  58.126 -55.808  1.00  0.00     0.032 A 
HETATM    7  C   UNL     1     -44.765  57.981 -57.187  1.00  0.00     0.031 A 
HETATM    8  C   UNL     1     -43.857  57.046 -57.712  1.00  0.00     0.030 A 
HETATM    9  C   UNL     1     -43.076  56.367 -56.758  1.00  0.00     0.031 A 
HETATM   10  C   UNL     1     -43.275  56.515 -55.373  1.00  0.00     0.032 A 
BRANCH   8  11
HETATM   11  N   UNL     1     -43.720  56.839 -59.097  1.00  0.00    -0.378 N 
HETATM   12  C   UNL     1     -42.389  57.078 -59.708  1.00  0.00     0.150 C 
HETATM   13  C   UNL     1     -42.160  58.594 -59.911  1.00  0.00     0.254 C 
HETATM   14  N   UNL     1     -43.278  59.198 -60.782  1.00  0.00    -0.068 N 
HETATM   15  H   UNL     1     -43.209  58.759 -61.709  1.00  0.00     0.280 HD
HETATM   16  C   UNL     1     -44.672  58.835 -60.229  1.00  0.00     0.254 C 
HETATM   17  C   UNL     1     -44.796  57.310 -59.998  1.00  0.00     0.150 C 
BRANCH  14  18
HETATM   18  C   UNL     1     -43.151  60.694 -60.957  1.00  0.00     0.230 C 
HETATM   19  C   UNL     1     -41.707  61.095 -61.195  1.00  0.00     0.034 C 
ENDBRANCH  14  18
ENDBRANCH   8  11
ENDBRANCH   3   5
ENDBRANCH   1   3
BRANCH   1  20
HETATM   20  N   UNL     1     -42.991  59.004 -52.581  1.00  0.00    -0.298 N 
HETATM   21  C   UNL     1     -41.700  58.479 -52.505  1.00  0.00     0.281 C 
HETATM   22  O   UNL     1     -40.806  59.213 -52.938  1.00  0.00    -0.265 OA
HETATM   23  H   UNL     1     -42.912  59.975 -52.866  1.00  0.00     0.171 HD
BRANCH  21  24
HETATM   24  C   UNL     1     -41.401  57.175 -51.956  1.00  0.00     0.144 A 
HETATM   25  O   UNL     1     -40.975  56.116 -52.719  1.00  0.00    -0.304 OA
HETATM   26  C   UNL     1     -40.923  55.024 -51.891  1.00  0.00     0.086 A 
HETATM   27  C   UNL     1     -41.296  55.373 -50.612  1.00  0.00     0.041 A 
HETATM   28  C   UNL     1     -41.590  56.749 -50.651  1.00  0.00     0.046 A 
BRANCH  26  29
HETATM   29  C   UNL     1     -40.549  53.757 -52.492  1.00  0.00    -0.001 A 
HETATM   30  C   UNL     1     -40.132  52.684 -51.698  1.00  0.00     0.040 A 
HETATM   31  C   UNL     1     -39.790  51.458 -52.281  1.00  0.00     0.056 A 
HETATM   32 CL   UNL     1     -39.261  50.191 -51.231  1.00  0.00    -0.083 Cl
HETATM   33  C   UNL     1     -39.880  51.292 -53.667  1.00  0.00     0.055 A 
HETATM   34 CL   UNL     1     -39.472  49.809 -54.451  1.00  0.00    -0.083 Cl
HETATM   35  C   UNL     1     -40.314  52.354 -54.464  1.00  0.00     0.026 A 
HETATM   36  C   UNL     1     -40.648  53.578 -53.878  1.00  0.00     0.016 A 
ENDBRANCH  26  29
ENDBRANCH  21  24
ENDBRANCH   1  20
TORSDOF 7
ENDMDL
MODEL 6
REMARK VINA RESULT:      -8.3      1.787      2.291
REMARK  7 active torsions:
REMARK  status: ('A' for Active; 'I' for Inactive)
REMARK    1  A    between atoms: C_2  and  N_3 
REMARK    2  A    between atoms: N_7  and  C_8 
REMARK    3  A    between atoms: C_11  and  N_12 
REMARK    4  A    between atoms: N_12  and  C_13 
REMARK    5  A    between atoms: C_13  and  N_14 
REMARK       I    between atoms: N_14  and  C_15 
REMARK    6  A    between atoms: C_15  and  C_16 
REMARK    7  A    between atoms: C_18  and  C_19 
ROOT
HETATM    1  C   UNL     1     -42.958  60.477 -53.393  1.00  0.00     0.179 C 
HETATM    2  S   UNL     1     -44.639  60.569 -53.413  1.00  0.00    -0.040 SA
ENDROOT
BRANCH   1   3
HETATM    3  N   UNL     1     -42.115  60.659 -54.459  1.00  0.00    -0.333 N 
HETATM    4  H   UNL     1     -41.237  61.112 -54.216  1.00  0.00     0.168 HD
BRANCH   3   5
HETATM    5  C   UNL     1     -42.115  59.877 -55.637  1.00  0.00     0.034 A 
HETATM    6  C   UNL     1     -41.929  60.449 -56.890  1.00  0.00     0.032 A 
HETATM    7  C   UNL     1     -41.984  59.663 -58.050  1.00  0.00     0.031 A 
HETATM    8  C   UNL     1     -42.254  58.285 -58.012  1.00  0.00     0.030 A 
HETATM    9  C   UNL     1     -42.325  57.722 -56.724  1.00  0.00     0.031 A 
HETATM   10  C   UNL     1     -42.258  58.500 -55.554  1.00  0.00     0.032 A 
BRANCH   8  11
HETATM   11  N   UNL     1     -42.404  57.524 -59.187  1.00  0.00    -0.378 N 
HETATM   12  C   UNL     1     -42.982  58.190 -60.380  1.00  0.00     0.150 C 
HETATM   13  C   UNL     1     -44.520  58.285 -60.245  1.00  0.00     0.254 C 
HETATM   14  N   UNL     1     -45.133  56.885 -60.050  1.00  0.00    -0.068 N 
HETATM   15  H   UNL     1     -44.941  56.349 -60.906  1.00  0.00     0.280 HD
HETATM   16  C   UNL     1     -44.439  56.129 -58.896  1.00  0.00     0.254 C 
HETATM   17  C   UNL     1     -42.902  56.134 -59.077  1.00  0.00     0.150 C 
BRANCH  14  18
HETATM   18  C   UNL     1     -46.629  56.916 -59.837  1.00  0.00     0.230 C 
HETATM   19  C   UNL     1     -47.366  56.424 -61.069  1.00  0.00     0.034 C 
ENDBRANCH  14  18
ENDBRANCH   8  11
ENDBRANCH   3   5
ENDBRANCH   1   3
BRANCH   1  20
HETATM   20  N   UNL     1     -42.398  60.175 -52.168  1.00  0.00    -0.298 N 
HETATM   21  C   UNL     1     -41.832  59.088 -51.501  1.00  0.00     0.281 C 
HETATM   22  O   UNL     1     -40.953  59.372 -50.681  1.00  0.00    -0.265 OA
HETATM   23  H   UNL     1     -42.050  61.021 -51.729  1.00  0.00     0.171 HD
BRANCH  21  24
HETATM   24  C   UNL     1     -42.231  57.717 -51.727  1.00  0.00     0.144 A 
HETATM   25  O   UNL     1     -41.346  56.716 -52.046  1.00  0.00    -0.304 OA
HETATM   26  C   UNL     1     -42.090  55.596 -52.315  1.00  0.00     0.086 A 
HETATM   27  C   UNL     1     -43.433  55.864 -52.162  1.00  0.00     0.041 A 
HETATM   28  C   UNL     1     -43.522  57.215 -51.774  1.00  0.00     0.046 A 
BRANCH  26  29
HETATM   29  C   UNL     1     -41.369  54.410 -52.736  1.00  0.00    -0.001 A 
HETATM   30  C   UNL     1     -40.964  53.450 -51.803  1.00  0.00     0.040 A 
HETATM   31  C   UNL     1     -40.285  52.298 -52.217  1.00  0.00     0.056 A 
HETATM   32 CL   UNL     1     -39.797  51.174 -50.997  1.00  0.00    -0.083 Cl
HETATM   33  C   UNL     1     -40.020  52.090 -53.574  1.00  0.00     0.055 A 
HETATM   34 CL   UNL     1     -39.186  50.693 -54.153  1.00  0.00    -0.083 Cl
HETATM   35  C   UNL     1     -40.439  53.036 -54.514  1.00  0.00     0.026 A 
HETATM   36  C   UNL     1     -41.110  54.187 -54.095  1.00  0.00     0.016 A 
ENDBRANCH  26  29
ENDBRANCH  21  24
ENDBRANCH   1  20
TORSDOF 7
ENDMDL
MODEL 7
REMARK VINA RESULT:      -8.1      2.123      2.885
REMARK  7 active torsions:
REMARK  status: ('A' for Active; 'I' for Inactive)
REMARK    1  A    between atoms: C_2  and  N_3 
REMARK    2  A    between atoms: N_7  and  C_8 
REMARK    3  A    between atoms: C_11  and  N_12 
REMARK    4  A    between atoms: N_12  and  C_13 
REMARK    5  A    between atoms: C_13  and  N_14 
REMARK       I    between atoms: N_14  and  C_15 
REMARK    6  A    between atoms: C_15  and  C_16 
REMARK    7  A    between atoms: C_18  and  C_19 
ROOT
HETATM    1  C   UNL     1     -42.901  60.148 -51.684  1.00  0.00     0.179 C 
HETATM    2  S   UNL     1     -41.694  59.918 -50.535  1.00  0.00    -0.040 SA
ENDROOT
BRANCH   1   3
HETATM    3  N   UNL     1     -42.806  60.888 -52.834  1.00  0.00    -0.333 N 
HETATM    4  H   UNL     1     -42.320  61.774 -52.714  1.00  0.00     0.168 HD
BRANCH   3   5
HETATM    5  C   UNL     1     -42.835  60.359 -54.145  1.00  0.00     0.034 A 
HETATM    6  C   UNL     1     -41.943  59.374 -54.551  1.00  0.00     0.032 A 
HETATM    7  C   UNL     1     -41.955  58.899 -55.871  1.00  0.00     0.031 A 
HETATM    8  C   UNL     1     -42.832  59.405 -56.845  1.00  0.00     0.030 A 
HETATM    9  C   UNL     1     -43.793  60.317 -56.370  1.00  0.00     0.031 A 
HETATM   10  C   UNL     1     -43.798  60.791 -55.045  1.00  0.00     0.032 A 
BRANCH   8  11
HETATM   11  N   UNL     1     -42.770  58.992 -58.189  1.00  0.00    -0.378 N 
HETATM   12  C   UNL     1     -43.566  59.747 -59.187  1.00  0.00     0.150 C 
HETATM   13  C   UNL     1     -45.050  59.315 -59.122  1.00  0.00     0.254 C 
HETATM   14  N   UNL     1     -45.182  57.798 -59.352  1.00  0.00    -0.068 N 
HETATM   15  H   UNL     1     -44.858  57.608 -60.309  1.00  0.00     0.280 HD
HETATM   16  C   UNL     1     -44.249  57.009 -58.410  1.00  0.00     0.254 C 
HETATM   17  C   UNL     1     -42.799  57.543 -58.491  1.00  0.00     0.150 C 
BRANCH  14  18
HETATM   18  C   UNL     1     -46.604  57.300 -59.228  1.00  0.00     0.230 C 
HETATM   19  C   UNL     1     -46.883  56.191 -60.225  1.00  0.00     0.034 C 
ENDBRANCH  14  18
ENDBRANCH   8  11
ENDBRANCH   3   5
ENDBRANCH   1   3
BRANCH   1  20
HETATM   20  N   UNL     1     -44.103  59.524 -51.412  1.00  0.00    -0.298 N 
HETATM   21  C   UNL     1     -44.679  58.256 -51.484  1.00  0.00     0.281 C 
HETATM   22  O   UNL     1     -45.534  58.015 -50.626  1.00  0.00    -0.265 OA
HETATM   23  H   UNL     1     -44.621  60.060 -50.723  1.00  0.00     0.171 HD
BRANCH  21  24
HETATM   24  C   UNL     1     -44.324  57.275 -52.486  1.00  0.00     0.144 A 
HETATM   25  O   UNL     1     -43.423  56.263 -52.264  1.00  0.00    -0.304 OA
HETATM   26  C   UNL     1     -43.241  55.621 -53.462  1.00  0.00     0.086 A 
HETATM   27  C   UNL     1     -44.020  56.200 -54.440  1.00  0.00     0.041 A 
HETATM   28  C   UNL     1     -44.722  57.248 -53.813  1.00  0.00     0.046 A 
BRANCH  26  29
HETATM   29  C   UNL     1     -42.276  54.538 -53.492  1.00  0.00    -0.001 A 
HETATM   30  C   UNL     1     -41.563  54.183 -52.342  1.00  0.00     0.040 A 
HETATM   31  C   UNL     1     -40.647  53.125 -52.371  1.00  0.00     0.056 A 
HETATM   32 CL   UNL     1     -39.789  52.767 -50.913  1.00  0.00    -0.083 Cl
HETATM   33  C   UNL     1     -40.451  52.401 -53.552  1.00  0.00     0.055 A 
HETATM   34 CL   UNL     1     -39.336  51.086 -53.658  1.00  0.00    -0.083 Cl
HETATM   35  C   UNL     1     -41.174  52.738 -54.699  1.00  0.00     0.026 A 
HETATM   36  C   UNL     1     -42.082  53.799 -54.666  1.00  0.00     0.016 A 
ENDBRANCH  26  29
ENDBRANCH  21  24
ENDBRANCH   1  20
TORSDOF 7
ENDMDL
MODEL 8
REMARK VINA RESULT:      -8.1      1.833      2.832
REMARK  7 active torsions:
REMARK  status: ('A' for Active; 'I' for Inactive)
REMARK    1  A    between atoms: C_2  and  N_3 
REMARK    2  A    between atoms: N_7  and  C_8 
REMARK    3  A    between atoms: C_11  and  N_12 
REMARK    4  A    between atoms: N_12  and  C_13 
REMARK    5  A    between atoms: C_13  and  N_14 
REMARK       I    between atoms: N_14  and  C_15 
REMARK    6  A    between atoms: C_15  and  C_16 
REMARK    7  A    between atoms: C_18  and  C_19 
ROOT
HETATM    1  C   UNL     1     -43.222  59.713 -52.767  1.00  0.00     0.179 C 
HETATM    2  S   UNL     1     -44.187  59.157 -51.505  1.00  0.00    -0.040 SA
ENDROOT
BRANCH   1   3
HETATM    3  N   UNL     1     -43.647  60.357 -53.901  1.00  0.00    -0.333 N 
HETATM    4  H   UNL     1     -43.379  61.337 -53.941  1.00  0.00     0.168 HD
BRANCH   3   5
HETATM    5  C   UNL     1     -43.921  59.728 -55.137  1.00  0.00     0.034 A 
HETATM    6  C   UNL     1     -44.924  58.774 -55.261  1.00  0.00     0.032 A 
HETATM    7  C   UNL     1     -45.146  58.124 -56.484  1.00  0.00     0.031 A 
HETATM    8  C   UNL     1     -44.361  58.375 -57.622  1.00  0.00     0.030 A 
HETATM    9  C   UNL     1     -43.432  59.424 -57.490  1.00  0.00     0.031 A 
HETATM   10  C   UNL     1     -43.211  60.090 -56.271  1.00  0.00     0.032 A 
BRANCH   8  11
HETATM   11  N   UNL     1     -44.528  57.648 -58.816  1.00  0.00    -0.378 N 
HETATM   12  C   UNL     1     -43.806  58.118 -60.024  1.00  0.00     0.150 C 
HETATM   13  C   UNL     1     -44.546  59.322 -60.653  1.00  0.00     0.254 C 
HETATM   14  N   UNL     1     -45.999  58.943 -60.996  1.00  0.00    -0.068 N 
HETATM   15  H   UNL     1     -45.958  58.209 -61.715  1.00  0.00     0.280 HD
HETATM   16  C   UNL     1     -46.716  58.322 -59.779  1.00  0.00     0.254 C 
HETATM   17  C   UNL     1     -45.882  57.168 -59.174  1.00  0.00     0.150 C 
BRANCH  14  18
HETATM   18  C   UNL     1     -46.799  60.101 -61.548  1.00  0.00     0.230 C 
HETATM   19  C   UNL     1     -48.140  60.220 -60.848  1.00  0.00     0.034 C 
ENDBRANCH  14  18
ENDBRANCH   8  11
ENDBRANCH   3   5
ENDBRANCH   1   3
BRANCH   1  20
HETATM   20  N   UNL     1     -41.869  59.474 -52.626  1.00  0.00    -0.298 N 
HETATM   21  C   UNL     1     -40.887  58.618 -53.126  1.00  0.00     0.281 C 
HETATM   22  O   UNL     1     -39.751  59.100 -53.190  1.00  0.00    -0.265 OA
HETATM   23  H   UNL     1     -41.406  60.307 -52.280  1.00  0.00     0.171 HD
BRANCH  21  24
HETATM   24  C   UNL     1     -41.149  57.257 -53.538  1.00  0.00     0.144 A 
HETATM   25  O   UNL     1     -40.723  56.160 -52.831  1.00  0.00    -0.304 OA
HETATM   26  C   UNL     1     -41.033  55.056 -53.584  1.00  0.00     0.086 A 
HETATM   27  C   UNL     1     -41.660  55.432 -54.751  1.00  0.00     0.041 A 
HETATM   28  C   UNL     1     -41.745  56.837 -54.716  1.00  0.00     0.046 A 
BRANCH  26  29
HETATM   29  C   UNL     1     -40.624  53.765 -53.062  1.00  0.00    -0.001 A 
HETATM   30  C   UNL     1     -40.370  52.693 -53.924  1.00  0.00     0.040 A 
HETATM   31  C   UNL     1     -39.957  51.456 -53.417  1.00  0.00     0.056 A 
HETATM   32 CL   UNL     1     -39.688  50.176 -54.549  1.00  0.00    -0.083 Cl
HETATM   33  C   UNL     1     -39.780  51.286 -52.041  1.00  0.00     0.055 A 
HETATM   34 CL   UNL     1     -39.276  49.786 -51.349  1.00  0.00    -0.083 Cl
HETATM   35  C   UNL     1     -40.015  52.358 -51.176  1.00  0.00     0.026 A 
HETATM   36  C   UNL     1     -40.433  53.590 -51.686  1.00  0.00     0.016 A 
ENDBRANCH  26  29
ENDBRANCH  21  24
ENDBRANCH   1  20
TORSDOF 7
ENDMDL
MODEL 9
REMARK VINA RESULT:      -8.0      2.941      6.582
REMARK  7 active torsions:
REMARK  status: ('A' for Active; 'I' for Inactive)
REMARK    1  A    between atoms: C_2  and  N_3 
REMARK    2  A    between atoms: N_7  and  C_8 
REMARK    3  A    between atoms: C_11  and  N_12 
REMARK    4  A    between atoms: N_12  and  C_13 
REMARK    5  A    between atoms: C_13  and  N_14 
REMARK       I    between atoms: N_14  and  C_15 
REMARK    6  A    between atoms: C_15  and  C_16 
REMARK    7  A    between atoms: C_18  and  C_19 
ROOT
HETATM    1  C   UNL     1     -45.301  59.402 -58.253  1.00  0.00     0.179 C 
HETATM    2  S   UNL     1     -45.917  59.288 -59.815  1.00  0.00    -0.040 SA
ENDROOT
BRANCH   1   3
HETATM    3  N   UNL     1     -46.024  59.486 -57.091  1.00  0.00    -0.333 N 
HETATM    4  H   UNL     1     -47.019  59.310 -57.213  1.00  0.00     0.168 HD
BRANCH   3   5
HETATM    5  C   UNL     1     -45.503  59.278 -55.794  1.00  0.00     0.034 A 
HETATM    6  C   UNL     1     -45.322  58.000 -55.278  1.00  0.00     0.032 A 
HETATM    7  C   UNL     1     -44.852  57.816 -53.970  1.00  0.00     0.031 A 
HETATM    8  C   UNL     1     -44.572  58.894 -53.113  1.00  0.00     0.030 A 
HETATM    9  C   UNL     1     -44.659  60.168 -53.704  1.00  0.00     0.031 A 
HETATM   10  C   UNL     1     -45.117  60.363 -55.020  1.00  0.00     0.032 A 
BRANCH   8  11
HETATM   11  N   UNL     1     -44.195  58.699 -51.771  1.00  0.00    -0.378 N 
HETATM   12  C   UNL     1     -43.711  59.875 -51.006  1.00  0.00     0.150 C 
HETATM   13  C   UNL     1     -42.241  60.183 -51.375  1.00  0.00     0.254 C 
HETATM   14  N   UNL     1     -41.349  58.955 -51.113  1.00  0.00    -0.068 N 
HETATM   15  H   UNL     1     -41.371  58.776 -50.101  1.00  0.00     0.280 HD
HETATM   16  C   UNL     1     -41.923  57.694 -51.792  1.00  0.00     0.254 C 
HETATM   17  C   UNL     1     -43.411  57.493 -51.419  1.00  0.00     0.150 C 
BRANCH  14  18
HETATM   18  C   UNL     1     -39.910  59.169 -51.524  1.00  0.00     0.230 C 
HETATM   19  C   UNL     1     -39.059  59.584 -50.338  1.00  0.00     0.034 C 
ENDBRANCH  14  18
ENDBRANCH   8  11
ENDBRANCH   3   5
ENDBRANCH   1   3
BRANCH   1  20
HETATM   20  N   UNL     1     -43.923  59.421 -58.161  1.00  0.00    -0.298 N 
HETATM   21  C   UNL     1     -42.848  58.532 -58.176  1.00  0.00     0.281 C 
HETATM   22  O   UNL     1     -41.798  58.982 -58.646  1.00  0.00    -0.265 OA
HETATM   23  H   UNL     1     -43.572  60.335 -58.428  1.00  0.00     0.171 HD
BRANCH  21  24
HETATM   24  C   UNL     1     -42.926  57.177 -57.676  1.00  0.00     0.144 A 
HETATM   25  O   UNL     1     -42.399  56.787 -56.469  1.00  0.00    -0.304 OA
HETATM   26  C   UNL     1     -42.543  55.425 -56.394  1.00  0.00     0.086 A 
HETATM   27  C   UNL     1     -43.162  54.944 -57.526  1.00  0.00     0.041 A 
HETATM   28  C   UNL     1     -43.418  56.064 -58.340  1.00  0.00     0.046 A 
BRANCH  26  29
HETATM   29  C   UNL     1     -42.002  54.768 -55.218  1.00  0.00    -0.001 A 
HETATM   30  C   UNL     1     -42.770  54.633 -54.058  1.00  0.00     0.040 A 
HETATM   31  C   UNL     1     -42.250  53.981 -52.933  1.00  0.00     0.056 A 
HETATM   32 CL   UNL     1     -43.256  53.878 -51.530  1.00  0.00    -0.083 Cl
HETATM   33  C   UNL     1     -40.959  53.446 -52.968  1.00  0.00     0.055 A 
HETATM   34 CL   UNL     1     -40.255  52.633 -51.616  1.00  0.00    -0.083 Cl
HETATM   35  C   UNL     1     -40.193  53.562 -54.131  1.00  0.00     0.026 A 
HETATM   36  C   UNL     1     -40.714  54.218 -55.249  1.00  0.00     0.016 A 
ENDBRANCH  26  29
ENDBRANCH  21  24
ENDBRANCH   1  20
TORSDOF 7
ENDMDL
MODEL 10
REMARK VINA RESULT:      -7.8      2.277      3.485
REMARK  7 active torsions:
REMARK  status: ('A' for Active; 'I' for Inactive)
REMARK    1  A    between atoms: C_2  and  N_3 
REMARK    2  A    between atoms: N_7  and  C_8 
REMARK    3  A    between atoms: C_11  and  N_12 
REMARK    4  A    between atoms: N_12  and  C_13 
REMARK    5  A    between atoms: C_13  and  N_14 
REMARK       I    between atoms: N_14  and  C_15 
REMARK    6  A    between atoms: C_15  and  C_16 
REMARK    7  A    between atoms: C_18  and  C_19 
ROOT
HETATM    1  C   UNL     1     -42.754  60.176 -51.844  1.00  0.00     0.179 C 
HETATM    2  S   UNL     1     -41.553  60.016 -50.676  1.00  0.00    -0.040 SA
ENDROOT
BRANCH   1   3
HETATM    3  N   UNL     1     -42.642  60.816 -53.052  1.00  0.00    -0.333 N 
HETATM    4  H   UNL     1     -41.969  61.579 -53.052  1.00  0.00     0.168 HD
BRANCH   3   5
HETATM    5  C   UNL     1     -42.938  60.238 -54.307  1.00  0.00     0.034 A 
HETATM    6  C   UNL     1     -44.114  60.536 -54.986  1.00  0.00     0.032 A 
HETATM    7  C   UNL     1     -44.413  59.913 -56.206  1.00  0.00     0.031 A 
HETATM    8  C   UNL     1     -43.571  58.948 -56.783  1.00  0.00     0.030 A 
HETATM    9  C   UNL     1     -42.341  58.755 -56.127  1.00  0.00     0.031 A 
HETATM   10  C   UNL     1     -42.026  59.385 -54.910  1.00  0.00     0.032 A 
BRANCH   8  11
HETATM   11  N   UNL     1     -43.927  58.257 -57.957  1.00  0.00    -0.378 N 
HETATM   12  C   UNL     1     -42.884  57.442 -58.628  1.00  0.00     0.150 C 
HETATM   13  C   UNL     1     -41.942  58.353 -59.449  1.00  0.00     0.254 C 
HETATM   14  N   UNL     1     -42.743  59.171 -60.479  1.00  0.00    -0.068 N 
HETATM   15  H   UNL     1     -43.160  58.502 -61.139  1.00  0.00     0.280 HD
HETATM   16  C   UNL     1     -43.918  59.914 -59.808  1.00  0.00     0.254 C 
HETATM   17  C   UNL     1     -44.773  58.943 -58.959  1.00  0.00     0.150 C 
BRANCH  14  18
HETATM   18  C   UNL     1     -41.886  60.138 -61.265  1.00  0.00     0.230 C 
HETATM   19  C   UNL     1     -42.738  61.019 -62.160  1.00  0.00     0.034 C 
ENDBRANCH  14  18
ENDBRANCH   8  11
ENDBRANCH   3   5
ENDBRANCH   1   3
BRANCH   1  20
HETATM   20  N   UNL     1     -43.970  59.604 -51.524  1.00  0.00    -0.298 N 
HETATM   21  C   UNL     1     -44.579  58.349 -51.510  1.00  0.00     0.281 C 
HETATM   22  O   UNL     1     -45.434  58.188 -50.633  1.00  0.00    -0.265 OA
HETATM   23  H   UNL     1     -44.469  60.197 -50.869  1.00  0.00     0.171 HD
BRANCH  21  24
HETATM   24  C   UNL     1     -44.258  57.295 -52.446  1.00  0.00     0.144 A 
HETATM   25  O   UNL     1     -43.306  56.336 -52.205  1.00  0.00    -0.304 OA
HETATM   26  C   UNL     1     -43.183  55.597 -53.354  1.00  0.00     0.086 A 
HETATM   27  C   UNL     1     -44.049  56.063 -54.318  1.00  0.00     0.041 A 
HETATM   28  C   UNL     1     -44.745  57.140 -53.735  1.00  0.00     0.046 A 
BRANCH  26  29
HETATM   29  C   UNL     1     -42.183  54.546 -53.360  1.00  0.00    -0.001 A 
HETATM   30  C   UNL     1     -41.672  54.038 -52.161  1.00  0.00     0.040 A 
HETATM   31  C   UNL     1     -40.721  53.011 -52.172  1.00  0.00     0.056 A 
HETATM   32 CL   UNL     1     -40.122  52.457 -50.647  1.00  0.00    -0.083 Cl
HETATM   33  C   UNL     1     -40.286  52.472 -53.387  1.00  0.00     0.055 A 
HETATM   34 CL   UNL     1     -39.115  51.206 -53.473  1.00  0.00    -0.083 Cl
HETATM   35  C   UNL     1     -40.807  52.962 -54.587  1.00  0.00     0.026 A 
HETATM   36  C   UNL     1     -41.751  53.992 -54.571  1.00  0.00     0.016 A 
ENDBRANCH  26  29
ENDBRANCH  21  24
ENDBRANCH   1  20
TORSDOF 7
ENDMDL
