MODEL 1
REMARK VINA RESULT:      -9.0      0.000      0.000
REMARK  4 active torsions:
REMARK  status: ('A' for Active; 'I' for Inactive)
REMARK    1  A    between atoms: C_3  and  C_4 
REMARK    2  A    between atoms: C_4  and  N_5 
REMARK       I    between atoms: N_5  and  C_6 
REMARK       I    between atoms: C_6  and  N_7 
REMARK    3  A    between atoms: N_7  and  C_8 
REMARK    4  A    between atoms: C_17  and  C_18 
ROOT
HETATM    1  C   UNL     1     -45.737  58.724 -51.249  1.00  0.00     0.049 C 
HETATM    2  C   UNL     1     -44.233  58.716 -51.269  1.00  0.00    -0.053 A 
HETATM    3  C   UNL     1     -43.475  59.887 -51.064  1.00  0.00    -0.035 A 
HETATM    4  C   UNL     1     -42.070  59.798 -51.027  1.00  0.00     0.010 A 
HETATM    5  C   UNL     1     -41.420  58.586 -51.264  1.00  0.00     0.014 A 
HETATM    6  C   UNL     1     -42.170  57.450 -51.577  1.00  0.00    -0.004 A 
HETATM    7  C   UNL     1     -43.567  57.509 -51.544  1.00  0.00     0.021 A 
ENDROOT
BRANCH   3   8
HETATM    8  C   UNL     1     -44.116  61.242 -50.871  1.00  0.00     0.163 C 
BRANCH   8   9
HETATM    9  N   UNL     1     -43.987  61.710 -49.513  1.00  0.00    -0.339 N 
HETATM   10  C   UNL     1     -45.057  61.568 -48.669  1.00  0.00     0.316 C 
HETATM   11  N   UNL     1     -44.777  62.004 -47.402  1.00  0.00    -0.339 N 
HETATM   12  O   UNL     1     -46.143  61.128 -49.020  1.00  0.00    -0.247 OA
HETATM   13  H   UNL     1     -43.828  62.267 -47.190  1.00  0.00     0.164 HD
HETATM   14  H   UNL     1     -43.069  61.672 -49.100  1.00  0.00     0.164 HD
BRANCH  11  15
HETATM   15  C   UNL     1     -45.721  61.826 -46.305  1.00  0.00     0.086 C 
HETATM   16  C   UNL     1     -45.271  60.689 -45.377  1.00  0.00     0.025 C 
HETATM   17  C   UNL     1     -44.055  61.072 -44.534  1.00  0.00     0.002 C 
HETATM   18  C   UNL     1     -44.298  62.359 -43.753  1.00  0.00     0.000 C 
HETATM   19  C   UNL     1     -44.715  63.506 -44.667  1.00  0.00     0.002 C 
HETATM   20  C   UNL     1     -45.920  63.134 -45.530  1.00  0.00     0.025 C 
ENDBRANCH  11  15
ENDBRANCH   8   9
ENDBRANCH   3   8
BRANCH   6  21
HETATM   21  C   UNL     1     -41.520  56.149 -51.902  1.00  0.00     0.098 A 
HETATM   22  N   UNL     1     -41.291  55.915 -53.160  1.00  0.00    -0.169 NA
HETATM   23  N   UNL     1     -40.728  54.725 -53.534  1.00  0.00    -0.238 N 
HETATM   24  C   UNL     1     -40.489  54.538 -54.950  1.00  0.00     0.183 C 
HETATM   25  C   UNL     1     -40.443  53.681 -52.662  1.00  0.00     0.274 A 
HETATM   26  O   UNL     1     -40.009  52.587 -53.018  1.00  0.00    -0.266 OA
HETATM   27  C   UNL     1     -40.655  53.953 -51.230  1.00  0.00     0.046 A 
HETATM   28  C   UNL     1     -41.146  55.191 -50.830  1.00  0.00     0.011 A 
HETATM   29  C   UNL     1     -40.307  52.981 -50.278  1.00  0.00     0.018 A 
HETATM   30  C   UNL     1     -41.223  55.482 -49.460  1.00  0.00     0.015 A 
HETATM   31  C   UNL     1     -40.877  54.515 -48.510  1.00  0.00     0.001 A 
HETATM   32  C   UNL     1     -40.430  53.261 -48.919  1.00  0.00     0.001 A 
ENDBRANCH   6  21
TORSDOF 4
ENDMDL
MODEL 2
REMARK VINA RESULT:      -9.0      1.345      2.924
REMARK  4 active torsions:
REMARK  status: ('A' for Active; 'I' for Inactive)
REMARK    1  A    between atoms: C_3  and  C_4 
REMARK    2  A    between atoms: C_4  and  N_5 
REMARK       I    between atoms: N_5  and  C_6 
REMARK       I    between atoms: C_6  and  N_7 
REMARK    3  A    between atoms: N_7  and  C_8 
REMARK    4  A    between atoms: C_17  and  C_18 
ROOT
HETATM    1  C   UNL     1     -40.962  59.921 -51.024  1.00  0.00     0.049 C 
HETATM    2  C   UNL     1     -41.892  58.746 -51.158  1.00  0.00    -0.053 A 
HETATM    3  C   UNL     1     -43.294  58.899 -51.168  1.00  0.00    -0.035 A 
HETATM    4  C   UNL     1     -44.106  57.766 -51.366  1.00  0.00     0.010 A 
HETATM    5  C   UNL     1     -43.547  56.491 -51.478  1.00  0.00     0.014 A 
HETATM    6  C   UNL     1     -42.165  56.330 -51.357  1.00  0.00    -0.004 A 
HETATM    7  C   UNL     1     -41.342  57.455 -51.234  1.00  0.00     0.021 A 
ENDROOT
BRANCH   3   8
HETATM    8  C   UNL     1     -43.963  60.240 -50.982  1.00  0.00     0.163 C 
BRANCH   8   9
HETATM    9  N   UNL     1     -43.840  60.720 -49.627  1.00  0.00    -0.339 N 
HETATM   10  C   UNL     1     -44.964  60.767 -48.845  1.00  0.00     0.316 C 
HETATM   11  N   UNL     1     -44.691  61.190 -47.572  1.00  0.00    -0.339 N 
HETATM   12  O   UNL     1     -46.084  60.488 -49.252  1.00  0.00    -0.247 OA
HETATM   13  H   UNL     1     -43.726  61.310 -47.310  1.00  0.00     0.164 HD
HETATM   14  H   UNL     1     -42.963  60.554 -49.160  1.00  0.00     0.164 HD
BRANCH  11  15
HETATM   15  C   UNL     1     -45.711  61.187 -46.530  1.00  0.00     0.086 C 
HETATM   16  C   UNL     1     -45.192  60.498 -45.260  1.00  0.00     0.025 C 
HETATM   17  C   UNL     1     -44.154  61.341 -44.522  1.00  0.00     0.002 C 
HETATM   18  C   UNL     1     -44.682  62.738 -44.215  1.00  0.00     0.000 C 
HETATM   19  C   UNL     1     -45.171  63.448 -45.473  1.00  0.00     0.002 C 
HETATM   20  C   UNL     1     -46.199  62.610 -46.233  1.00  0.00     0.025 C 
ENDBRANCH  11  15
ENDBRANCH   8   9
ENDBRANCH   3   8
BRANCH   6  21
HETATM   21  C   UNL     1     -41.528  54.984 -51.404  1.00  0.00     0.098 A 
HETATM   22  N   UNL     1     -41.354  54.386 -50.263  1.00  0.00    -0.169 NA
HETATM   23  N   UNL     1     -40.742  53.162 -50.228  1.00  0.00    -0.238 N 
HETATM   24  C   UNL     1     -40.595  52.549 -48.925  1.00  0.00     0.183 C 
HETATM   25  C   UNL     1     -40.206  52.519 -51.337  1.00  0.00     0.274 A 
HETATM   26  O   UNL     1     -39.591  51.456 -51.284  1.00  0.00    -0.266 OA
HETATM   27  C   UNL     1     -40.438  53.165 -52.640  1.00  0.00     0.046 A 
HETATM   28  C   UNL     1     -41.134  54.368 -52.697  1.00  0.00     0.011 A 
HETATM   29  C   UNL     1     -40.005  52.534 -53.817  1.00  0.00     0.018 A 
HETATM   30  C   UNL     1     -41.459  54.907 -53.951  1.00  0.00     0.015 A 
HETATM   31  C   UNL     1     -41.029  54.279 -55.124  1.00  0.00     0.001 A 
HETATM   32  C   UNL     1     -40.292  53.100 -55.058  1.00  0.00     0.001 A 
ENDBRANCH   6  21
TORSDOF 4
ENDMDL
MODEL 3
REMARK VINA RESULT:      -8.9      5.552      8.618
REMARK  4 active torsions:
REMARK  status: ('A' for Active; 'I' for Inactive)
REMARK    1  A    between atoms: C_3  and  C_4 
REMARK    2  A    between atoms: C_4  and  N_5 
REMARK       I    between atoms: N_5  and  C_6 
REMARK       I    between atoms: C_6  and  N_7 
REMARK    3  A    between atoms: N_7  and  C_8 
REMARK    4  A    between atoms: C_17  and  C_18 
ROOT
HETATM    1  C   UNL     1     -41.472  58.621 -54.115  1.00  0.00     0.049 C 
HETATM    2  C   UNL     1     -42.147  57.283 -53.993  1.00  0.00    -0.053 A 
HETATM    3  C   UNL     1     -43.475  57.072 -54.421  1.00  0.00    -0.035 A 
HETATM    4  C   UNL     1     -44.024  55.778 -54.341  1.00  0.00     0.010 A 
HETATM    5  C   UNL     1     -43.301  54.724 -53.779  1.00  0.00     0.014 A 
HETATM    6  C   UNL     1     -42.029  54.960 -53.256  1.00  0.00    -0.004 A 
HETATM    7  C   UNL     1     -41.444  56.223 -53.396  1.00  0.00     0.021 A 
ENDROOT
BRANCH   3   8
HETATM    8  C   UNL     1     -44.333  58.186 -54.972  1.00  0.00     0.163 C 
BRANCH   8   9
HETATM    9  N   UNL     1     -45.109  57.755 -56.109  1.00  0.00    -0.339 N 
HETATM   10  C   UNL     1     -44.718  58.159 -57.359  1.00  0.00     0.316 C 
HETATM   11  N   UNL     1     -45.510  57.634 -58.344  1.00  0.00    -0.339 N 
HETATM   12  O   UNL     1     -43.784  58.923 -57.562  1.00  0.00    -0.247 OA
HETATM   13  H   UNL     1     -46.198  56.945 -58.081  1.00  0.00     0.164 HD
HETATM   14  H   UNL     1     -45.567  56.860 -56.039  1.00  0.00     0.164 HD
BRANCH  11  15
HETATM   15  C   UNL     1     -45.199  57.819 -59.756  1.00  0.00     0.086 C 
HETATM   16  C   UNL     1     -43.914  57.068 -60.134  1.00  0.00     0.025 C 
HETATM   17  C   UNL     1     -44.112  55.554 -60.170  1.00  0.00     0.002 C 
HETATM   18  C   UNL     1     -45.270  55.162 -61.083  1.00  0.00     0.000 C 
HETATM   19  C   UNL     1     -46.562  55.876 -60.697  1.00  0.00     0.002 C 
HETATM   20  C   UNL     1     -46.376  57.392 -60.640  1.00  0.00     0.025 C 
ENDBRANCH  11  15
ENDBRANCH   8   9
ENDBRANCH   3   8
BRANCH   6  21
HETATM   21  C   UNL     1     -41.246  53.882 -52.588  1.00  0.00     0.098 A 
HETATM   22  N   UNL     1     -40.768  52.951 -53.360  1.00  0.00    -0.169 NA
HETATM   23  N   UNL     1     -40.068  51.912 -52.810  1.00  0.00    -0.238 N 
HETATM   24  C   UNL     1     -39.553  50.919 -53.731  1.00  0.00     0.183 C 
HETATM   25  C   UNL     1     -39.886  51.721 -51.446  1.00  0.00     0.274 A 
HETATM   26  O   UNL     1     -39.322  50.743 -50.958  1.00  0.00    -0.266 OA
HETATM   27  C   UNL     1     -40.383  52.792 -50.566  1.00  0.00     0.046 A 
HETATM   28  C   UNL     1     -41.021  53.897 -51.120  1.00  0.00     0.011 A 
HETATM   29  C   UNL     1     -40.159  52.716 -49.182  1.00  0.00     0.018 A 
HETATM   30  C   UNL     1     -41.375  54.967 -50.285  1.00  0.00     0.015 A 
HETATM   31  C   UNL     1     -41.152  54.894 -48.907  1.00  0.00     0.001 A 
HETATM   32  C   UNL     1     -40.555  53.764 -48.353  1.00  0.00     0.001 A 
ENDBRANCH   6  21
TORSDOF 4
ENDMDL
MODEL 4
REMARK VINA RESULT:      -8.5      4.966      8.140
REMARK  4 active torsions:
REMARK  status: ('A' for Active; 'I' for Inactive)
REMARK    1  A    between atoms: C_3  and  C_4 
REMARK    2  A    between atoms: C_4  and  N_5 
REMARK       I    between atoms: N_5  and  C_6 
REMARK       I    between atoms: C_6  and  N_7 
REMARK    3  A    between atoms: N_7  and  C_8 
REMARK    4  A    between atoms: C_17  and  C_18 
ROOT
HETATM    1  C   UNL     1     -44.829  59.016 -53.159  1.00  0.00     0.049 C 
HETATM    2  C   UNL     1     -43.368  58.656 -53.165  1.00  0.00    -0.053 A 
HETATM    3  C   UNL     1     -42.397  59.476 -53.775  1.00  0.00    -0.035 A 
HETATM    4  C   UNL     1     -41.039  59.115 -53.685  1.00  0.00     0.010 A 
HETATM    5  C   UNL     1     -40.651  57.925 -53.068  1.00  0.00     0.014 A 
HETATM    6  C   UNL     1     -41.624  57.060 -52.562  1.00  0.00    -0.004 A 
HETATM    7  C   UNL     1     -42.970  57.442 -52.580  1.00  0.00     0.021 A 
ENDROOT
BRANCH   3   8
HETATM    8  C   UNL     1     -42.758  60.741 -54.519  1.00  0.00     0.163 C 
BRANCH   8   9
HETATM    9  N   UNL     1     -43.369  60.459 -55.795  1.00  0.00    -0.339 N 
HETATM   10  C   UNL     1     -42.558  60.309 -56.889  1.00  0.00     0.316 C 
HETATM   11  N   UNL     1     -43.265  59.993 -58.018  1.00  0.00    -0.339 N 
HETATM   12  O   UNL     1     -41.345  60.468 -56.860  1.00  0.00    -0.247 OA
HETATM   13  H   UNL     1     -44.249  59.797 -57.920  1.00  0.00     0.164 HD
HETATM   14  H   UNL     1     -44.228  59.933 -55.786  1.00  0.00     0.164 HD
BRANCH  11  15
HETATM   15  C   UNL     1     -42.598  59.654 -59.269  1.00  0.00     0.086 C 
HETATM   16  C   UNL     1     -41.929  58.275 -59.175  1.00  0.00     0.025 C 
HETATM   17  C   UNL     1     -42.945  57.134 -59.175  1.00  0.00     0.002 C 
HETATM   18  C   UNL     1     -43.878  57.214 -60.378  1.00  0.00     0.000 C 
HETATM   19  C   UNL     1     -44.575  58.568 -60.465  1.00  0.00     0.002 C 
HETATM   20  C   UNL     1     -43.573  59.723 -60.450  1.00  0.00     0.025 C 
ENDBRANCH  11  15
ENDBRANCH   8   9
ENDBRANCH   3   8
BRANCH   6  21
HETATM   21  C   UNL     1     -41.264  55.749 -51.953  1.00  0.00     0.098 A 
HETATM   22  N   UNL     1     -41.285  55.688 -50.655  1.00  0.00    -0.169 NA
HETATM   23  N   UNL     1     -40.932  54.525 -50.027  1.00  0.00    -0.238 N 
HETATM   24  C   UNL     1     -40.994  54.526 -48.579  1.00  0.00     0.183 C 
HETATM   25  C   UNL     1     -40.463  53.391 -50.678  1.00  0.00     0.274 A 
HETATM   26  O   UNL     1     -40.075  52.377 -50.100  1.00  0.00    -0.266 OA
HETATM   27  C   UNL     1     -40.478  53.432 -52.150  1.00  0.00     0.046 A 
HETATM   28  C   UNL     1     -40.917  54.580 -52.802  1.00  0.00     0.011 A 
HETATM   29  C   UNL     1     -40.102  52.294 -52.882  1.00  0.00     0.018 A 
HETATM   30  C   UNL     1     -41.046  54.561 -54.198  1.00  0.00     0.015 A 
HETATM   31  C   UNL     1     -40.674  53.429 -54.929  1.00  0.00     0.001 A 
HETATM   32  C   UNL     1     -40.191  52.300 -54.273  1.00  0.00     0.001 A 
ENDBRANCH   6  21
TORSDOF 4
ENDMDL
MODEL 5
REMARK VINA RESULT:      -8.4      4.209      7.124
REMARK  4 active torsions:
REMARK  status: ('A' for Active; 'I' for Inactive)
REMARK    1  A    between atoms: C_3  and  C_4 
REMARK    2  A    between atoms: C_4  and  N_5 
REMARK       I    between atoms: N_5  and  C_6 
REMARK       I    between atoms: C_6  and  N_7 
REMARK    3  A    between atoms: N_7  and  C_8 
REMARK    4  A    between atoms: C_17  and  C_18 
ROOT
HETATM    1  C   UNL     1     -45.058  58.769 -51.663  1.00  0.00     0.049 C 
HETATM    2  C   UNL     1     -43.582  58.501 -51.784  1.00  0.00    -0.053 A 
HETATM    3  C   UNL     1     -42.671  59.500 -52.188  1.00  0.00    -0.035 A 
HETATM    4  C   UNL     1     -41.295  59.202 -52.214  1.00  0.00     0.010 A 
HETATM    5  C   UNL     1     -40.832  57.918 -51.920  1.00  0.00     0.014 A 
HETATM    6  C   UNL     1     -41.745  56.904 -51.629  1.00  0.00    -0.004 A 
HETATM    7  C   UNL     1     -43.108  57.204 -51.527  1.00  0.00     0.021 A 
ENDROOT
BRANCH   3   8
HETATM    8  C   UNL     1     -43.115  60.887 -52.587  1.00  0.00     0.163 C 
BRANCH   8   9
HETATM    9  N   UNL     1     -42.432  61.352 -53.769  1.00  0.00    -0.339 N 
HETATM   10  C   UNL     1     -42.999  61.105 -54.991  1.00  0.00     0.316 C 
HETATM   11  N   UNL     1     -42.274  61.647 -56.017  1.00  0.00    -0.339 N 
HETATM   12  O   UNL     1     -44.022  60.450 -55.143  1.00  0.00    -0.247 OA
HETATM   13  H   UNL     1     -41.495  62.243 -55.783  1.00  0.00     0.164 HD
HETATM   14  H   UNL     1     -41.881  62.192 -53.680  1.00  0.00     0.164 HD
BRANCH  11  15
HETATM   15  C   UNL     1     -42.758  61.626 -57.393  1.00  0.00     0.086 C 
HETATM   16  C   UNL     1     -43.193  63.029 -57.839  1.00  0.00     0.025 C 
HETATM   17  C   UNL     1     -42.005  63.964 -58.061  1.00  0.00     0.002 C 
HETATM   18  C   UNL     1     -40.992  63.364 -59.031  1.00  0.00     0.000 C 
HETATM   19  C   UNL     1     -40.527  61.983 -58.581  1.00  0.00     0.002 C 
HETATM   20  C   UNL     1     -41.704  61.039 -58.339  1.00  0.00     0.025 C 
ENDBRANCH  11  15
ENDBRANCH   8   9
ENDBRANCH   3   8
BRANCH   6  21
HETATM   21  C   UNL     1     -41.304  55.504 -51.373  1.00  0.00     0.098 A 
HETATM   22  N   UNL     1     -41.189  55.152 -50.126  1.00  0.00    -0.169 NA
HETATM   23  N   UNL     1     -40.755  53.892 -49.817  1.00  0.00    -0.238 N 
HETATM   24  C   UNL     1     -40.666  53.565 -48.409  1.00  0.00     0.183 C 
HETATM   25  C   UNL     1     -40.339  52.952 -50.752  1.00  0.00     0.274 A 
HETATM   26  O   UNL     1     -39.878  51.850 -50.460  1.00  0.00    -0.266 OA
HETATM   27  C   UNL     1     -40.507  53.323 -52.168  1.00  0.00     0.046 A 
HETATM   28  C   UNL     1     -41.029  54.570 -52.495  1.00  0.00     0.011 A 
HETATM   29  C   UNL     1     -40.193  52.394 -53.172  1.00  0.00     0.018 A 
HETATM   30  C   UNL     1     -41.303  54.861 -53.839  1.00  0.00     0.015 A 
HETATM   31  C   UNL     1     -40.991  53.937 -54.841  1.00  0.00     0.001 A 
HETATM   32  C   UNL     1     -40.425  52.708 -54.510  1.00  0.00     0.001 A 
ENDBRANCH   6  21
TORSDOF 4
ENDMDL
MODEL 6
REMARK VINA RESULT:      -8.4      6.340      9.978
REMARK  4 active torsions:
REMARK  status: ('A' for Active; 'I' for Inactive)
REMARK    1  A    between atoms: C_3  and  C_4 
REMARK    2  A    between atoms: C_4  and  N_5 
REMARK       I    between atoms: N_5  and  C_6 
REMARK       I    between atoms: C_6  and  N_7 
REMARK    3  A    between atoms: N_7  and  C_8 
REMARK    4  A    between atoms: C_17  and  C_18 
ROOT
HETATM    1  C   UNL     1     -44.015  54.785 -59.358  1.00  0.00     0.049 C 
HETATM    2  C   UNL     1     -43.362  55.776 -58.432  1.00  0.00    -0.053 A 
HETATM    3  C   UNL     1     -42.769  56.965 -58.906  1.00  0.00    -0.035 A 
HETATM    4  C   UNL     1     -42.237  57.882 -57.980  1.00  0.00     0.010 A 
HETATM    5  C   UNL     1     -42.222  57.598 -56.613  1.00  0.00     0.014 A 
HETATM    6  C   UNL     1     -42.711  56.372 -56.158  1.00  0.00    -0.004 A 
HETATM    7  C   UNL     1     -43.309  55.484 -57.059  1.00  0.00     0.021 A 
ENDROOT
BRANCH   3   8
HETATM    8  C   UNL     1     -42.689  57.299 -60.377  1.00  0.00     0.163 C 
BRANCH   8   9
HETATM    9  N   UNL     1     -41.800  58.406 -60.631  1.00  0.00    -0.339 N 
HETATM   10  C   UNL     1     -42.344  59.644 -60.851  1.00  0.00     0.316 C 
HETATM   11  N   UNL     1     -41.387  60.606 -61.024  1.00  0.00    -0.339 N 
HETATM   12  O   UNL     1     -43.548  59.853 -60.913  1.00  0.00    -0.247 OA
HETATM   13  H   UNL     1     -40.424  60.350 -60.867  1.00  0.00     0.164 HD
HETATM   14  H   UNL     1     -40.893  58.375 -60.193  1.00  0.00     0.164 HD
BRANCH  11  15
HETATM   15  C   UNL     1     -41.732  62.018 -61.138  1.00  0.00     0.086 C 
HETATM   16  C   UNL     1     -41.369  62.774 -59.851  1.00  0.00     0.025 C 
HETATM   17  C   UNL     1     -39.861  62.950 -59.685  1.00  0.00     0.002 C 
HETATM   18  C   UNL     1     -39.236  63.612 -60.909  1.00  0.00     0.000 C 
HETATM   19  C   UNL     1     -39.561  62.852 -62.191  1.00  0.00     0.002 C 
HETATM   20  C   UNL     1     -41.066  62.652 -62.365  1.00  0.00     0.025 C 
ENDBRANCH  11  15
ENDBRANCH   8   9
ENDBRANCH   3   8
BRANCH   6  21
HETATM   21  C   UNL     1     -42.657  55.996 -54.717  1.00  0.00     0.098 A 
HETATM   22  N   UNL     1     -43.416  56.678 -53.912  1.00  0.00    -0.169 NA
HETATM   23  N   UNL     1     -43.392  56.410 -52.570  1.00  0.00    -0.238 N 
HETATM   24  C   UNL     1     -44.274  57.200 -51.736  1.00  0.00     0.183 C 
HETATM   25  C   UNL     1     -42.541  55.493 -51.967  1.00  0.00     0.274 A 
HETATM   26  O   UNL     1     -42.472  55.314 -50.753  1.00  0.00    -0.266 OA
HETATM   27  C   UNL     1     -41.710  54.682 -52.873  1.00  0.00     0.046 A 
HETATM   28  C   UNL     1     -41.789  54.886 -54.247  1.00  0.00     0.011 A 
HETATM   29  C   UNL     1     -40.888  53.673 -52.347  1.00  0.00     0.018 A 
HETATM   30  C   UNL     1     -41.090  54.023 -55.104  1.00  0.00     0.015 A 
HETATM   31  C   UNL     1     -40.271  53.017 -54.582  1.00  0.00     0.001 A 
HETATM   32  C   UNL     1     -40.160  52.849 -53.204  1.00  0.00     0.001 A 
ENDBRANCH   6  21
TORSDOF 4
ENDMDL
MODEL 7
REMARK VINA RESULT:      -8.3      1.829      3.305
REMARK  4 active torsions:
REMARK  status: ('A' for Active; 'I' for Inactive)
REMARK    1  A    between atoms: C_3  and  C_4 
REMARK    2  A    between atoms: C_4  and  N_5 
REMARK       I    between atoms: N_5  and  C_6 
REMARK       I    between atoms: C_6  and  N_7 
REMARK    3  A    between atoms: N_7  and  C_8 
REMARK    4  A    between atoms: C_17  and  C_18 
ROOT
HETATM    1  C   UNL     1     -39.704  59.964 -50.474  1.00  0.00     0.049 C 
HETATM    2  C   UNL     1     -40.818  58.995 -50.762  1.00  0.00    -0.053 A 
HETATM    3  C   UNL     1     -42.153  59.418 -50.931  1.00  0.00    -0.035 A 
HETATM    4  C   UNL     1     -43.136  58.468 -51.267  1.00  0.00     0.010 A 
HETATM    5  C   UNL     1     -42.822  57.111 -51.361  1.00  0.00     0.014 A 
HETATM    6  C   UNL     1     -41.523  56.682 -51.085  1.00  0.00    -0.004 A 
HETATM    7  C   UNL     1     -40.521  57.623 -50.823  1.00  0.00     0.021 A 
ENDROOT
BRANCH   3   8
HETATM    8  C   UNL     1     -42.570  60.861 -50.774  1.00  0.00     0.163 C 
BRANCH   8   9
HETATM    9  N   UNL     1     -43.515  61.034 -49.698  1.00  0.00    -0.339 N 
HETATM   10  C   UNL     1     -44.065  62.274 -49.504  1.00  0.00     0.316 C 
HETATM   11  N   UNL     1     -44.981  62.280 -48.487  1.00  0.00    -0.339 N 
HETATM   12  O   UNL     1     -43.749  63.264 -50.151  1.00  0.00    -0.247 OA
HETATM   13  H   UNL     1     -45.236  61.397 -48.074  1.00  0.00     0.164 HD
HETATM   14  H   UNL     1     -44.081  60.238 -49.452  1.00  0.00     0.164 HD
BRANCH  11  15
HETATM   15  C   UNL     1     -45.790  63.457 -48.192  1.00  0.00     0.086 C 
HETATM   16  C   UNL     1     -47.180  63.050 -47.683  1.00  0.00     0.025 C 
HETATM   17  C   UNL     1     -47.137  62.477 -46.267  1.00  0.00     0.002 C 
HETATM   18  C   UNL     1     -46.451  63.433 -45.296  1.00  0.00     0.000 C 
HETATM   19  C   UNL     1     -45.055  63.820 -45.774  1.00  0.00     0.002 C 
HETATM   20  C   UNL     1     -45.078  64.380 -47.196  1.00  0.00     0.025 C 
ENDBRANCH  11  15
ENDBRANCH   8   9
ENDBRANCH   3   8
BRANCH   6  21
HETATM   21  C   UNL     1     -41.154  55.238 -51.108  1.00  0.00     0.098 A 
HETATM   22  N   UNL     1     -41.105  54.635 -49.958  1.00  0.00    -0.169 NA
HETATM   23  N   UNL     1     -40.740  53.317 -49.901  1.00  0.00    -0.238 N 
HETATM   24  C   UNL     1     -40.721  52.706 -48.588  1.00  0.00     0.183 C 
HETATM   25  C   UNL     1     -40.328  52.568 -50.996  1.00  0.00     0.274 A 
HETATM   26  O   UNL     1     -39.928  51.407 -50.923  1.00  0.00    -0.266 OA
HETATM   27  C   UNL     1     -40.424  53.227 -52.310  1.00  0.00     0.046 A 
HETATM   28  C   UNL     1     -40.877  54.540 -52.389  1.00  0.00     0.011 A 
HETATM   29  C   UNL     1     -40.111  52.507 -53.474  1.00  0.00     0.018 A 
HETATM   30  C   UNL     1     -41.084  55.112 -53.653  1.00  0.00     0.015 A 
HETATM   31  C   UNL     1     -40.773  54.396 -54.814  1.00  0.00     0.001 A 
HETATM   32  C   UNL     1     -40.276  53.099 -54.725  1.00  0.00     0.001 A 
ENDBRANCH   6  21
TORSDOF 4
ENDMDL
MODEL 8
REMARK VINA RESULT:      -8.3      5.553      8.894
REMARK  4 active torsions:
REMARK  status: ('A' for Active; 'I' for Inactive)
REMARK    1  A    between atoms: C_3  and  C_4 
REMARK    2  A    between atoms: C_4  and  N_5 
REMARK       I    between atoms: N_5  and  C_6 
REMARK       I    between atoms: C_6  and  N_7 
REMARK    3  A    between atoms: N_7  and  C_8 
REMARK    4  A    between atoms: C_17  and  C_18 
ROOT
HETATM    1  C   UNL     1     -43.512  54.805 -57.571  1.00  0.00     0.049 C 
HETATM    2  C   UNL     1     -42.867  55.627 -56.489  1.00  0.00    -0.053 A 
HETATM    3  C   UNL     1     -42.632  57.010 -56.639  1.00  0.00    -0.035 A 
HETATM    4  C   UNL     1     -42.089  57.734 -55.561  1.00  0.00     0.010 A 
HETATM    5  C   UNL     1     -41.711  57.092 -54.381  1.00  0.00     0.014 A 
HETATM    6  C   UNL     1     -41.842  55.706 -54.276  1.00  0.00    -0.004 A 
HETATM    7  C   UNL     1     -42.450  54.985 -55.311  1.00  0.00     0.021 A 
ENDROOT
BRANCH   3   8
HETATM    8  C   UNL     1     -42.952  57.751 -57.916  1.00  0.00     0.163 C 
BRANCH   8   9
HETATM    9  N   UNL     1     -41.985  58.785 -58.195  1.00  0.00    -0.339 N 
HETATM   10  C   UNL     1     -42.440  60.014 -58.596  1.00  0.00     0.316 C 
HETATM   11  N   UNL     1     -41.420  60.909 -58.773  1.00  0.00    -0.339 N 
HETATM   12  O   UNL     1     -43.620  60.267 -58.796  1.00  0.00    -0.247 OA
HETATM   13  H   UNL     1     -40.492  60.630 -58.497  1.00  0.00     0.164 HD
HETATM   14  H   UNL     1     -41.126  58.762 -57.671  1.00  0.00     0.164 HD
BRANCH  11  15
HETATM   15  C   UNL     1     -41.678  62.314 -59.067  1.00  0.00     0.086 C 
HETATM   16  C   UNL     1     -40.517  63.194 -58.581  1.00  0.00     0.025 C 
HETATM   17  C   UNL     1     -39.266  63.036 -59.443  1.00  0.00     0.002 C 
HETATM   18  C   UNL     1     -39.566  63.283 -60.918  1.00  0.00     0.000 C 
HETATM   19  C   UNL     1     -40.696  62.391 -61.422  1.00  0.00     0.002 C 
HETATM   20  C   UNL     1     -41.951  62.524 -60.560  1.00  0.00     0.025 C 
ENDBRANCH  11  15
ENDBRANCH   8   9
ENDBRANCH   3   8
BRANCH   6  21
HETATM   21  C   UNL     1     -41.394  54.967 -53.062  1.00  0.00     0.098 A 
HETATM   22  N   UNL     1     -41.565  55.569 -51.923  1.00  0.00    -0.169 NA
HETATM   23  N   UNL     1     -41.145  54.963 -50.770  1.00  0.00    -0.238 N 
HETATM   24  C   UNL     1     -41.380  55.685 -49.536  1.00  0.00     0.183 C 
HETATM   25  C   UNL     1     -40.459  53.756 -50.720  1.00  0.00     0.274 A 
HETATM   26  O   UNL     1     -40.018  53.258 -49.686  1.00  0.00    -0.266 OA
HETATM   27  C   UNL     1     -40.301  53.043 -52.000  1.00  0.00     0.046 A 
HETATM   28  C   UNL     1     -40.801  53.609 -53.168  1.00  0.00     0.011 A 
HETATM   29  C   UNL     1     -39.698  51.776 -52.021  1.00  0.00     0.018 A 
HETATM   30  C   UNL     1     -40.757  52.865 -54.356  1.00  0.00     0.015 A 
HETATM   31  C   UNL     1     -40.157  51.602 -54.380  1.00  0.00     0.001 A 
HETATM   32  C   UNL     1     -39.617  51.062 -53.215  1.00  0.00     0.001 A 
ENDBRANCH   6  21
TORSDOF 4
ENDMDL
MODEL 9
REMARK VINA RESULT:      -8.0      3.829      6.007
REMARK  4 active torsions:
REMARK  status: ('A' for Active; 'I' for Inactive)
REMARK    1  A    between atoms: C_3  and  C_4 
REMARK    2  A    between atoms: C_4  and  N_5 
REMARK       I    between atoms: N_5  and  C_6 
REMARK       I    between atoms: C_6  and  N_7 
REMARK    3  A    between atoms: N_7  and  C_8 
REMARK    4  A    between atoms: C_17  and  C_18 
ROOT
HETATM    1  C   UNL     1     -42.819  60.841 -52.678  1.00  0.00     0.049 C 
HETATM    2  C   UNL     1     -43.517  59.639 -52.102  1.00  0.00    -0.053 A 
HETATM    3  C   UNL     1     -44.850  59.696 -51.644  1.00  0.00    -0.035 A 
HETATM    4  C   UNL     1     -45.466  58.518 -51.180  1.00  0.00     0.010 A 
HETATM    5  C   UNL     1     -44.756  57.319 -51.100  1.00  0.00     0.014 A 
HETATM    6  C   UNL     1     -43.406  57.291 -51.450  1.00  0.00    -0.004 A 
HETATM    7  C   UNL     1     -42.802  58.436 -51.982  1.00  0.00     0.021 A 
ENDROOT
BRANCH   3   8
HETATM    8  C   UNL     1     -45.650  60.977 -51.638  1.00  0.00     0.163 C 
BRANCH   8   9
HETATM    9  N   UNL     1     -46.851  60.866 -52.430  1.00  0.00    -0.339 N 
HETATM   10  C   UNL     1     -47.703  61.937 -52.478  1.00  0.00     0.316 C 
HETATM   11  N   UNL     1     -48.770  61.712 -53.306  1.00  0.00    -0.339 N 
HETATM   12  O   UNL     1     -47.539  62.963 -51.832  1.00  0.00    -0.247 OA
HETATM   13  H   UNL     1     -48.769  60.871 -53.862  1.00  0.00     0.164 HD
HETATM   14  H   UNL     1     -46.809  60.276 -53.246  1.00  0.00     0.164 HD
BRANCH  11  15
HETATM   15  C   UNL     1     -49.733  62.762 -53.616  1.00  0.00     0.086 C 
HETATM   16  C   UNL     1     -50.148  62.702 -55.093  1.00  0.00     0.025 C 
HETATM   17  C   UNL     1     -51.051  61.507 -55.397  1.00  0.00     0.002 C 
HETATM   18  C   UNL     1     -52.269  61.476 -54.479  1.00  0.00     0.000 C 
HETATM   19  C   UNL     1     -51.869  61.502 -53.007  1.00  0.00     0.002 C 
HETATM   20  C   UNL     1     -50.952  62.682 -52.690  1.00  0.00     0.025 C 
ENDBRANCH  11  15
ENDBRANCH   8   9
ENDBRANCH   3   8
BRANCH   6  21
HETATM   21  C   UNL     1     -42.589  56.051 -51.320  1.00  0.00     0.098 A 
HETATM   22  N   UNL     1     -42.086  55.811 -50.146  1.00  0.00    -0.169 NA
HETATM   23  N   UNL     1     -41.296  54.708 -49.962  1.00  0.00    -0.238 N 
HETATM   24  C   UNL     1     -40.782  54.495 -48.625  1.00  0.00     0.183 C 
HETATM   25  C   UNL     1     -40.912  53.839 -50.975  1.00  0.00     0.274 A 
HETATM   26  O   UNL     1     -40.140  52.895 -50.815  1.00  0.00    -0.266 OA
HETATM   27  C   UNL     1     -41.513  54.075 -52.299  1.00  0.00     0.046 A 
HETATM   28  C   UNL     1     -42.385  55.143 -52.478  1.00  0.00     0.011 A 
HETATM   29  C   UNL     1     -41.244  53.188 -53.353  1.00  0.00     0.018 A 
HETATM   30  C   UNL     1     -43.048  55.282 -53.706  1.00  0.00     0.015 A 
HETATM   31  C   UNL     1     -42.782  54.399 -54.758  1.00  0.00     0.001 A 
HETATM   32  C   UNL     1     -41.872  53.360 -54.586  1.00  0.00     0.001 A 
ENDBRANCH   6  21
TORSDOF 4
ENDMDL
MODEL 10
REMARK VINA RESULT:      -8.0      3.378      5.012
REMARK  4 active torsions:
REMARK  status: ('A' for Active; 'I' for Inactive)
REMARK    1  A    between atoms: C_3  and  C_4 
REMARK    2  A    between atoms: C_4  and  N_5 
REMARK       I    between atoms: N_5  and  C_6 
REMARK       I    between atoms: C_6  and  N_7 
REMARK    3  A    between atoms: N_7  and  C_8 
REMARK    4  A    between atoms: C_17  and  C_18 
ROOT
HETATM    1  C   UNL     1     -42.720  60.875 -52.300  1.00  0.00     0.049 C 
HETATM    2  C   UNL     1     -43.294  59.523 -51.975  1.00  0.00    -0.053 A 
HETATM    3  C   UNL     1     -44.568  59.372 -51.389  1.00  0.00    -0.035 A 
HETATM    4  C   UNL     1     -45.074  58.076 -51.174  1.00  0.00     0.010 A 
HETATM    5  C   UNL     1     -44.306  56.947 -51.463  1.00  0.00     0.014 A 
HETATM    6  C   UNL     1     -43.004  57.101 -51.940  1.00  0.00    -0.004 A 
HETATM    7  C   UNL     1     -42.516  58.381 -52.228  1.00  0.00     0.021 A 
ENDROOT
BRANCH   3   8
HETATM    8  C   UNL     1     -45.419  60.553 -50.987  1.00  0.00     0.163 C 
BRANCH   8   9
HETATM    9  N   UNL     1     -46.651  60.608 -51.735  1.00  0.00    -0.339 N 
HETATM   10  C   UNL     1     -47.151  61.836 -52.082  1.00  0.00     0.316 C 
HETATM   11  N   UNL     1     -48.292  61.736 -52.833  1.00  0.00    -0.339 N 
HETATM   12  O   UNL     1     -46.647  62.895 -51.734  1.00  0.00    -0.247 OA
HETATM   13  H   UNL     1     -48.577  60.820 -53.141  1.00  0.00     0.164 HD
HETATM   14  H   UNL     1     -46.842  59.842 -52.361  1.00  0.00     0.164 HD
BRANCH  11  15
HETATM   15  C   UNL     1     -48.922  62.909 -53.427  1.00  0.00     0.086 C 
HETATM   16  C   UNL     1     -49.747  62.519 -54.662  1.00  0.00     0.025 C 
HETATM   17  C   UNL     1     -51.026  61.770 -54.294  1.00  0.00     0.002 C 
HETATM   18  C   UNL     1     -51.868  62.555 -53.293  1.00  0.00     0.000 C 
HETATM   19  C   UNL     1     -51.069  62.921 -52.046  1.00  0.00     0.002 C 
HETATM   20  C   UNL     1     -49.776  63.657 -52.397  1.00  0.00     0.025 C 
ENDBRANCH  11  15
ENDBRANCH   8   9
ENDBRANCH   3   8
BRANCH   6  21
HETATM   21  C   UNL     1     -42.122  55.928 -52.202  1.00  0.00     0.098 A 
HETATM   22  N   UNL     1     -41.928  55.618 -53.449  1.00  0.00    -0.169 NA
HETATM   23  N   UNL     1     -41.157  54.531 -53.763  1.00  0.00    -0.238 N 
HETATM   24  C   UNL     1     -40.971  54.254 -55.172  1.00  0.00     0.183 C 
HETATM   25  C   UNL     1     -40.612  53.658 -52.829  1.00  0.00     0.274 A 
HETATM   26  O   UNL     1     -39.987  52.641 -53.123  1.00  0.00    -0.266 OA
HETATM   27  C   UNL     1     -40.788  54.025 -51.414  1.00  0.00     0.046 A 
HETATM   28  C   UNL     1     -41.497  55.176 -51.084  1.00  0.00     0.011 A 
HETATM   29  C   UNL     1     -40.192  53.242 -50.413  1.00  0.00     0.018 A 
HETATM   30  C   UNL     1     -41.548  55.583 -49.743  1.00  0.00     0.015 A 
HETATM   31  C   UNL     1     -40.954  54.805 -48.744  1.00  0.00     0.001 A 
HETATM   32  C   UNL     1     -40.286  53.629 -49.077  1.00  0.00     0.001 A 
ENDBRANCH   6  21
TORSDOF 4
ENDMDL
