MODEL 1
REMARK VINA RESULT:      -8.4      0.000      0.000
REMARK  5 active torsions:
REMARK  status: ('A' for Active; 'I' for Inactive)
REMARK    1  A    between atoms: O_2  and  C_3 
REMARK    2  A    between atoms: C_4  and  O_5 
REMARK    3  A    between atoms: C_10  and  C_11 
REMARK    4  A    between atoms: C_13  and  O_14 
REMARK    5  A    between atoms: O_14  and  C_15 
ROOT
HETATM    1  C   UNL     1     -42.045  59.553 -54.604  1.00  0.00     0.102 A 
HETATM    2  C   UNL     1     -42.680  60.156 -55.703  1.00  0.00     0.103 A 
HETATM    3  C   UNL     1     -43.045  59.381 -56.808  1.00  0.00     0.069 A 
HETATM    4  C   UNL     1     -42.846  57.998 -56.788  1.00  0.00     0.044 A 
HETATM    5  C   UNL     1     -42.278  57.369 -55.677  1.00  0.00    -0.020 A 
HETATM    6  C   UNL     1     -42.033  55.866 -55.721  1.00  0.00     0.063 C 
HETATM    7  C   UNL     1     -43.007  55.161 -56.668  1.00  0.00     0.117 C 
HETATM    8  C   UNL     1     -43.147  55.886 -57.981  1.00  0.00     0.223 C 
HETATM    9  O   UNL     1     -43.349  55.298 -59.041  1.00  0.00    -0.273 OA
HETATM   10  N   UNL     1     -43.175  57.251 -57.921  1.00  0.00    -0.327 N 
HETATM   11  C   UNL     1     -41.844  58.168 -54.603  1.00  0.00     0.049 A 
HETATM   12  H   UNL     1     -43.421  57.719 -58.785  1.00  0.00     0.169 HD
ENDROOT
BRANCH   6  13
HETATM   13  C   UNL     1     -42.080  55.184 -54.357  1.00  0.00    -0.046 A 
HETATM   14  C   UNL     1     -40.928  54.604 -53.795  1.00  0.00     0.045 A 
HETATM   15  C   UNL     1     -41.005  53.901 -52.590  1.00  0.00     0.076 A 
HETATM   16  C   UNL     1     -42.206  53.845 -51.888  1.00  0.00     0.037 A 
HETATM   17  C   UNL     1     -43.348  54.445 -52.417  1.00  0.00     0.003 A 
HETATM   18  C   UNL     1     -43.289  55.102 -53.648  1.00  0.00     0.008 A 
BRANCH  15  19
HETATM   19  O   UNL     1     -39.912  53.290 -52.022  1.00  0.00    -0.311 OA
BRANCH  19  20
HETATM   20  C   UNL     1     -39.783  51.923 -52.146  1.00  0.00     0.076 A 
HETATM   21  C   UNL     1     -39.725  51.244 -53.367  1.00  0.00     0.037 A 
HETATM   22  C   UNL     1     -39.607  49.852 -53.389  1.00  0.00     0.003 A 
HETATM   23  C   UNL     1     -39.578  49.135 -52.193  1.00  0.00     0.000 A 
HETATM   24  C   UNL     1     -39.670  49.807 -50.975  1.00  0.00     0.003 A 
HETATM   25  C   UNL     1     -39.774  51.199 -50.953  1.00  0.00     0.037 A 
ENDBRANCH  19  20
ENDBRANCH  15  19
ENDBRANCH   6  13
BRANCH   1  26
HETATM   26  O   UNL     1     -41.685  60.388 -53.576  1.00  0.00    -0.353 OA
HETATM   27  C   UNL     1     -41.935  59.936 -52.252  1.00  0.00     0.210 C 
ENDBRANCH   1  26
BRANCH   2  28
HETATM   28  O   UNL     1     -42.851  61.518 -55.649  1.00  0.00    -0.353 OA
HETATM   29  C   UNL     1     -44.197  61.973 -55.597  1.00  0.00     0.210 C 
ENDBRANCH   2  28
TORSDOF 5
ENDMDL
MODEL 2
REMARK VINA RESULT:      -8.1      2.814      8.456
REMARK  5 active torsions:
REMARK  status: ('A' for Active; 'I' for Inactive)
REMARK    1  A    between atoms: O_2  and  C_3 
REMARK    2  A    between atoms: C_4  and  O_5 
REMARK    3  A    between atoms: C_10  and  C_11 
REMARK    4  A    between atoms: C_13  and  O_14 
REMARK    5  A    between atoms: O_14  and  C_15 
ROOT
HETATM    1  C   UNL     1     -40.584  53.704 -53.831  1.00  0.00     0.102 A 
HETATM    2  C   UNL     1     -40.293  52.411 -53.365  1.00  0.00     0.103 A 
HETATM    3  C   UNL     1     -40.199  52.170 -51.991  1.00  0.00     0.069 A 
HETATM    4  C   UNL     1     -40.470  53.196 -51.082  1.00  0.00     0.044 A 
HETATM    5  C   UNL     1     -40.829  54.473 -51.524  1.00  0.00    -0.020 A 
HETATM    6  C   UNL     1     -41.064  55.574 -50.498  1.00  0.00     0.063 C 
HETATM    7  C   UNL     1     -41.511  55.005 -49.149  1.00  0.00     0.117 C 
HETATM    8  C   UNL     1     -40.680  53.821 -48.728  1.00  0.00     0.223 C 
HETATM    9  O   UNL     1     -40.429  53.577 -47.550  1.00  0.00    -0.273 OA
HETATM   10  N   UNL     1     -40.326  52.946 -49.716  1.00  0.00    -0.327 N 
HETATM   11  C   UNL     1     -40.844  54.724 -52.909  1.00  0.00     0.049 A 
HETATM   12  H   UNL     1     -39.901  52.082 -49.399  1.00  0.00     0.169 HD
ENDROOT
BRANCH   6  13
HETATM   13  C   UNL     1     -42.057  56.644 -50.943  1.00  0.00    -0.046 A 
HETATM   14  C   UNL     1     -41.617  57.914 -51.360  1.00  0.00     0.045 A 
HETATM   15  C   UNL     1     -42.541  58.914 -51.675  1.00  0.00     0.076 A 
HETATM   16  C   UNL     1     -43.905  58.635 -51.666  1.00  0.00     0.037 A 
HETATM   17  C   UNL     1     -44.352  57.370 -51.289  1.00  0.00     0.003 A 
HETATM   18  C   UNL     1     -43.436  56.383 -50.919  1.00  0.00     0.008 A 
BRANCH  15  19
HETATM   19  O   UNL     1     -42.157  60.179 -52.054  1.00  0.00    -0.311 OA
BRANCH  19  20
HETATM   20  C   UNL     1     -42.435  60.594 -53.340  1.00  0.00     0.076 A 
HETATM   21  C   UNL     1     -43.250  61.684 -53.658  1.00  0.00     0.037 A 
HETATM   22  C   UNL     1     -43.483  62.018 -54.994  1.00  0.00     0.003 A 
HETATM   23  C   UNL     1     -42.929  61.244 -56.014  1.00  0.00     0.000 A 
HETATM   24  C   UNL     1     -42.144  60.136 -55.699  1.00  0.00     0.003 A 
HETATM   25  C   UNL     1     -41.899  59.811 -54.363  1.00  0.00     0.037 A 
ENDBRANCH  19  20
ENDBRANCH  15  19
ENDBRANCH   6  13
BRANCH   1  26
HETATM   26  O   UNL     1     -40.620  53.866 -55.194  1.00  0.00    -0.353 OA
HETATM   27  C   UNL     1     -41.605  54.746 -55.719  1.00  0.00     0.210 C 
ENDBRANCH   1  26
BRANCH   2  28
HETATM   28  O   UNL     1     -40.048  51.450 -54.316  1.00  0.00    -0.353 OA
HETATM   29  C   UNL     1     -39.810  50.138 -53.824  1.00  0.00     0.210 C 
ENDBRANCH   2  28
TORSDOF 5
ENDMDL
MODEL 3
REMARK VINA RESULT:      -8.1      2.016      4.039
REMARK  5 active torsions:
REMARK  status: ('A' for Active; 'I' for Inactive)
REMARK    1  A    between atoms: O_2  and  C_3 
REMARK    2  A    between atoms: C_4  and  O_5 
REMARK    3  A    between atoms: C_10  and  C_11 
REMARK    4  A    between atoms: C_13  and  O_14 
REMARK    5  A    between atoms: O_14  and  C_15 
ROOT
HETATM    1  C   UNL     1     -42.875  57.411 -55.818  1.00  0.00     0.102 A 
HETATM    2  C   UNL     1     -42.411  58.657 -56.274  1.00  0.00     0.103 A 
HETATM    3  C   UNL     1     -42.285  59.724 -55.380  1.00  0.00     0.069 A 
HETATM    4  C   UNL     1     -42.547  59.530 -54.021  1.00  0.00     0.044 A 
HETATM    5  C   UNL     1     -42.943  58.281 -53.535  1.00  0.00    -0.020 A 
HETATM    6  C   UNL     1     -43.268  58.131 -52.054  1.00  0.00     0.063 C 
HETATM    7  C   UNL     1     -42.512  59.152 -51.202  1.00  0.00     0.117 C 
HETATM    8  C   UNL     1     -42.566  60.537 -51.793  1.00  0.00     0.223 C 
HETATM    9  O   UNL     1     -42.583  61.550 -51.099  1.00  0.00    -0.273 OA
HETATM   10  N   UNL     1     -42.459  60.621 -53.153  1.00  0.00    -0.327 N 
HETATM   11  C   UNL     1     -43.142  57.235 -54.456  1.00  0.00     0.049 A 
HETATM   12  H   UNL     1     -42.345  61.557 -53.523  1.00  0.00     0.169 HD
ENDROOT
BRANCH   6  13
HETATM   13  C   UNL     1     -43.018  56.732 -51.497  1.00  0.00    -0.046 A 
HETATM   14  C   UNL     1     -41.750  56.130 -51.591  1.00  0.00     0.045 A 
HETATM   15  C   UNL     1     -41.558  54.814 -51.162  1.00  0.00     0.076 A 
HETATM   16  C   UNL     1     -42.599  54.117 -50.553  1.00  0.00     0.037 A 
HETATM   17  C   UNL     1     -43.851  54.715 -50.422  1.00  0.00     0.003 A 
HETATM   18  C   UNL     1     -44.064  56.011 -50.900  1.00  0.00     0.008 A 
BRANCH  15  19
HETATM   19  O   UNL     1     -40.345  54.174 -51.265  1.00  0.00    -0.311 OA
BRANCH  19  20
HETATM   20  C   UNL     1     -40.202  53.185 -52.216  1.00  0.00     0.076 A 
HETATM   21  C   UNL     1     -40.563  53.323 -53.559  1.00  0.00     0.037 A 
HETATM   22  C   UNL     1     -40.390  52.257 -54.444  1.00  0.00     0.003 A 
HETATM   23  C   UNL     1     -39.887  51.041 -53.982  1.00  0.00     0.000 A 
HETATM   24  C   UNL     1     -39.558  50.890 -52.635  1.00  0.00     0.003 A 
HETATM   25  C   UNL     1     -39.717  51.960 -51.754  1.00  0.00     0.037 A 
ENDBRANCH  19  20
ENDBRANCH  15  19
ENDBRANCH   6  13
BRANCH   1  26
HETATM   26  O   UNL     1     -43.008  56.427 -56.766  1.00  0.00    -0.353 OA
HETATM   27  C   UNL     1     -42.693  55.098 -56.372  1.00  0.00     0.210 C 
ENDBRANCH   1  26
BRANCH   2  28
HETATM   28  O   UNL     1     -42.165  58.770 -57.621  1.00  0.00    -0.353 OA
HETATM   29  C   UNL     1     -41.710  60.043 -58.063  1.00  0.00     0.210 C 
ENDBRANCH   2  28
TORSDOF 5
ENDMDL
MODEL 4
REMARK VINA RESULT:      -8.0      2.745      7.117
REMARK  5 active torsions:
REMARK  status: ('A' for Active; 'I' for Inactive)
REMARK    1  A    between atoms: O_2  and  C_3 
REMARK    2  A    between atoms: C_4  and  O_5 
REMARK    3  A    between atoms: C_10  and  C_11 
REMARK    4  A    between atoms: C_13  and  O_14 
REMARK    5  A    between atoms: O_14  and  C_15 
ROOT
HETATM    1  C   UNL     1     -42.345  54.597 -50.619  1.00  0.00     0.102 A 
HETATM    2  C   UNL     1     -41.416  53.871 -49.854  1.00  0.00     0.103 A 
HETATM    3  C   UNL     1     -40.582  52.935 -50.473  1.00  0.00     0.069 A 
HETATM    4  C   UNL     1     -40.621  52.777 -51.861  1.00  0.00     0.044 A 
HETATM    5  C   UNL     1     -41.489  53.537 -52.649  1.00  0.00    -0.020 A 
HETATM    6  C   UNL     1     -41.533  53.293 -54.151  1.00  0.00     0.063 C 
HETATM    7  C   UNL     1     -40.205  52.740 -54.674  1.00  0.00     0.117 C 
HETATM    8  C   UNL     1     -39.665  51.637 -53.802  1.00  0.00     0.223 C 
HETATM    9  O   UNL     1     -39.020  50.695 -54.254  1.00  0.00    -0.273 OA
HETATM   10  N   UNL     1     -39.812  51.804 -52.453  1.00  0.00    -0.327 N 
HETATM   11  C   UNL     1     -42.377  54.420 -52.006  1.00  0.00     0.049 A 
HETATM   12  H   UNL     1     -39.315  51.136 -51.876  1.00  0.00     0.169 HD
ENDROOT
BRANCH   6  13
HETATM   13  C   UNL     1     -41.923  54.518 -54.974  1.00  0.00    -0.046 A 
HETATM   14  C   UNL     1     -41.449  55.799 -54.637  1.00  0.00     0.045 A 
HETATM   15  C   UNL     1     -41.888  56.924 -55.341  1.00  0.00     0.076 A 
HETATM   16  C   UNL     1     -42.729  56.777 -56.441  1.00  0.00     0.037 A 
HETATM   17  C   UNL     1     -43.179  55.509 -56.807  1.00  0.00     0.003 A 
HETATM   18  C   UNL     1     -42.787  54.387 -56.072  1.00  0.00     0.008 A 
BRANCH  15  19
HETATM   19  O   UNL     1     -41.478  58.198 -55.025  1.00  0.00    -0.311 OA
BRANCH  19  20
HETATM   20  C   UNL     1     -41.535  58.600 -53.708  1.00  0.00     0.076 A 
HETATM   21  C   UNL     1     -42.712  58.950 -53.040  1.00  0.00     0.037 A 
HETATM   22  C   UNL     1     -42.665  59.359 -51.705  1.00  0.00     0.003 A 
HETATM   23  C   UNL     1     -41.439  59.450 -51.046  1.00  0.00     0.000 A 
HETATM   24  C   UNL     1     -40.260  59.135 -51.720  1.00  0.00     0.003 A 
HETATM   25  C   UNL     1     -40.309  58.712 -53.050  1.00  0.00     0.037 A 
ENDBRANCH  19  20
ENDBRANCH  15  19
ENDBRANCH   6  13
BRANCH   1  26
HETATM   26  O   UNL     1     -43.152  55.468 -49.930  1.00  0.00    -0.353 OA
HETATM   27  C   UNL     1     -44.141  56.165 -50.675  1.00  0.00     0.210 C 
ENDBRANCH   1  26
BRANCH   2  28
HETATM   28  O   UNL     1     -41.429  54.086 -48.497  1.00  0.00    -0.353 OA
HETATM   29  C   UNL     1     -40.171  53.985 -47.841  1.00  0.00     0.210 C 
ENDBRANCH   2  28
TORSDOF 5
ENDMDL
MODEL 5
REMARK VINA RESULT:      -7.9      1.633      2.213
REMARK  5 active torsions:
REMARK  status: ('A' for Active; 'I' for Inactive)
REMARK    1  A    between atoms: O_2  and  C_3 
REMARK    2  A    between atoms: C_4  and  O_5 
REMARK    3  A    between atoms: C_10  and  C_11 
REMARK    4  A    between atoms: C_13  and  O_14 
REMARK    5  A    between atoms: O_14  and  C_15 
ROOT
HETATM    1  C   UNL     1     -42.314  59.945 -51.970  1.00  0.00     0.102 A 
HETATM    2  C   UNL     1     -43.064  60.836 -52.757  1.00  0.00     0.103 A 
HETATM    3  C   UNL     1     -43.528  60.434 -54.013  1.00  0.00     0.069 A 
HETATM    4  C   UNL     1     -43.313  59.126 -54.452  1.00  0.00     0.044 A 
HETATM    5  C   UNL     1     -42.629  58.203 -53.656  1.00  0.00    -0.020 A 
HETATM    6  C   UNL     1     -42.371  56.803 -54.198  1.00  0.00     0.063 C 
HETATM    7  C   UNL     1     -43.426  56.392 -55.227  1.00  0.00     0.117 C 
HETATM    8  C   UNL     1     -43.707  57.487 -56.223  1.00  0.00     0.223 C 
HETATM    9  O   UNL     1     -44.006  57.254 -57.391  1.00  0.00    -0.273 OA
HETATM   10  N   UNL     1     -43.745  58.760 -55.729  1.00  0.00    -0.327 N 
HETATM   11  C   UNL     1     -42.098  58.640 -52.427  1.00  0.00     0.049 A 
HETATM   12  H   UNL     1     -44.082  59.466 -56.373  1.00  0.00     0.169 HD
ENDROOT
BRANCH   6  13
HETATM   13  C   UNL     1     -42.273  55.723 -53.123  1.00  0.00    -0.046 A 
HETATM   14  C   UNL     1     -41.071  55.026 -52.902  1.00  0.00     0.045 A 
HETATM   15  C   UNL     1     -41.020  53.977 -51.981  1.00  0.00     0.076 A 
HETATM   16  C   UNL     1     -42.137  53.671 -51.207  1.00  0.00     0.037 A 
HETATM   17  C   UNL     1     -43.324  54.377 -51.391  1.00  0.00     0.003 A 
HETATM   18  C   UNL     1     -43.397  55.390 -52.350  1.00  0.00     0.008 A 
BRANCH  15  19
HETATM   19  O   UNL     1     -39.877  53.246 -51.758  1.00  0.00    -0.311 OA
BRANCH  19  20
HETATM   20  C   UNL     1     -39.802  51.968 -52.269  1.00  0.00     0.076 A 
HETATM   21  C   UNL     1     -39.598  50.820 -51.498  1.00  0.00     0.037 A 
HETATM   22  C   UNL     1     -39.523  49.568 -52.112  1.00  0.00     0.003 A 
HETATM   23  C   UNL     1     -39.620  49.464 -53.500  1.00  0.00     0.000 A 
HETATM   24  C   UNL     1     -39.789  50.611 -54.274  1.00  0.00     0.003 A 
HETATM   25  C   UNL     1     -39.878  51.861 -53.659  1.00  0.00     0.037 A 
ENDBRANCH  19  20
ENDBRANCH  15  19
ENDBRANCH   6  13
BRANCH   1  26
HETATM   26  O   UNL     1     -41.863  60.428 -50.767  1.00  0.00    -0.353 OA
HETATM   27  C   UNL     1     -40.800  59.723 -50.141  1.00  0.00     0.210 C 
ENDBRANCH   1  26
BRANCH   2  28
HETATM   28  O   UNL     1     -43.245  62.103 -52.257  1.00  0.00    -0.353 OA
HETATM   29  C   UNL     1     -43.131  63.162 -53.198  1.00  0.00     0.210 C 
ENDBRANCH   2  28
TORSDOF 5
ENDMDL
MODEL 6
REMARK VINA RESULT:      -7.9     15.142     17.712
REMARK  5 active torsions:
REMARK  status: ('A' for Active; 'I' for Inactive)
REMARK    1  A    between atoms: O_2  and  C_3 
REMARK    2  A    between atoms: C_4  and  O_5 
REMARK    3  A    between atoms: C_10  and  C_11 
REMARK    4  A    between atoms: C_13  and  O_14 
REMARK    5  A    between atoms: O_14  and  C_15 
ROOT
HETATM    1  C   UNL     1     -34.166  41.012 -54.972  1.00  0.00     0.102 A 
HETATM    2  C   UNL     1     -34.377  40.691 -53.620  1.00  0.00     0.103 A 
HETATM    3  C   UNL     1     -35.667  40.751 -53.083  1.00  0.00     0.069 A 
HETATM    4  C   UNL     1     -36.753  41.054 -53.908  1.00  0.00     0.044 A 
HETATM    5  C   UNL     1     -36.574  41.309 -55.270  1.00  0.00    -0.020 A 
HETATM    6  C   UNL     1     -37.781  41.687 -56.119  1.00  0.00     0.063 C 
HETATM    7  C   UNL     1     -39.079  41.115 -55.544  1.00  0.00     0.117 C 
HETATM    8  C   UNL     1     -39.179  41.318 -54.055  1.00  0.00     0.223 C 
HETATM    9  O   UNL     1     -40.252  41.502 -53.485  1.00  0.00    -0.273 OA
HETATM   10  N   UNL     1     -38.026  41.153 -53.341  1.00  0.00    -0.327 N 
HETATM   11  C   UNL     1     -35.263  41.323 -55.783  1.00  0.00     0.049 A 
HETATM   12  H   UNL     1     -38.136  41.143 -52.334  1.00  0.00     0.169 HD
ENDROOT
BRANCH   6  13
HETATM   13  C   UNL     1     -37.665  41.286 -57.587  1.00  0.00    -0.046 A 
HETATM   14  C   UNL     1     -37.942  39.971 -58.004  1.00  0.00     0.045 A 
HETATM   15  C   UNL     1     -37.741  39.594 -59.334  1.00  0.00     0.076 A 
HETATM   16  C   UNL     1     -37.352  40.540 -60.279  1.00  0.00     0.037 A 
HETATM   17  C   UNL     1     -37.108  41.854 -59.885  1.00  0.00     0.003 A 
HETATM   18  C   UNL     1     -37.253  42.224 -58.546  1.00  0.00     0.008 A 
BRANCH  15  19
HETATM   19  O   UNL     1     -37.966  38.312 -59.779  1.00  0.00    -0.311 OA
BRANCH  19  20
HETATM   20  C   UNL     1     -38.965  38.103 -60.706  1.00  0.00     0.076 A 
HETATM   21  C   UNL     1     -38.746  37.917 -62.074  1.00  0.00     0.037 A 
HETATM   22  C   UNL     1     -39.828  37.724 -62.937  1.00  0.00     0.003 A 
HETATM   23  C   UNL     1     -41.131  37.750 -62.440  1.00  0.00     0.000 A 
HETATM   24  C   UNL     1     -41.353  37.971 -61.081  1.00  0.00     0.003 A 
HETATM   25  C   UNL     1     -40.272  38.148 -60.216  1.00  0.00     0.037 A 
ENDBRANCH  19  20
ENDBRANCH  15  19
ENDBRANCH   6  13
BRANCH   1  26
HETATM   26  O   UNL     1     -32.867  40.966 -55.413  1.00  0.00    -0.353 OA
HETATM   27  C   UNL     1     -32.580  40.103 -56.504  1.00  0.00     0.210 C 
ENDBRANCH   1  26
BRANCH   2  28
HETATM   28  O   UNL     1     -33.263  40.393 -52.873  1.00  0.00    -0.353 OA
HETATM   29  C   UNL     1     -33.283  40.843 -51.525  1.00  0.00     0.210 C 
ENDBRANCH   2  28
TORSDOF 5
ENDMDL
MODEL 7
REMARK VINA RESULT:      -7.8      3.303      8.900
REMARK  5 active torsions:
REMARK  status: ('A' for Active; 'I' for Inactive)
REMARK    1  A    between atoms: O_2  and  C_3 
REMARK    2  A    between atoms: C_4  and  O_5 
REMARK    3  A    between atoms: C_10  and  C_11 
REMARK    4  A    between atoms: C_13  and  O_14 
REMARK    5  A    between atoms: O_14  and  C_15 
ROOT
HETATM    1  C   UNL     1     -40.779  53.814 -53.889  1.00  0.00     0.102 A 
HETATM    2  C   UNL     1     -40.353  52.553 -53.437  1.00  0.00     0.103 A 
HETATM    3  C   UNL     1     -40.124  52.342 -52.074  1.00  0.00     0.069 A 
HETATM    4  C   UNL     1     -40.392  53.360 -51.155  1.00  0.00     0.044 A 
HETATM    5  C   UNL     1     -40.882  54.599 -51.576  1.00  0.00    -0.020 A 
HETATM    6  C   UNL     1     -41.110  55.696 -50.544  1.00  0.00     0.063 C 
HETATM    7  C   UNL     1     -41.396  55.117 -49.156  1.00  0.00     0.117 C 
HETATM    8  C   UNL     1     -40.446  54.005 -48.797  1.00  0.00     0.223 C 
HETATM    9  O   UNL     1     -40.077  53.799 -47.643  1.00  0.00    -0.273 OA
HETATM   10  N   UNL     1     -40.113  53.142 -49.804  1.00  0.00    -0.327 N 
HETATM   11  C   UNL     1     -41.034  54.826 -52.957  1.00  0.00     0.049 A 
HETATM   12  H   UNL     1     -39.599  52.318 -49.517  1.00  0.00     0.169 HD
ENDROOT
BRANCH   6  13
HETATM   13  C   UNL     1     -42.215  56.682 -50.912  1.00  0.00    -0.046 A 
HETATM   14  C   UNL     1     -41.915  58.012 -51.260  1.00  0.00     0.045 A 
HETATM   15  C   UNL     1     -42.941  58.929 -51.503  1.00  0.00     0.076 A 
HETATM   16  C   UNL     1     -44.270  58.512 -51.491  1.00  0.00     0.037 A 
HETATM   17  C   UNL     1     -44.579  57.189 -51.182  1.00  0.00     0.003 A 
HETATM   18  C   UNL     1     -43.560  56.281 -50.883  1.00  0.00     0.008 A 
BRANCH  15  19
HETATM   19  O   UNL     1     -42.695  60.245 -51.813  1.00  0.00    -0.311 OA
BRANCH  19  20
HETATM   20  C   UNL     1     -43.421  61.222 -51.164  1.00  0.00     0.076 A 
HETATM   21  C   UNL     1     -43.559  61.311 -49.776  1.00  0.00     0.037 A 
HETATM   22  C   UNL     1     -44.329  62.331 -49.213  1.00  0.00     0.003 A 
HETATM   23  C   UNL     1     -44.987  63.245 -50.036  1.00  0.00     0.000 A 
HETATM   24  C   UNL     1     -44.878  63.137 -51.422  1.00  0.00     0.003 A 
HETATM   25  C   UNL     1     -44.098  62.126 -51.985  1.00  0.00     0.037 A 
ENDBRANCH  19  20
ENDBRANCH  15  19
ENDBRANCH   6  13
BRANCH   1  26
HETATM   26  O   UNL     1     -40.944  53.950 -55.244  1.00  0.00    -0.353 OA
HETATM   27  C   UNL     1     -41.988  54.805 -55.690  1.00  0.00     0.210 C 
ENDBRANCH   1  26
BRANCH   2  28
HETATM   28  O   UNL     1     -40.118  51.598 -54.396  1.00  0.00    -0.353 OA
HETATM   29  C   UNL     1     -39.469  50.415 -53.948  1.00  0.00     0.210 C 
ENDBRANCH   2  28
TORSDOF 5
ENDMDL
MODEL 8
REMARK VINA RESULT:      -7.4      3.071      7.854
REMARK  5 active torsions:
REMARK  status: ('A' for Active; 'I' for Inactive)
REMARK    1  A    between atoms: O_2  and  C_3 
REMARK    2  A    between atoms: C_4  and  O_5 
REMARK    3  A    between atoms: C_10  and  C_11 
REMARK    4  A    between atoms: C_13  and  O_14 
REMARK    5  A    between atoms: O_14  and  C_15 
ROOT
HETATM    1  C   UNL     1     -41.016  54.968 -50.552  1.00  0.00     0.102 A 
HETATM    2  C   UNL     1     -40.100  54.062 -49.990  1.00  0.00     0.103 A 
HETATM    3  C   UNL     1     -39.710  52.928 -50.710  1.00  0.00     0.069 A 
HETATM    4  C   UNL     1     -40.169  52.737 -52.015  1.00  0.00     0.044 A 
HETATM    5  C   UNL     1     -41.026  53.662 -52.619  1.00  0.00    -0.020 A 
HETATM    6  C   UNL     1     -41.543  53.385 -54.024  1.00  0.00     0.063 C 
HETATM    7  C   UNL     1     -40.577  52.505 -54.820  1.00  0.00     0.117 C 
HETATM    8  C   UNL     1     -40.081  51.333 -54.014  1.00  0.00     0.223 C 
HETATM    9  O   UNL     1     -39.820  50.246 -54.523  1.00  0.00    -0.273 OA
HETATM   10  N   UNL     1     -39.803  51.576 -52.698  1.00  0.00    -0.327 N 
HETATM   11  C   UNL     1     -41.474  54.758 -51.857  1.00  0.00     0.049 A 
HETATM   12  H   UNL     1     -39.330  50.826 -52.208  1.00  0.00     0.169 HD
ENDROOT
BRANCH   6  13
HETATM   13  C   UNL     1     -41.858  54.640 -54.834  1.00  0.00    -0.046 A 
HETATM   14  C   UNL     1     -42.630  54.571 -56.009  1.00  0.00     0.045 A 
HETATM   15  C   UNL     1     -42.832  55.711 -56.791  1.00  0.00     0.076 A 
HETATM   16  C   UNL     1     -42.347  56.946 -56.367  1.00  0.00     0.037 A 
HETATM   17  C   UNL     1     -41.611  57.034 -55.186  1.00  0.00     0.003 A 
HETATM   18  C   UNL     1     -41.358  55.888 -54.429  1.00  0.00     0.008 A 
BRANCH  15  19
HETATM   19  O   UNL     1     -43.550  55.684 -57.963  1.00  0.00    -0.311 OA
BRANCH  19  20
HETATM   20  C   UNL     1     -43.507  56.788 -58.788  1.00  0.00     0.076 A 
HETATM   21  C   UNL     1     -44.505  57.764 -58.853  1.00  0.00     0.037 A 
HETATM   22  C   UNL     1     -44.376  58.842 -59.732  1.00  0.00     0.003 A 
HETATM   23  C   UNL     1     -43.265  58.929 -60.571  1.00  0.00     0.000 A 
HETATM   24  C   UNL     1     -42.285  57.937 -60.533  1.00  0.00     0.003 A 
HETATM   25  C   UNL     1     -42.407  56.869 -59.644  1.00  0.00     0.037 A 
ENDBRANCH  19  20
ENDBRANCH  15  19
ENDBRANCH   6  13
BRANCH   1  26
HETATM   26  O   UNL     1     -41.377  56.034 -49.767  1.00  0.00    -0.353 OA
HETATM   27  C   UNL     1     -41.599  57.276 -50.419  1.00  0.00     0.210 C 
ENDBRANCH   1  26
BRANCH   2  28
HETATM   28  O   UNL     1     -39.684  54.319 -48.706  1.00  0.00    -0.353 OA
HETATM   29  C   UNL     1     -40.372  53.618 -47.679  1.00  0.00     0.210 C 
ENDBRANCH   2  28
TORSDOF 5
ENDMDL
MODEL 9
REMARK VINA RESULT:      -7.4      3.300      8.595
REMARK  5 active torsions:
REMARK  status: ('A' for Active; 'I' for Inactive)
REMARK    1  A    between atoms: O_2  and  C_3 
REMARK    2  A    between atoms: C_4  and  O_5 
REMARK    3  A    between atoms: C_10  and  C_11 
REMARK    4  A    between atoms: C_13  and  O_14 
REMARK    5  A    between atoms: O_14  and  C_15 
ROOT
HETATM    1  C   UNL     1     -40.619  54.138 -53.800  1.00  0.00     0.102 A 
HETATM    2  C   UNL     1     -40.574  52.778 -53.448  1.00  0.00     0.103 A 
HETATM    3  C   UNL     1     -40.531  52.409 -52.100  1.00  0.00     0.069 A 
HETATM    4  C   UNL     1     -40.609  53.387 -51.105  1.00  0.00     0.044 A 
HETATM    5  C   UNL     1     -40.724  54.741 -51.434  1.00  0.00    -0.020 A 
HETATM    6  C   UNL     1     -40.753  55.775 -50.316  1.00  0.00     0.063 C 
HETATM    7  C   UNL     1     -41.302  55.187 -49.014  1.00  0.00     0.117 C 
HETATM    8  C   UNL     1     -40.706  53.838 -48.704  1.00  0.00     0.223 C 
HETATM    9  O   UNL     1     -40.508  53.454 -47.554  1.00  0.00    -0.273 OA
HETATM   10  N   UNL     1     -40.518  52.999 -49.766  1.00  0.00    -0.327 N 
HETATM   11  C   UNL     1     -40.688  55.106 -52.793  1.00  0.00     0.049 A 
HETATM   12  H   UNL     1     -40.261  52.049 -49.529  1.00  0.00     0.169 HD
ENDROOT
BRANCH   6  13
HETATM   13  C   UNL     1     -41.530  57.044 -50.658  1.00  0.00    -0.046 A 
HETATM   14  C   UNL     1     -42.884  56.987 -51.034  1.00  0.00     0.045 A 
HETATM   15  C   UNL     1     -43.557  58.144 -51.434  1.00  0.00     0.076 A 
HETATM   16  C   UNL     1     -42.918  59.380 -51.378  1.00  0.00     0.037 A 
HETATM   17  C   UNL     1     -41.586  59.455 -50.973  1.00  0.00     0.003 A 
HETATM   18  C   UNL     1     -40.892  58.294 -50.625  1.00  0.00     0.008 A 
BRANCH  15  19
HETATM   19  O   UNL     1     -44.870  58.130 -51.842  1.00  0.00    -0.311 OA
BRANCH  19  20
HETATM   20  C   UNL     1     -45.388  59.263 -52.434  1.00  0.00     0.076 A 
HETATM   21  C   UNL     1     -45.068  59.696 -53.724  1.00  0.00     0.037 A 
HETATM   22  C   UNL     1     -45.636  60.866 -54.232  1.00  0.00     0.003 A 
HETATM   23  C   UNL     1     -46.499  61.624 -53.439  1.00  0.00     0.000 A 
HETATM   24  C   UNL     1     -46.792  61.213 -52.139  1.00  0.00     0.003 A 
HETATM   25  C   UNL     1     -46.235  60.035 -51.638  1.00  0.00     0.037 A 
ENDBRANCH  19  20
ENDBRANCH  15  19
ENDBRANCH   6  13
BRANCH   1  26
HETATM   26  O   UNL     1     -40.620  54.418 -55.144  1.00  0.00    -0.353 OA
HETATM   27  C   UNL     1     -41.811  54.965 -55.693  1.00  0.00     0.210 C 
ENDBRANCH   1  26
BRANCH   2  28
HETATM   28  O   UNL     1     -40.508  51.873 -54.479  1.00  0.00    -0.353 OA
HETATM   29  C   UNL     1     -40.035  50.576 -54.136  1.00  0.00     0.210 C 
ENDBRANCH   2  28
TORSDOF 5
ENDMDL
MODEL 10
REMARK VINA RESULT:      -7.2      2.348      7.952
REMARK  5 active torsions:
REMARK  status: ('A' for Active; 'I' for Inactive)
REMARK    1  A    between atoms: O_2  and  C_3 
REMARK    2  A    between atoms: C_4  and  O_5 
REMARK    3  A    between atoms: C_10  and  C_11 
REMARK    4  A    between atoms: C_13  and  O_14 
REMARK    5  A    between atoms: O_14  and  C_15 
ROOT
HETATM    1  C   UNL     1     -40.492  53.601 -52.155  1.00  0.00     0.102 A 
HETATM    2  C   UNL     1     -40.172  52.825 -53.282  1.00  0.00     0.103 A 
HETATM    3  C   UNL     1     -40.605  53.225 -54.550  1.00  0.00     0.069 A 
HETATM    4  C   UNL     1     -41.288  54.434 -54.705  1.00  0.00     0.044 A 
HETATM    5  C   UNL     1     -41.556  55.256 -53.606  1.00  0.00    -0.020 A 
HETATM    6  C   UNL     1     -42.349  56.539 -53.816  1.00  0.00     0.063 C 
HETATM    7  C   UNL     1     -42.184  57.080 -55.238  1.00  0.00     0.117 C 
HETATM    8  C   UNL     1     -42.317  55.998 -56.277  1.00  0.00     0.223 C 
HETATM    9  O   UNL     1     -42.797  56.207 -57.389  1.00  0.00    -0.273 OA
HETATM   10  N   UNL     1     -41.751  54.792 -55.973  1.00  0.00    -0.327 N 
HETATM   11  C   UNL     1     -41.184  54.805 -52.326  1.00  0.00     0.049 A 
HETATM   12  H   UNL     1     -41.714  54.125 -56.734  1.00  0.00     0.169 HD
ENDROOT
BRANCH   6  13
HETATM   13  C   UNL     1     -42.023  57.647 -52.819  1.00  0.00    -0.046 A 
HETATM   14  C   UNL     1     -43.041  58.295 -52.095  1.00  0.00     0.045 A 
HETATM   15  C   UNL     1     -42.738  59.371 -51.256  1.00  0.00     0.076 A 
HETATM   16  C   UNL     1     -41.414  59.753 -51.058  1.00  0.00     0.037 A 
HETATM   17  C   UNL     1     -40.392  59.096 -51.742  1.00  0.00     0.003 A 
HETATM   18  C   UNL     1     -40.694  58.056 -52.625  1.00  0.00     0.008 A 
BRANCH  15  19
HETATM   19  O   UNL     1     -43.704  60.055 -50.556  1.00  0.00    -0.311 OA
BRANCH  19  20
HETATM   20  C   UNL     1     -44.704  60.689 -51.263  1.00  0.00     0.076 A 
HETATM   21  C   UNL     1     -46.029  60.249 -51.324  1.00  0.00     0.037 A 
HETATM   22  C   UNL     1     -46.968  60.955 -52.080  1.00  0.00     0.003 A 
HETATM   23  C   UNL     1     -46.578  62.082 -52.802  1.00  0.00     0.000 A 
HETATM   24  C   UNL     1     -45.248  62.504 -52.771  1.00  0.00     0.003 A 
HETATM   25  C   UNL     1     -44.313  61.807 -52.003  1.00  0.00     0.037 A 
ENDBRANCH  19  20
ENDBRANCH  15  19
ENDBRANCH   6  13
BRANCH   1  26
HETATM   26  O   UNL     1     -40.063  53.120 -50.943  1.00  0.00    -0.353 OA
HETATM   27  C   UNL     1     -39.858  54.067 -49.903  1.00  0.00     0.210 C 
ENDBRANCH   1  26
BRANCH   2  28
HETATM   28  O   UNL     1     -39.491  51.654 -53.054  1.00  0.00    -0.353 OA
HETATM   29  C   UNL     1     -39.718  50.611 -53.994  1.00  0.00     0.210 C 
ENDBRANCH   2  28
TORSDOF 5
ENDMDL
