MODEL 1
REMARK VINA RESULT:      -8.2      0.000      0.000
REMARK  7 active torsions:
REMARK  status: ('A' for Active; 'I' for Inactive)
REMARK    1  A    between atoms: C_2  and  N_3 
REMARK    2  A    between atoms: C_2  and  C_10 
REMARK    3  A    between atoms: N_11  and  C_12 
REMARK    4  A    between atoms: C_19  and  S_20 
REMARK    5  A    between atoms: S_20  and  C_21 
REMARK    6  A    between atoms: C_21  and  C_22 
REMARK    7  A    between atoms: C_21  and  C_28 
REMARK       I    between atoms: C_22  and  N_23 
REMARK       I    between atoms: N_23  and  C_24 
REMARK       I    between atoms: C_24  and  N_25 
ROOT
HETATM    1  C   UNL     1     -42.291  57.946 -56.783  1.00  0.00     0.166 A 
HETATM    2  N   UNL     1     -41.882  57.450 -55.549  1.00  0.00    -0.274 N 
HETATM    3  C   UNL     1     -41.652  58.585 -54.791  1.00  0.00     0.197 A 
HETATM    4  N   UNL     1     -41.842  59.658 -55.522  1.00  0.00    -0.122 NA
HETATM    5  N   UNL     1     -42.230  59.263 -56.769  1.00  0.00    -0.131 NA
ENDROOT
BRANCH   3   6
HETATM    6  S   UNL     1     -41.041  58.570 -53.175  1.00  0.00    -0.070 SA
BRANCH   6   7
HETATM    7  C   UNL     1     -42.509  58.150 -52.153  1.00  0.00     0.180 C 
BRANCH   7   8
HETATM    8  C   UNL     1     -42.820  59.212 -51.071  1.00  0.00     0.244 C 
HETATM    9  N   UNL     1     -44.143  59.482 -50.774  1.00  0.00    -0.278 N 
HETATM   10  C   UNL     1     -45.162  59.533 -51.686  1.00  0.00     0.320 C 
HETATM   11  H   UNL     1     -44.234  60.149 -50.025  1.00  0.00     0.173 HD
HETATM   12  N   UNL     1     -46.334  59.976 -51.158  1.00  0.00    -0.352 N 
HETATM   13  O   UNL     1     -45.105  59.180 -52.853  1.00  0.00    -0.247 OA
HETATM   14  H   UNL     1     -46.390  60.547 -50.329  1.00  0.00     0.160 HD
HETATM   15  H   UNL     1     -47.103  60.057 -51.814  1.00  0.00     0.160 HD
HETATM   16  O   UNL     1     -41.964  59.887 -50.483  1.00  0.00    -0.271 OA
ENDBRANCH   7   8
BRANCH   7  17
HETATM   17  C   UNL     1     -42.451  56.709 -51.663  1.00  0.00    -0.035 A 
HETATM   18  C   UNL     1     -41.194  56.108 -51.464  1.00  0.00     0.009 A 
HETATM   19  C   UNL     1     -41.089  54.794 -51.006  1.00  0.00     0.001 A 
HETATM   20  C   UNL     1     -42.239  54.058 -50.738  1.00  0.00     0.000 A 
HETATM   21  C   UNL     1     -43.492  54.637 -50.922  1.00  0.00     0.001 A 
HETATM   22  C   UNL     1     -43.599  55.954 -51.378  1.00  0.00     0.009 A 
ENDBRANCH   7  17
ENDBRANCH   6   7
ENDBRANCH   3   6
BRANCH   2  23
HETATM   23  C   UNL     1     -41.808  56.087 -55.164  1.00  0.00     0.043 A 
HETATM   24  C   UNL     1     -40.554  55.477 -54.998  1.00  0.00     0.033 A 
HETATM   25  C   UNL     1     -40.484  54.129 -54.639  1.00  0.00     0.044 A 
HETATM   26  C   UNL     1     -41.653  53.403 -54.448  1.00  0.00     0.116 A 
HETATM   27  F   UNL     1     -41.578  52.110 -54.110  1.00  0.00    -0.206 F 
HETATM   28  C   UNL     1     -42.899  53.999 -54.604  1.00  0.00     0.044 A 
HETATM   29  C   UNL     1     -42.982  55.346 -54.962  1.00  0.00     0.033 A 
ENDBRANCH   2  23
BRANCH   1  30
HETATM   30  C   UNL     1     -42.878  57.143 -57.902  1.00  0.00     0.255 C 
HETATM   31  C   UNL     1     -42.286  57.559 -59.251  1.00  0.00     0.049 C 
BRANCH  30  32
HETATM   32  N   UNL     1     -44.418  57.192 -57.985  1.00  0.00    -0.060 N 
HETATM   33  H   UNL     1     -44.739  56.289 -57.615  1.00  0.00     0.280 HD
HETATM   34  C   UNL     1     -44.992  58.264 -57.079  1.00  0.00     0.236 C 
HETATM   35  C   UNL     1     -46.502  58.089 -56.992  1.00  0.00     0.028 C 
HETATM   36  C   UNL     1     -47.157  58.112 -58.369  1.00  0.00     0.003 C 
HETATM   37  C   UNL     1     -46.502  57.109 -59.314  1.00  0.00     0.028 C 
HETATM   38  C   UNL     1     -44.992  57.313 -59.386  1.00  0.00     0.236 C 
ENDBRANCH  30  32
ENDBRANCH   1  30
TORSDOF 7
ENDMDL
MODEL 2
REMARK VINA RESULT:      -8.0      3.346      5.613
REMARK  7 active torsions:
REMARK  status: ('A' for Active; 'I' for Inactive)
REMARK    1  A    between atoms: C_2  and  N_3 
REMARK    2  A    between atoms: C_2  and  C_10 
REMARK    3  A    between atoms: N_11  and  C_12 
REMARK    4  A    between atoms: C_19  and  S_20 
REMARK    5  A    between atoms: S_20  and  C_21 
REMARK    6  A    between atoms: C_21  and  C_22 
REMARK    7  A    between atoms: C_21  and  C_28 
REMARK       I    between atoms: C_22  and  N_23 
REMARK       I    between atoms: N_23  and  C_24 
REMARK       I    between atoms: C_24  and  N_25 
ROOT
HETATM    1  C   UNL     1     -43.212  57.318 -54.542  1.00  0.00     0.166 A 
HETATM    2  N   UNL     1     -42.041  56.911 -53.909  1.00  0.00    -0.274 N 
HETATM    3  C   UNL     1     -41.708  55.729 -54.547  1.00  0.00     0.197 A 
HETATM    4  N   UNL     1     -42.628  55.424 -55.433  1.00  0.00    -0.122 NA
HETATM    5  N   UNL     1     -43.573  56.408 -55.424  1.00  0.00    -0.131 NA
ENDROOT
BRANCH   3   6
HETATM    6  S   UNL     1     -40.368  54.731 -54.112  1.00  0.00    -0.070 SA
BRANCH   6   7
HETATM    7  C   UNL     1     -41.084  53.525 -52.924  1.00  0.00     0.180 C 
BRANCH   7   8
HETATM    8  C   UNL     1     -41.098  54.043 -51.466  1.00  0.00     0.244 C 
HETATM    9  N   UNL     1     -42.282  53.982 -50.755  1.00  0.00    -0.278 N 
HETATM   10  C   UNL     1     -43.527  54.220 -51.274  1.00  0.00     0.320 C 
HETATM   11  H   UNL     1     -42.171  54.296 -49.805  1.00  0.00     0.173 HD
HETATM   12  N   UNL     1     -44.504  54.253 -50.330  1.00  0.00    -0.352 N 
HETATM   13  O   UNL     1     -43.804  54.345 -52.456  1.00  0.00    -0.247 OA
HETATM   14  H   UNL     1     -44.332  54.455 -49.358  1.00  0.00     0.160 HD
HETATM   15  H   UNL     1     -45.435  54.460 -50.676  1.00  0.00     0.160 HD
HETATM   16  O   UNL     1     -40.129  54.566 -50.897  1.00  0.00    -0.271 OA
ENDBRANCH   7   8
BRANCH   7  17
HETATM   17  C   UNL     1     -40.497  52.134 -53.123  1.00  0.00    -0.035 A 
HETATM   18  C   UNL     1     -39.967  51.453 -52.011  1.00  0.00     0.009 A 
HETATM   19  C   UNL     1     -39.427  50.172 -52.141  1.00  0.00     0.001 A 
HETATM   20  C   UNL     1     -39.410  49.550 -53.385  1.00  0.00     0.000 A 
HETATM   21  C   UNL     1     -39.936  50.204 -54.497  1.00  0.00     0.001 A 
HETATM   22  C   UNL     1     -40.480  51.485 -54.367  1.00  0.00     0.009 A 
ENDBRANCH   7  17
ENDBRANCH   6   7
ENDBRANCH   3   6
BRANCH   2  23
HETATM   23  C   UNL     1     -41.333  57.614 -52.900  1.00  0.00     0.043 A 
HETATM   24  C   UNL     1     -41.684  57.438 -51.552  1.00  0.00     0.033 A 
HETATM   25  C   UNL     1     -41.000  58.146 -50.563  1.00  0.00     0.044 A 
HETATM   26  C   UNL     1     -39.976  59.017 -50.918  1.00  0.00     0.116 A 
HETATM   27  F   UNL     1     -39.328  59.696 -49.964  1.00  0.00    -0.206 F 
HETATM   28  C   UNL     1     -39.616  59.192 -52.249  1.00  0.00     0.044 A 
HETATM   29  C   UNL     1     -40.293  58.489 -53.248  1.00  0.00     0.033 A 
ENDBRANCH   2  23
BRANCH   1  30
HETATM   30  C   UNL     1     -43.875  58.651 -54.388  1.00  0.00     0.255 C 
HETATM   31  C   UNL     1     -43.224  59.701 -55.293  1.00  0.00     0.049 C 
BRANCH  30  32
HETATM   32  N   UNL     1     -43.917  59.182 -52.940  1.00  0.00    -0.060 N 
HETATM   33  H   UNL     1     -43.258  58.595 -52.416  1.00  0.00     0.280 HD
HETATM   34  C   UNL     1     -43.399  60.605 -52.853  1.00  0.00     0.236 C 
HETATM   35  C   UNL     1     -43.207  60.979 -51.390  1.00  0.00     0.028 C 
HETATM   36  C   UNL     1     -44.490  60.802 -50.585  1.00  0.00     0.003 C 
HETATM   37  C   UNL     1     -45.070  59.402 -50.764  1.00  0.00     0.028 C 
HETATM   38  C   UNL     1     -45.258  59.059 -52.238  1.00  0.00     0.236 C 
ENDBRANCH  30  32
ENDBRANCH   1  30
TORSDOF 7
ENDMDL
MODEL 3
REMARK VINA RESULT:      -7.9      3.236      4.833
REMARK  7 active torsions:
REMARK  status: ('A' for Active; 'I' for Inactive)
REMARK    1  A    between atoms: C_2  and  N_3 
REMARK    2  A    between atoms: C_2  and  C_10 
REMARK    3  A    between atoms: N_11  and  C_12 
REMARK    4  A    between atoms: C_19  and  S_20 
REMARK    5  A    between atoms: S_20  and  C_21 
REMARK    6  A    between atoms: C_21  and  C_22 
REMARK    7  A    between atoms: C_21  and  C_28 
REMARK       I    between atoms: C_22  and  N_23 
REMARK       I    between atoms: N_23  and  C_24 
REMARK       I    between atoms: C_24  and  N_25 
ROOT
HETATM    1  C   UNL     1     -43.158  57.013 -55.349  1.00  0.00     0.166 A 
HETATM    2  N   UNL     1     -42.099  56.722 -54.493  1.00  0.00    -0.274 N 
HETATM    3  C   UNL     1     -41.537  55.579 -55.031  1.00  0.00     0.197 A 
HETATM    4  N   UNL     1     -42.232  55.184 -56.072  1.00  0.00    -0.122 NA
HETATM    5  N   UNL     1     -43.251  56.070 -56.266  1.00  0.00    -0.131 NA
ENDROOT
BRANCH   3   6
HETATM    6  S   UNL     1     -40.217  54.717 -54.324  1.00  0.00    -0.070 SA
BRANCH   6   7
HETATM    7  C   UNL     1     -41.022  53.608 -53.098  1.00  0.00     0.180 C 
BRANCH   7   8
HETATM    8  C   UNL     1     -41.091  54.219 -51.679  1.00  0.00     0.244 C 
HETATM    9  N   UNL     1     -42.270  54.102 -50.967  1.00  0.00    -0.278 N 
HETATM   10  C   UNL     1     -43.527  54.195 -51.502  1.00  0.00     0.320 C 
HETATM   11  H   UNL     1     -42.193  54.487 -50.040  1.00  0.00     0.173 HD
HETATM   12  N   UNL     1     -44.510  54.204 -50.563  1.00  0.00    -0.352 N 
HETATM   13  O   UNL     1     -43.806  54.215 -52.690  1.00  0.00    -0.247 OA
HETATM   14  H   UNL     1     -44.364  54.485 -49.607  1.00  0.00     0.160 HD
HETATM   15  H   UNL     1     -45.453  54.304 -50.923  1.00  0.00     0.160 HD
HETATM   16  O   UNL     1     -40.176  54.863 -51.145  1.00  0.00    -0.271 OA
ENDBRANCH   7   8
BRANCH   7  17
HETATM   17  C   UNL     1     -40.463  52.194 -53.180  1.00  0.00    -0.035 A 
HETATM   18  C   UNL     1     -39.918  51.610 -52.021  1.00  0.00     0.009 A 
HETATM   19  C   UNL     1     -39.402  50.312 -52.043  1.00  0.00     0.001 A 
HETATM   20  C   UNL     1     -39.426  49.576 -53.223  1.00  0.00     0.000 A 
HETATM   21  C   UNL     1     -39.968  50.134 -54.379  1.00  0.00     0.001 A 
HETATM   22  C   UNL     1     -40.487  51.431 -54.357  1.00  0.00     0.009 A 
ENDBRANCH   7  17
ENDBRANCH   6   7
ENDBRANCH   3   6
BRANCH   2  23
HETATM   23  C   UNL     1     -41.672  57.493 -53.381  1.00  0.00     0.043 A 
HETATM   24  C   UNL     1     -40.482  58.232 -53.462  1.00  0.00     0.033 A 
HETATM   25  C   UNL     1     -40.053  58.973 -52.359  1.00  0.00     0.044 A 
HETATM   26  C   UNL     1     -40.808  58.976 -51.191  1.00  0.00     0.116 A 
HETATM   27  F   UNL     1     -40.387  59.684 -50.137  1.00  0.00    -0.206 F 
HETATM   28  C   UNL     1     -41.991  58.252 -51.104  1.00  0.00     0.044 A 
HETATM   29  C   UNL     1     -42.430  57.508 -52.201  1.00  0.00     0.033 A 
ENDBRANCH   2  23
BRANCH   1  30
HETATM   30  C   UNL     1     -43.964  58.273 -55.354  1.00  0.00     0.255 C 
HETATM   31  C   UNL     1     -45.464  57.972 -55.407  1.00  0.00     0.049 C 
BRANCH  30  32
HETATM   32  N   UNL     1     -43.603  59.259 -56.485  1.00  0.00    -0.060 N 
HETATM   33  H   UNL     1     -43.856  60.188 -56.127  1.00  0.00     0.280 HD
HETATM   34  C   UNL     1     -42.110  59.283 -56.749  1.00  0.00     0.236 C 
HETATM   35  C   UNL     1     -41.783  60.453 -57.667  1.00  0.00     0.028 C 
HETATM   36  C   UNL     1     -42.579  60.393 -58.967  1.00  0.00     0.003 C 
HETATM   37  C   UNL     1     -44.075  60.256 -58.699  1.00  0.00     0.028 C 
HETATM   38  C   UNL     1     -44.371  59.073 -57.782  1.00  0.00     0.236 C 
ENDBRANCH  30  32
ENDBRANCH   1  30
TORSDOF 7
ENDMDL
MODEL 4
REMARK VINA RESULT:      -7.8      3.229      7.492
REMARK  7 active torsions:
REMARK  status: ('A' for Active; 'I' for Inactive)
REMARK    1  A    between atoms: C_2  and  N_3 
REMARK    2  A    between atoms: C_2  and  C_10 
REMARK    3  A    between atoms: N_11  and  C_12 
REMARK    4  A    between atoms: C_19  and  S_20 
REMARK    5  A    between atoms: S_20  and  C_21 
REMARK    6  A    between atoms: C_21  and  C_22 
REMARK    7  A    between atoms: C_21  and  C_28 
REMARK       I    between atoms: C_22  and  N_23 
REMARK       I    between atoms: N_23  and  C_24 
REMARK       I    between atoms: C_24  and  N_25 
ROOT
HETATM    1  C   UNL     1     -43.971  57.000 -54.572  1.00  0.00     0.166 A 
HETATM    2  N   UNL     1     -43.251  56.218 -55.470  1.00  0.00    -0.274 N 
HETATM    3  C   UNL     1     -43.607  56.717 -56.710  1.00  0.00     0.197 A 
HETATM    4  N   UNL     1     -44.505  57.665 -56.571  1.00  0.00    -0.122 NA
HETATM    5  N   UNL     1     -44.742  57.836 -55.238  1.00  0.00    -0.131 NA
ENDROOT
BRANCH   3   6
HETATM    6  S   UNL     1     -43.068  56.063 -58.215  1.00  0.00    -0.070 SA
BRANCH   6   7
HETATM    7  C   UNL     1     -44.218  56.792 -59.450  1.00  0.00     0.180 C 
BRANCH   7   8
HETATM    8  C   UNL     1     -44.673  55.780 -60.529  1.00  0.00     0.244 C 
HETATM    9  N   UNL     1     -45.857  56.019 -61.201  1.00  0.00    -0.278 N 
HETATM   10  C   UNL     1     -46.992  56.539 -60.639  1.00  0.00     0.320 C 
HETATM   11  H   UNL     1     -46.034  55.331 -61.913  1.00  0.00     0.173 HD
HETATM   12  N   UNL     1     -48.061  56.524 -61.478  1.00  0.00    -0.352 N 
HETATM   13  O   UNL     1     -47.087  57.030 -59.525  1.00  0.00    -0.247 OA
HETATM   14  H   UNL     1     -48.147  55.893 -62.259  1.00  0.00     0.160 HD
HETATM   15  H   UNL     1     -48.928  56.872 -61.082  1.00  0.00     0.160 HD
HETATM   16  O   UNL     1     -44.077  54.727 -60.800  1.00  0.00    -0.271 OA
ENDBRANCH   7   8
BRANCH   7  17
HETATM   17  C   UNL     1     -43.699  58.123 -59.974  1.00  0.00    -0.035 A 
HETATM   18  C   UNL     1     -42.376  58.198 -60.450  1.00  0.00     0.009 A 
HETATM   19  C   UNL     1     -41.858  59.394 -60.950  1.00  0.00     0.001 A 
HETATM   20  C   UNL     1     -42.653  60.535 -60.986  1.00  0.00     0.000 A 
HETATM   21  C   UNL     1     -43.967  60.479 -60.526  1.00  0.00     0.001 A 
HETATM   22  C   UNL     1     -44.488  59.282 -60.028  1.00  0.00     0.009 A 
ENDBRANCH   7  17
ENDBRANCH   6   7
ENDBRANCH   3   6
BRANCH   2  23
HETATM   23  C   UNL     1     -42.313  55.203 -55.149  1.00  0.00     0.043 A 
HETATM   24  C   UNL     1     -42.767  53.925 -54.787  1.00  0.00     0.033 A 
HETATM   25  C   UNL     1     -41.843  52.933 -54.452  1.00  0.00     0.044 A 
HETATM   26  C   UNL     1     -40.483  53.217 -54.481  1.00  0.00     0.116 A 
HETATM   27  F   UNL     1     -39.604  52.263 -54.153  1.00  0.00    -0.206 F 
HETATM   28  C   UNL     1     -40.023  54.478 -54.845  1.00  0.00     0.044 A 
HETATM   29  C   UNL     1     -40.938  55.477 -55.182  1.00  0.00     0.033 A 
ENDBRANCH   2  23
BRANCH   1  30
HETATM   30  C   UNL     1     -43.786  57.028 -53.087  1.00  0.00     0.255 C 
HETATM   31  C   UNL     1     -44.820  57.937 -52.417  1.00  0.00     0.049 C 
BRANCH  30  32
HETATM   32  N   UNL     1     -42.372  57.439 -52.625  1.00  0.00    -0.060 N 
HETATM   33  H   UNL     1     -41.758  56.668 -52.912  1.00  0.00     0.280 HD
HETATM   34  C   UNL     1     -41.888  58.679 -53.351  1.00  0.00     0.236 C 
HETATM   35  C   UNL     1     -40.405  58.878 -53.064  1.00  0.00     0.028 C 
HETATM   36  C   UNL     1     -40.123  58.961 -51.568  1.00  0.00     0.003 C 
HETATM   37  C   UNL     1     -40.711  57.765 -50.823  1.00  0.00     0.028 C 
HETATM   38  C   UNL     1     -42.196  57.595 -51.125  1.00  0.00     0.236 C 
ENDBRANCH  30  32
ENDBRANCH   1  30
TORSDOF 7
ENDMDL
MODEL 5
REMARK VINA RESULT:      -7.7      3.117      7.399
REMARK  7 active torsions:
REMARK  status: ('A' for Active; 'I' for Inactive)
REMARK    1  A    between atoms: C_2  and  N_3 
REMARK    2  A    between atoms: C_2  and  C_10 
REMARK    3  A    between atoms: N_11  and  C_12 
REMARK    4  A    between atoms: C_19  and  S_20 
REMARK    5  A    between atoms: S_20  and  C_21 
REMARK    6  A    between atoms: C_21  and  C_22 
REMARK    7  A    between atoms: C_21  and  C_28 
REMARK       I    between atoms: C_22  and  N_23 
REMARK       I    between atoms: N_23  and  C_24 
REMARK       I    between atoms: C_24  and  N_25 
ROOT
HETATM    1  C   UNL     1     -43.373  57.386 -54.670  1.00  0.00     0.166 A 
HETATM    2  N   UNL     1     -42.936  56.357 -55.499  1.00  0.00    -0.274 N 
HETATM    3  C   UNL     1     -43.437  56.693 -56.744  1.00  0.00     0.197 A 
HETATM    4  N   UNL     1     -44.161  57.785 -56.656  1.00  0.00    -0.122 NA
HETATM    5  N   UNL     1     -44.132  58.213 -55.360  1.00  0.00    -0.131 NA
ENDROOT
BRANCH   3   6
HETATM    6  S   UNL     1     -43.267  55.717 -58.159  1.00  0.00    -0.070 SA
BRANCH   6   7
HETATM    7  C   UNL     1     -44.320  56.562 -59.406  1.00  0.00     0.180 C 
BRANCH   7   8
HETATM    8  C   UNL     1     -44.816  55.615 -60.525  1.00  0.00     0.244 C 
HETATM    9  N   UNL     1     -45.968  55.952 -61.211  1.00  0.00    -0.278 N 
HETATM   10  C   UNL     1     -47.079  56.527 -60.655  1.00  0.00     0.320 C 
HETATM   11  H   UNL     1     -46.175  55.298 -61.948  1.00  0.00     0.173 HD
HETATM   12  N   UNL     1     -48.129  56.608 -61.514  1.00  0.00    -0.352 N 
HETATM   13  O   UNL     1     -47.165  56.990 -59.528  1.00  0.00    -0.247 OA
HETATM   14  H   UNL     1     -48.239  56.007 -62.316  1.00  0.00     0.160 HD
HETATM   15  H   UNL     1     -48.980  56.999 -61.124  1.00  0.00     0.160 HD
HETATM   16  O   UNL     1     -44.285  54.535 -60.818  1.00  0.00    -0.271 OA
ENDBRANCH   7   8
BRANCH   7  17
HETATM   17  C   UNL     1     -43.684  57.862 -59.879  1.00  0.00    -0.035 A 
HETATM   18  C   UNL     1     -42.346  57.847 -60.314  1.00  0.00     0.009 A 
HETATM   19  C   UNL     1     -41.723  59.011 -60.767  1.00  0.00     0.001 A 
HETATM   20  C   UNL     1     -42.427  60.210 -60.794  1.00  0.00     0.000 A 
HETATM   21  C   UNL     1     -43.755  60.245 -60.374  1.00  0.00     0.001 A 
HETATM   22  C   UNL     1     -44.381  59.079 -59.924  1.00  0.00     0.009 A 
ENDBRANCH   7  17
ENDBRANCH   6   7
ENDBRANCH   3   6
BRANCH   2  23
HETATM   23  C   UNL     1     -42.100  55.271 -55.134  1.00  0.00     0.043 A 
HETATM   24  C   UNL     1     -40.706  55.403 -55.228  1.00  0.00     0.033 A 
HETATM   25  C   UNL     1     -39.885  54.326 -54.888  1.00  0.00     0.044 A 
HETATM   26  C   UNL     1     -40.453  53.133 -54.457  1.00  0.00     0.116 A 
HETATM   27  F   UNL     1     -39.660  52.103 -54.138  1.00  0.00    -0.206 F 
HETATM   28  C   UNL     1     -41.832  52.994 -54.354  1.00  0.00     0.044 A 
HETATM   29  C   UNL     1     -42.663  54.064 -54.691  1.00  0.00     0.033 A 
ENDBRANCH   2  23
BRANCH   1  30
HETATM   30  C   UNL     1     -42.925  57.631 -53.263  1.00  0.00     0.255 C 
HETATM   31  C   UNL     1     -41.624  58.438 -53.230  1.00  0.00     0.049 C 
BRANCH  30  32
HETATM   32  N   UNL     1     -42.753  56.354 -52.414  1.00  0.00    -0.060 N 
HETATM   33  H   UNL     1     -42.817  55.575 -53.079  1.00  0.00     0.280 HD
HETATM   34  C   UNL     1     -41.374  56.283 -51.786  1.00  0.00     0.236 C 
HETATM   35  C   UNL     1     -41.166  54.895 -51.195  1.00  0.00     0.028 C 
HETATM   36  C   UNL     1     -42.256  54.537 -50.190  1.00  0.00     0.003 C 
HETATM   37  C   UNL     1     -43.647  54.718 -50.790  1.00  0.00     0.028 C 
HETATM   38  C   UNL     1     -43.828  56.118 -51.368  1.00  0.00     0.236 C 
ENDBRANCH  30  32
ENDBRANCH   1  30
TORSDOF 7
ENDMDL
MODEL 6
REMARK VINA RESULT:      -7.6      3.003      6.533
REMARK  7 active torsions:
REMARK  status: ('A' for Active; 'I' for Inactive)
REMARK    1  A    between atoms: C_2  and  N_3 
REMARK    2  A    between atoms: C_2  and  C_10 
REMARK    3  A    between atoms: N_11  and  C_12 
REMARK    4  A    between atoms: C_19  and  S_20 
REMARK    5  A    between atoms: S_20  and  C_21 
REMARK    6  A    between atoms: C_21  and  C_22 
REMARK    7  A    between atoms: C_21  and  C_28 
REMARK       I    between atoms: C_22  and  N_23 
REMARK       I    between atoms: N_23  and  C_24 
REMARK       I    between atoms: C_24  and  N_25 
ROOT
HETATM    1  C   UNL     1     -41.913  55.094 -53.901  1.00  0.00     0.166 A 
HETATM    2  N   UNL     1     -42.287  56.268 -53.252  1.00  0.00    -0.274 N 
HETATM    3  C   UNL     1     -43.661  56.313 -53.406  1.00  0.00     0.197 A 
HETATM    4  N   UNL     1     -44.064  55.298 -54.134  1.00  0.00    -0.122 NA
HETATM    5  N   UNL     1     -42.975  54.542 -54.454  1.00  0.00    -0.131 NA
ENDROOT
BRANCH   3   6
HETATM    6  S   UNL     1     -44.660  57.612 -52.859  1.00  0.00    -0.070 SA
BRANCH   6   7
HETATM    7  C   UNL     1     -44.159  59.029 -53.917  1.00  0.00     0.180 C 
BRANCH   7   8
HETATM    8  C   UNL     1     -44.956  60.322 -53.620  1.00  0.00     0.244 C 
HETATM    9  N   UNL     1     -44.392  61.537 -53.959  1.00  0.00    -0.278 N 
HETATM   10  C   UNL     1     -43.065  61.852 -53.841  1.00  0.00     0.320 C 
HETATM   11  H   UNL     1     -45.011  62.308 -53.771  1.00  0.00     0.173 HD
HETATM   12  N   UNL     1     -42.799  63.161 -54.091  1.00  0.00    -0.352 N 
HETATM   13  O   UNL     1     -42.158  61.073 -53.593  1.00  0.00    -0.247 OA
HETATM   14  H   UNL     1     -43.485  63.894 -54.005  1.00  0.00     0.160 HD
HETATM   15  H   UNL     1     -41.829  63.436 -53.981  1.00  0.00     0.160 HD
HETATM   16  O   UNL     1     -46.052  60.354 -53.042  1.00  0.00    -0.271 OA
ENDBRANCH   7   8
BRANCH   7  17
HETATM   17  C   UNL     1     -44.081  58.626 -55.384  1.00  0.00    -0.035 A 
HETATM   18  C   UNL     1     -45.276  58.395 -56.090  1.00  0.00     0.009 A 
HETATM   19  C   UNL     1     -45.258  58.034 -57.439  1.00  0.00     0.001 A 
HETATM   20  C   UNL     1     -44.044  57.901 -58.104  1.00  0.00     0.000 A 
HETATM   21  C   UNL     1     -42.850  58.132 -57.424  1.00  0.00     0.001 A 
HETATM   22  C   UNL     1     -42.868  58.496 -56.075  1.00  0.00     0.009 A 
ENDBRANCH   7  17
ENDBRANCH   6   7
ENDBRANCH   3   6
BRANCH   2  23
HETATM   23  C   UNL     1     -41.436  57.149 -52.537  1.00  0.00     0.043 A 
HETATM   24  C   UNL     1     -41.441  57.134 -51.133  1.00  0.00     0.033 A 
HETATM   25  C   UNL     1     -40.618  58.016 -50.430  1.00  0.00     0.044 A 
HETATM   26  C   UNL     1     -39.799  58.900 -51.124  1.00  0.00     0.116 A 
HETATM   27  F   UNL     1     -39.017  59.746 -50.444  1.00  0.00    -0.206 F 
HETATM   28  C   UNL     1     -39.783  58.918 -52.514  1.00  0.00     0.044 A 
HETATM   29  C   UNL     1     -40.601  58.040 -53.227  1.00  0.00     0.033 A 
ENDBRANCH   2  23
BRANCH   1  30
HETATM   30  C   UNL     1     -40.563  54.451 -53.845  1.00  0.00     0.255 C 
HETATM   31  C   UNL     1     -40.037  54.146 -55.250  1.00  0.00     0.049 C 
BRANCH  30  32
HETATM   32  N   UNL     1     -40.500  53.169 -52.988  1.00  0.00    -0.060 N 
HETATM   33  H   UNL     1     -41.463  52.815 -52.958  1.00  0.00     0.280 HD
HETATM   34  C   UNL     1     -39.658  52.096 -53.652  1.00  0.00     0.236 C 
HETATM   35  C   UNL     1     -39.851  50.780 -52.910  1.00  0.00     0.028 C 
HETATM   36  C   UNL     1     -39.520  50.911 -51.427  1.00  0.00     0.003 C 
HETATM   37  C   UNL     1     -40.285  52.065 -50.786  1.00  0.00     0.028 C 
HETATM   38  C   UNL     1     -40.068  53.370 -51.546  1.00  0.00     0.236 C 
ENDBRANCH  30  32
ENDBRANCH   1  30
TORSDOF 7
ENDMDL
MODEL 7
REMARK VINA RESULT:      -7.5      1.608      2.311
REMARK  7 active torsions:
REMARK  status: ('A' for Active; 'I' for Inactive)
REMARK    1  A    between atoms: C_2  and  N_3 
REMARK    2  A    between atoms: C_2  and  C_10 
REMARK    3  A    between atoms: N_11  and  C_12 
REMARK    4  A    between atoms: C_19  and  S_20 
REMARK    5  A    between atoms: S_20  and  C_21 
REMARK    6  A    between atoms: C_21  and  C_22 
REMARK    7  A    between atoms: C_21  and  C_28 
REMARK       I    between atoms: C_22  and  N_23 
REMARK       I    between atoms: N_23  and  C_24 
REMARK       I    between atoms: C_24  and  N_25 
ROOT
HETATM    1  C   UNL     1     -42.963  58.511 -55.844  1.00  0.00     0.166 A 
HETATM    2  N   UNL     1     -43.111  57.561 -54.837  1.00  0.00    -0.274 N 
HETATM    3  C   UNL     1     -43.962  58.165 -53.929  1.00  0.00     0.197 A 
HETATM    4  N   UNL     1     -44.244  59.386 -54.321  1.00  0.00    -0.122 NA
HETATM    5  N   UNL     1     -43.613  59.608 -55.510  1.00  0.00    -0.131 NA
ENDROOT
BRANCH   3   6
HETATM    6  S   UNL     1     -44.435  57.464 -52.422  1.00  0.00    -0.070 SA
BRANCH   6   7
HETATM    7  C   UNL     1     -42.974  57.724 -51.337  1.00  0.00     0.180 C 
BRANCH   7   8
HETATM    8  C   UNL     1     -42.069  58.888 -51.805  1.00  0.00     0.244 C 
HETATM    9  N   UNL     1     -42.186  60.110 -51.170  1.00  0.00    -0.278 N 
HETATM   10  C   UNL     1     -43.360  60.667 -50.740  1.00  0.00     0.320 C 
HETATM   11  H   UNL     1     -41.520  60.782 -51.515  1.00  0.00     0.173 HD
HETATM   12  N   UNL     1     -43.217  61.943 -50.294  1.00  0.00    -0.352 N 
HETATM   13  O   UNL     1     -44.446  60.112 -50.686  1.00  0.00    -0.247 OA
HETATM   14  H   UNL     1     -42.462  62.549 -50.574  1.00  0.00     0.160 HD
HETATM   15  H   UNL     1     -44.074  62.398 -49.998  1.00  0.00     0.160 HD
HETATM   16  O   UNL     1     -41.277  58.824 -52.756  1.00  0.00    -0.271 OA
ENDBRANCH   7   8
BRANCH   7  17
HETATM   17  C   UNL     1     -42.260  56.411 -51.045  1.00  0.00    -0.035 A 
HETATM   18  C   UNL     1     -42.890  55.201 -51.390  1.00  0.00     0.009 A 
HETATM   19  C   UNL     1     -42.271  53.973 -51.152  1.00  0.00     0.001 A 
HETATM   20  C   UNL     1     -41.010  53.934 -50.566  1.00  0.00     0.000 A 
HETATM   21  C   UNL     1     -40.366  55.121 -50.223  1.00  0.00     0.001 A 
HETATM   22  C   UNL     1     -40.984  56.351 -50.464  1.00  0.00     0.009 A 
ENDBRANCH   7  17
ENDBRANCH   6   7
ENDBRANCH   3   6
BRANCH   2  23
HETATM   23  C   UNL     1     -42.567  56.251 -54.820  1.00  0.00     0.043 A 
HETATM   24  C   UNL     1     -43.392  55.150 -55.098  1.00  0.00     0.033 A 
HETATM   25  C   UNL     1     -42.859  53.860 -55.060  1.00  0.00     0.044 A 
HETATM   26  C   UNL     1     -41.516  53.676 -54.751  1.00  0.00     0.116 A 
HETATM   27  F   UNL     1     -41.013  52.437 -54.712  1.00  0.00    -0.206 F 
HETATM   28  C   UNL     1     -40.689  54.760 -54.482  1.00  0.00     0.044 A 
HETATM   29  C   UNL     1     -41.211  56.055 -54.516  1.00  0.00     0.033 A 
ENDBRANCH   2  23
BRANCH   1  30
HETATM   30  C   UNL     1     -42.322  58.285 -57.177  1.00  0.00     0.255 C 
HETATM   31  C   UNL     1     -41.734  59.584 -57.735  1.00  0.00     0.049 C 
BRANCH  30  32
HETATM   32  N   UNL     1     -43.250  57.651 -58.235  1.00  0.00    -0.060 N 
HETATM   33  H   UNL     1     -43.096  58.194 -59.092  1.00  0.00     0.280 HD
HETATM   34  C   UNL     1     -42.846  56.222 -58.544  1.00  0.00     0.236 C 
HETATM   35  C   UNL     1     -43.610  55.742 -59.771  1.00  0.00     0.028 C 
HETATM   36  C   UNL     1     -45.118  55.870 -59.588  1.00  0.00     0.003 C 
HETATM   37  C   UNL     1     -45.510  57.283 -59.166  1.00  0.00     0.028 C 
HETATM   38  C   UNL     1     -44.735  57.733 -57.932  1.00  0.00     0.236 C 
ENDBRANCH  30  32
ENDBRANCH   1  30
TORSDOF 7
ENDMDL
MODEL 8
REMARK VINA RESULT:      -7.2      2.690      6.404
REMARK  7 active torsions:
REMARK  status: ('A' for Active; 'I' for Inactive)
REMARK    1  A    between atoms: C_2  and  N_3 
REMARK    2  A    between atoms: C_2  and  C_10 
REMARK    3  A    between atoms: N_11  and  C_12 
REMARK    4  A    between atoms: C_19  and  S_20 
REMARK    5  A    between atoms: S_20  and  C_21 
REMARK    6  A    between atoms: C_21  and  C_22 
REMARK    7  A    between atoms: C_21  and  C_28 
REMARK       I    between atoms: C_22  and  N_23 
REMARK       I    between atoms: N_23  and  C_24 
REMARK       I    between atoms: C_24  and  N_25 
ROOT
HETATM    1  C   UNL     1     -43.886  58.593 -52.347  1.00  0.00     0.166 A 
HETATM    2  N   UNL     1     -43.730  57.281 -52.785  1.00  0.00    -0.274 N 
HETATM    3  C   UNL     1     -44.286  57.281 -54.051  1.00  0.00     0.197 A 
HETATM    4  N   UNL     1     -44.787  58.465 -54.321  1.00  0.00    -0.122 NA
HETATM    5  N   UNL     1     -44.549  59.282 -53.254  1.00  0.00    -0.131 NA
ENDROOT
BRANCH   3   6
HETATM    6  S   UNL     1     -44.441  55.878 -55.047  1.00  0.00    -0.070 SA
BRANCH   6   7
HETATM    7  C   UNL     1     -42.841  55.800 -55.949  1.00  0.00     0.180 C 
BRANCH   7   8
HETATM    8  C   UNL     1     -43.011  55.768 -57.487  1.00  0.00     0.244 C 
HETATM    9  N   UNL     1     -42.386  56.745 -58.240  1.00  0.00    -0.278 N 
HETATM   10  C   UNL     1     -42.262  58.060 -57.880  1.00  0.00     0.320 C 
HETATM   11  H   UNL     1     -42.518  56.605 -59.228  1.00  0.00     0.173 HD
HETATM   12  N   UNL     1     -41.748  58.841 -58.867  1.00  0.00    -0.352 N 
HETATM   13  O   UNL     1     -42.517  58.536 -56.785  1.00  0.00    -0.247 OA
HETATM   14  H   UNL     1     -41.796  58.604 -59.845  1.00  0.00     0.160 HD
HETATM   15  H   UNL     1     -41.673  59.828 -58.645  1.00  0.00     0.160 HD
HETATM   16  O   UNL     1     -43.720  54.957 -58.099  1.00  0.00    -0.271 OA
ENDBRANCH   7   8
BRANCH   7  17
HETATM   17  C   UNL     1     -41.927  54.730 -55.366  1.00  0.00    -0.035 A 
HETATM   18  C   UNL     1     -42.504  53.605 -54.749  1.00  0.00     0.009 A 
HETATM   19  C   UNL     1     -41.708  52.593 -54.209  1.00  0.00     0.001 A 
HETATM   20  C   UNL     1     -40.322  52.688 -54.279  1.00  0.00     0.000 A 
HETATM   21  C   UNL     1     -39.732  53.790 -54.893  1.00  0.00     0.001 A 
HETATM   22  C   UNL     1     -40.528  54.803 -55.436  1.00  0.00     0.009 A 
ENDBRANCH   7  17
ENDBRANCH   6   7
ENDBRANCH   3   6
BRANCH   2  23
HETATM   23  C   UNL     1     -43.072  56.230 -52.096  1.00  0.00     0.043 A 
HETATM   24  C   UNL     1     -43.814  55.357 -51.284  1.00  0.00     0.033 A 
HETATM   25  C   UNL     1     -43.161  54.335 -50.591  1.00  0.00     0.044 A 
HETATM   26  C   UNL     1     -41.784  54.189 -50.711  1.00  0.00     0.116 A 
HETATM   27  F   UNL     1     -41.165  53.211 -50.040  1.00  0.00    -0.206 F 
HETATM   28  C   UNL     1     -41.041  55.043 -51.518  1.00  0.00     0.044 A 
HETATM   29  C   UNL     1     -41.683  56.068 -52.216  1.00  0.00     0.033 A 
ENDBRANCH   2  23
BRANCH   1  30
HETATM   30  C   UNL     1     -43.260  59.193 -51.127  1.00  0.00     0.255 C 
HETATM   31  C   UNL     1     -43.606  60.679 -51.001  1.00  0.00     0.049 C 
BRANCH  30  32
HETATM   32  N   UNL     1     -41.729  59.017 -51.041  1.00  0.00    -0.060 N 
HETATM   33  H   UNL     1     -41.576  58.006 -50.955  1.00  0.00     0.280 HD
HETATM   34  C   UNL     1     -41.046  59.456 -52.322  1.00  0.00     0.236 C 
HETATM   35  C   UNL     1     -39.589  59.013 -52.288  1.00  0.00     0.028 C 
HETATM   36  C   UNL     1     -38.863  59.544 -51.057  1.00  0.00     0.003 C 
HETATM   37  C   UNL     1     -39.613  59.197 -49.775  1.00  0.00     0.028 C 
HETATM   38  C   UNL     1     -41.066  59.659 -49.836  1.00  0.00     0.236 C 
ENDBRANCH  30  32
ENDBRANCH   1  30
TORSDOF 7
ENDMDL
MODEL 9
REMARK VINA RESULT:      -7.1      2.901      7.064
REMARK  7 active torsions:
REMARK  status: ('A' for Active; 'I' for Inactive)
REMARK    1  A    between atoms: C_2  and  N_3 
REMARK    2  A    between atoms: C_2  and  C_10 
REMARK    3  A    between atoms: N_11  and  C_12 
REMARK    4  A    between atoms: C_19  and  S_20 
REMARK    5  A    between atoms: S_20  and  C_21 
REMARK    6  A    between atoms: C_21  and  C_22 
REMARK    7  A    between atoms: C_21  and  C_28 
REMARK       I    between atoms: C_22  and  N_23 
REMARK       I    between atoms: N_23  and  C_24 
REMARK       I    between atoms: C_24  and  N_25 
ROOT
HETATM    1  C   UNL     1     -41.796  54.738 -54.130  1.00  0.00     0.166 A 
HETATM    2  N   UNL     1     -42.378  55.986 -53.924  1.00  0.00    -0.274 N 
HETATM    3  C   UNL     1     -43.582  55.910 -54.600  1.00  0.00     0.197 A 
HETATM    4  N   UNL     1     -43.683  54.751 -55.208  1.00  0.00    -0.122 NA
HETATM    5  N   UNL     1     -42.565  54.022 -54.926  1.00  0.00    -0.131 NA
ENDROOT
BRANCH   3   6
HETATM    6  S   UNL     1     -44.699  57.220 -54.750  1.00  0.00    -0.070 SA
BRANCH   6   7
HETATM    7  C   UNL     1     -43.934  58.306 -56.021  1.00  0.00     0.180 C 
BRANCH   7   8
HETATM    8  C   UNL     1     -44.486  59.752 -55.995  1.00  0.00     0.244 C 
HETATM    9  N   UNL     1     -43.742  60.752 -56.592  1.00  0.00    -0.278 N 
HETATM   10  C   UNL     1     -42.376  60.847 -56.558  1.00  0.00     0.320 C 
HETATM   11  H   UNL     1     -44.212  61.642 -56.564  1.00  0.00     0.173 HD
HETATM   12  N   UNL     1     -41.905  62.008 -57.084  1.00  0.00    -0.352 N 
HETATM   13  O   UNL     1     -41.603  59.990 -56.160  1.00  0.00    -0.247 OA
HETATM   14  H   UNL     1     -42.453  62.852 -57.147  1.00  0.00     0.160 HD
HETATM   15  H   UNL     1     -40.898  62.126 -57.045  1.00  0.00     0.160 HD
HETATM   16  O   UNL     1     -45.531  60.095 -55.425  1.00  0.00    -0.271 OA
ENDBRANCH   7   8
BRANCH   7  17
HETATM   17  C   UNL     1     -43.914  57.634 -57.387  1.00  0.00    -0.035 A 
HETATM   18  C   UNL     1     -45.082  57.649 -58.171  1.00  0.00     0.009 A 
HETATM   19  C   UNL     1     -45.110  57.055 -59.434  1.00  0.00     0.001 A 
HETATM   20  C   UNL     1     -43.968  56.438 -59.935  1.00  0.00     0.000 A 
HETATM   21  C   UNL     1     -42.800  56.418 -59.177  1.00  0.00     0.001 A 
HETATM   22  C   UNL     1     -42.770  57.015 -57.914  1.00  0.00     0.009 A 
ENDBRANCH   7  17
ENDBRANCH   6   7
ENDBRANCH   3   6
BRANCH   2  23
HETATM   23  C   UNL     1     -41.863  57.041 -53.127  1.00  0.00     0.043 A 
HETATM   24  C   UNL     1     -42.490  57.369 -51.915  1.00  0.00     0.033 A 
HETATM   25  C   UNL     1     -41.994  58.421 -51.143  1.00  0.00     0.044 A 
HETATM   26  C   UNL     1     -40.882  59.133 -51.577  1.00  0.00     0.116 A 
HETATM   27  F   UNL     1     -40.416  60.143 -50.834  1.00  0.00    -0.206 F 
HETATM   28  C   UNL     1     -40.250  58.811 -52.772  1.00  0.00     0.044 A 
HETATM   29  C   UNL     1     -40.737  57.761 -53.553  1.00  0.00     0.033 A 
ENDBRANCH   2  23
BRANCH   1  30
HETATM   30  C   UNL     1     -40.583  54.208 -53.432  1.00  0.00     0.255 C 
HETATM   31  C   UNL     1     -39.938  53.071 -54.229  1.00  0.00     0.049 C 
BRANCH  30  32
HETATM   32  N   UNL     1     -40.832  53.737 -51.984  1.00  0.00    -0.060 N 
HETATM   33  H   UNL     1     -41.803  53.401 -51.971  1.00  0.00     0.280 HD
HETATM   34  C   UNL     1     -39.955  52.553 -51.624  1.00  0.00     0.236 C 
HETATM   35  C   UNL     1     -40.429  51.963 -50.303  1.00  0.00     0.028 C 
HETATM   36  C   UNL     1     -40.444  53.005 -49.190  1.00  0.00     0.003 C 
HETATM   37  C   UNL     1     -41.236  54.244 -49.598  1.00  0.00     0.028 C 
HETATM   38  C   UNL     1     -40.735  54.816 -50.921  1.00  0.00     0.236 C 
ENDBRANCH  30  32
ENDBRANCH   1  30
TORSDOF 7
ENDMDL
MODEL 10
REMARK VINA RESULT:      -7.1      2.147      3.421
REMARK  7 active torsions:
REMARK  status: ('A' for Active; 'I' for Inactive)
REMARK    1  A    between atoms: C_2  and  N_3 
REMARK    2  A    between atoms: C_2  and  C_10 
REMARK    3  A    between atoms: N_11  and  C_12 
REMARK    4  A    between atoms: C_19  and  S_20 
REMARK    5  A    between atoms: S_20  and  C_21 
REMARK    6  A    between atoms: C_21  and  C_22 
REMARK    7  A    between atoms: C_21  and  C_28 
REMARK       I    between atoms: C_22  and  N_23 
REMARK       I    between atoms: N_23  and  C_24 
REMARK       I    between atoms: C_24  and  N_25 
ROOT
HETATM    1  C   UNL     1     -43.101  60.657 -55.281  1.00  0.00     0.166 A 
HETATM    2  N   UNL     1     -42.384  59.469 -55.391  1.00  0.00    -0.274 N 
HETATM    3  C   UNL     1     -41.713  59.369 -54.186  1.00  0.00     0.197 A 
HETATM    4  N   UNL     1     -41.953  60.429 -53.449  1.00  0.00    -0.122 NA
HETATM    5  N   UNL     1     -42.810  61.240 -54.134  1.00  0.00    -0.131 NA
ENDROOT
BRANCH   3   6
HETATM    6  S   UNL     1     -40.595  58.111 -53.795  1.00  0.00    -0.070 SA
BRANCH   6   7
HETATM    7  C   UNL     1     -41.646  56.807 -53.036  1.00  0.00     0.180 C 
BRANCH   7   8
HETATM    8  C   UNL     1     -41.891  57.028 -51.524  1.00  0.00     0.244 C 
HETATM    9  N   UNL     1     -43.188  56.960 -51.049  1.00  0.00    -0.278 N 
HETATM   10  C   UNL     1     -44.294  57.430 -51.705  1.00  0.00     0.320 C 
HETATM   11  H   UNL     1     -43.232  57.068 -50.050  1.00  0.00     0.173 HD
HETATM   12  N   UNL     1     -45.425  57.383 -50.952  1.00  0.00    -0.352 N 
HETATM   13  O   UNL     1     -44.339  57.813 -52.863  1.00  0.00    -0.247 OA
HETATM   14  H   UNL     1     -45.421  57.372 -49.944  1.00  0.00     0.160 HD
HETATM   15  H   UNL     1     -46.258  57.755 -51.396  1.00  0.00     0.160 HD
HETATM   16  O   UNL     1     -41.009  57.322 -50.705  1.00  0.00    -0.271 OA
ENDBRANCH   7   8
BRANCH   7  17
HETATM   17  C   UNL     1     -41.173  55.414 -53.429  1.00  0.00    -0.035 A 
HETATM   18  C   UNL     1     -40.650  55.212 -54.720  1.00  0.00     0.009 A 
HETATM   19  C   UNL     1     -40.194  53.956 -55.123  1.00  0.00     0.001 A 
HETATM   20  C   UNL     1     -40.251  52.881 -54.242  1.00  0.00     0.000 A 
HETATM   21  C   UNL     1     -40.760  53.062 -52.958  1.00  0.00     0.001 A 
HETATM   22  C   UNL     1     -41.214  54.320 -52.552  1.00  0.00     0.009 A 
ENDBRANCH   7  17
ENDBRANCH   6   7
ENDBRANCH   3   6
BRANCH   2  23
HETATM   23  C   UNL     1     -42.422  58.553 -56.474  1.00  0.00     0.043 A 
HETATM   24  C   UNL     1     -41.796  58.883 -57.686  1.00  0.00     0.033 A 
HETATM   25  C   UNL     1     -41.851  57.989 -58.758  1.00  0.00     0.044 A 
HETATM   26  C   UNL     1     -42.523  56.781 -58.616  1.00  0.00     0.116 A 
HETATM   27  F   UNL     1     -42.577  55.932 -59.649  1.00  0.00    -0.206 F 
HETATM   28  C   UNL     1     -43.140  56.442 -57.417  1.00  0.00     0.044 A 
HETATM   29  C   UNL     1     -43.091  57.328 -56.339  1.00  0.00     0.033 A 
ENDBRANCH   2  23
BRANCH   1  30
HETATM   30  C   UNL     1     -44.168  61.130 -56.217  1.00  0.00     0.255 C 
HETATM   31  C   UNL     1     -45.274  61.875 -55.465  1.00  0.00     0.049 C 
BRANCH  30  32
HETATM   32  N   UNL     1     -44.799  60.019 -57.082  1.00  0.00    -0.060 N 
HETATM   33  H   UNL     1     -44.132  59.239 -57.052  1.00  0.00     0.280 HD
HETATM   34  C   UNL     1     -46.094  59.511 -56.478  1.00  0.00     0.236 C 
HETATM   35  C   UNL     1     -46.525  58.248 -57.212  1.00  0.00     0.028 C 
HETATM   36  C   UNL     1     -46.664  58.482 -58.712  1.00  0.00     0.003 C 
HETATM   37  C   UNL     1     -45.397  59.099 -59.298  1.00  0.00     0.028 C 
HETATM   38  C   UNL     1     -44.994  60.365 -58.548  1.00  0.00     0.236 C 
ENDBRANCH  30  32
ENDBRANCH   1  30
TORSDOF 7
ENDMDL
