MODEL 1
REMARK VINA RESULT:      -8.2      0.000      0.000
REMARK  4 active torsions:
REMARK  status: ('A' for Active; 'I' for Inactive)
REMARK    1  A    between atoms: C_7  and  C_8 
REMARK    2  A    between atoms: C_11  and  O_12 
REMARK    3  A    between atoms: C_17  and  C_18 
REMARK    4  A    between atoms: C_25  and  C_26 
REMARK       I    between atoms: C_26  and  N_27 
ROOT
HETATM    1  C   UNL     1     -43.420  57.955 -58.479  1.00  0.00     0.070 C 
HETATM    2  C   UNL     1     -43.357  57.267 -57.137  1.00  0.00     0.037 A 
HETATM    3  N   UNL     1     -42.374  56.291 -57.006  1.00  0.00    -0.192 N 
HETATM    4  C   UNL     1     -42.198  55.562 -55.889  1.00  0.00     0.726 A 
HETATM    5  N   UNL     1     -43.003  55.785 -54.810  1.00  0.00    -0.083 N 
HETATM    6  N   UNL     1     -42.755  54.908 -53.819  1.00  0.00    -0.135 NA
HETATM    7  C   UNL     1     -41.702  54.233 -54.320  1.00  0.00     0.199 A 
HETATM    8  N   UNL     1     -41.356  54.601 -55.610  1.00  0.00    -0.041 NA
HETATM    9  C   UNL     1     -44.075  56.786 -54.776  1.00  0.00     0.202 A 
HETATM   10  C   UNL     1     -44.195  57.525 -56.102  1.00  0.00     0.062 A 
HETATM   11  H   UNL     1     -41.763  56.125 -57.801  1.00  0.00     0.184 HD
ENDROOT
BRANCH   7  12
HETATM   12  C   UNL     1     -40.974  53.203 -53.584  1.00  0.00     0.014 A 
HETATM   13  C   UNL     1     -40.719  53.340 -52.214  1.00  0.00     0.018 A 
HETATM   14  C   UNL     1     -40.002  52.358 -51.524  1.00  0.00     0.037 A 
HETATM   15  C   UNL     1     -39.529  51.223 -52.186  1.00  0.00     0.068 A 
HETATM   16  C   UNL     1     -39.782  51.076 -53.549  1.00  0.00     0.037 A 
HETATM   17  C   UNL     1     -40.499  52.061 -54.243  1.00  0.00     0.018 A 
BRANCH  15  18
HETATM   18  O   UNL     1     -38.840  50.346 -51.395  1.00  0.00    -0.356 OA
HETATM   19  C   UNL     1     -39.612  49.488 -50.565  1.00  0.00     0.210 C 
ENDBRANCH  15  18
ENDBRANCH   7  12
BRANCH   9  20
HETATM   20  C   UNL     1     -43.891  57.700 -53.565  1.00  0.00    -0.028 A 
HETATM   21  C   UNL     1     -44.847  57.763 -52.535  1.00  0.00     0.012 A 
HETATM   22  C   UNL     1     -44.659  58.620 -51.447  1.00  0.00     0.043 A 
HETATM   23  C   UNL     1     -43.527  59.422 -51.391  1.00  0.00     0.116 A 
HETATM   24  F   UNL     1     -43.351  60.245 -50.350  1.00  0.00    -0.206 F 
HETATM   25  C   UNL     1     -42.576  59.388 -52.403  1.00  0.00     0.043 A 
HETATM   26  C   UNL     1     -42.757  58.531 -53.489  1.00  0.00     0.012 A 
ENDBRANCH   9  20
BRANCH  10  27
HETATM   27  C   UNL     1     -45.202  58.606 -56.193  1.00  0.00     0.249 C 
HETATM   28  N   UNL     1     -46.474  58.210 -56.454  1.00  0.00    -0.366 N 
HETATM   29  H   UNL     1     -46.754  57.267 -56.680  1.00  0.00     0.159 HD
HETATM   30  H   UNL     1     -47.169  58.942 -56.536  1.00  0.00     0.159 HD
HETATM   31  O   UNL     1     -44.920  59.787 -56.044  1.00  0.00    -0.268 OA
ENDBRANCH  10  27
TORSDOF 4
ENDMDL
MODEL 2
REMARK VINA RESULT:      -8.2      2.097      2.604
REMARK  4 active torsions:
REMARK  status: ('A' for Active; 'I' for Inactive)
REMARK    1  A    between atoms: C_7  and  C_8 
REMARK    2  A    between atoms: C_11  and  O_12 
REMARK    3  A    between atoms: C_17  and  C_18 
REMARK    4  A    between atoms: C_25  and  C_26 
REMARK       I    between atoms: C_26  and  N_27 
ROOT
HETATM    1  C   UNL     1     -42.961  59.137 -57.087  1.00  0.00     0.070 C 
HETATM    2  C   UNL     1     -42.614  58.312 -55.871  1.00  0.00     0.037 A 
HETATM    3  N   UNL     1     -42.126  57.035 -56.128  1.00  0.00    -0.192 N 
HETATM    4  C   UNL     1     -41.796  56.159 -55.163  1.00  0.00     0.726 A 
HETATM    5  N   UNL     1     -41.922  56.526 -53.854  1.00  0.00    -0.083 N 
HETATM    6  N   UNL     1     -41.642  55.503 -53.025  1.00  0.00    -0.135 NA
HETATM    7  C   UNL     1     -41.246  54.557 -53.896  1.00  0.00     0.199 A 
HETATM    8  N   UNL     1     -41.358  54.929 -55.226  1.00  0.00    -0.041 NA
HETATM    9  C   UNL     1     -42.404  57.839 -53.410  1.00  0.00     0.202 A 
HETATM   10  C   UNL     1     -42.772  58.730 -54.590  1.00  0.00     0.062 A 
HETATM   11  H   UNL     1     -42.020  56.757 -57.100  1.00  0.00     0.184 HD
ENDROOT
BRANCH   7  12
HETATM   12  C   UNL     1     -40.737  53.247 -53.497  1.00  0.00     0.014 A 
HETATM   13  C   UNL     1     -40.335  53.002 -52.178  1.00  0.00     0.018 A 
HETATM   14  C   UNL     1     -39.829  51.751 -51.811  1.00  0.00     0.037 A 
HETATM   15  C   UNL     1     -39.715  50.725 -52.750  1.00  0.00     0.068 A 
HETATM   16  C   UNL     1     -40.116  50.959 -54.065  1.00  0.00     0.037 A 
HETATM   17  C   UNL     1     -40.622  52.213 -54.435  1.00  0.00     0.018 A 
BRANCH  15  18
HETATM   18  O   UNL     1     -39.201  49.557 -52.260  1.00  0.00    -0.356 OA
HETATM   19  C   UNL     1     -39.240  49.380 -50.849  1.00  0.00     0.210 C 
ENDBRANCH  15  18
ENDBRANCH   7  12
BRANCH   9  20
HETATM   20  C   UNL     1     -41.395  58.462 -52.447  1.00  0.00    -0.028 A 
HETATM   21  C   UNL     1     -40.063  58.706 -52.830  1.00  0.00     0.012 A 
HETATM   22  C   UNL     1     -39.157  59.263 -51.925  1.00  0.00     0.043 A 
HETATM   23  C   UNL     1     -39.573  59.566 -50.634  1.00  0.00     0.116 A 
HETATM   24  F   UNL     1     -38.701  60.096 -49.766  1.00  0.00    -0.206 F 
HETATM   25  C   UNL     1     -40.878  59.321 -50.228  1.00  0.00     0.043 A 
HETATM   26  C   UNL     1     -41.788  58.768 -51.131  1.00  0.00     0.012 A 
ENDBRANCH   9  20
BRANCH  10  27
HETATM   27  C   UNL     1     -43.221  60.108 -54.291  1.00  0.00     0.249 C 
HETATM   28  N   UNL     1     -42.301  61.086 -54.492  1.00  0.00    -0.366 N 
HETATM   29  H   UNL     1     -41.332  60.933 -54.730  1.00  0.00     0.159 HD
HETATM   30  H   UNL     1     -42.590  62.032 -54.275  1.00  0.00     0.159 HD
HETATM   31  O   UNL     1     -44.347  60.365 -53.889  1.00  0.00    -0.268 OA
ENDBRANCH  10  27
TORSDOF 4
ENDMDL
MODEL 3
REMARK VINA RESULT:      -7.8      3.560      8.011
REMARK  4 active torsions:
REMARK  status: ('A' for Active; 'I' for Inactive)
REMARK    1  A    between atoms: C_7  and  C_8 
REMARK    2  A    between atoms: C_11  and  O_12 
REMARK    3  A    between atoms: C_17  and  C_18 
REMARK    4  A    between atoms: C_25  and  C_26 
REMARK       I    between atoms: C_26  and  N_27 
ROOT
HETATM    1  C   UNL     1     -41.402  59.365 -50.670  1.00  0.00     0.070 C 
HETATM    2  C   UNL     1     -41.735  58.786 -52.024  1.00  0.00     0.037 A 
HETATM    3  N   UNL     1     -41.464  59.606 -53.114  1.00  0.00    -0.192 N 
HETATM    4  C   UNL     1     -41.725  59.258 -54.386  1.00  0.00     0.726 A 
HETATM    5  N   UNL     1     -42.270  58.034 -54.647  1.00  0.00    -0.083 N 
HETATM    6  N   UNL     1     -42.554  57.888 -55.955  1.00  0.00    -0.135 NA
HETATM    7  C   UNL     1     -42.058  59.032 -56.463  1.00  0.00     0.199 A 
HETATM    8  N   UNL     1     -41.564  59.908 -55.509  1.00  0.00    -0.041 NA
HETATM    9  C   UNL     1     -42.601  57.043 -53.617  1.00  0.00     0.202 A 
HETATM   10  C   UNL     1     -42.287  57.562 -52.219  1.00  0.00     0.062 A 
HETATM   11  H   UNL     1     -41.049  60.516 -52.929  1.00  0.00     0.184 HD
ENDROOT
BRANCH   7  12
HETATM   12  C   UNL     1     -42.029  59.342 -57.890  1.00  0.00     0.014 A 
HETATM   13  C   UNL     1     -41.916  60.664 -58.338  1.00  0.00     0.018 A 
HETATM   14  C   UNL     1     -41.913  60.952 -59.707  1.00  0.00     0.037 A 
HETATM   15  C   UNL     1     -42.020  59.928 -60.651  1.00  0.00     0.068 A 
HETATM   16  C   UNL     1     -42.129  58.609 -60.213  1.00  0.00     0.037 A 
HETATM   17  C   UNL     1     -42.135  58.319 -58.842  1.00  0.00     0.018 A 
BRANCH  15  18
HETATM   18  O   UNL     1     -42.008  60.348 -61.952  1.00  0.00    -0.356 OA
HETATM   19  C   UNL     1     -41.709  61.719 -62.181  1.00  0.00     0.210 C 
ENDBRANCH  15  18
ENDBRANCH   7  12
BRANCH   9  20
HETATM   20  C   UNL     1     -41.939  55.708 -53.951  1.00  0.00    -0.028 A 
HETATM   21  C   UNL     1     -40.618  55.639 -54.432  1.00  0.00     0.012 A 
HETATM   22  C   UNL     1     -40.042  54.405 -54.744  1.00  0.00     0.043 A 
HETATM   23  C   UNL     1     -40.785  53.241 -54.590  1.00  0.00     0.116 A 
HETATM   24  F   UNL     1     -40.232  52.060 -54.894  1.00  0.00    -0.206 F 
HETATM   25  C   UNL     1     -42.095  53.285 -54.131  1.00  0.00     0.043 A 
HETATM   26  C   UNL     1     -42.673  54.514 -53.814  1.00  0.00     0.012 A 
ENDBRANCH   9  20
BRANCH  10  27
HETATM   27  C   UNL     1     -42.518  56.643 -51.082  1.00  0.00     0.249 C 
HETATM   28  N   UNL     1     -43.801  56.556 -50.644  1.00  0.00    -0.366 N 
HETATM   29  H   UNL     1     -44.566  57.129 -50.968  1.00  0.00     0.159 HD
HETATM   30  H   UNL     1     -43.969  55.944 -49.855  1.00  0.00     0.159 HD
HETATM   31  O   UNL     1     -41.620  55.998 -50.559  1.00  0.00    -0.268 OA
ENDBRANCH  10  27
TORSDOF 4
ENDMDL
MODEL 4
REMARK VINA RESULT:      -7.7      2.711      4.332
REMARK  4 active torsions:
REMARK  status: ('A' for Active; 'I' for Inactive)
REMARK    1  A    between atoms: C_7  and  C_8 
REMARK    2  A    between atoms: C_11  and  O_12 
REMARK    3  A    between atoms: C_17  and  C_18 
REMARK    4  A    between atoms: C_25  and  C_26 
REMARK       I    between atoms: C_26  and  N_27 
ROOT
HETATM    1  C   UNL     1     -44.931  60.008 -53.368  1.00  0.00     0.070 C 
HETATM    2  C   UNL     1     -43.935  59.003 -53.895  1.00  0.00     0.037 A 
HETATM    3  N   UNL     1     -43.761  57.862 -53.118  1.00  0.00    -0.192 N 
HETATM    4  C   UNL     1     -42.894  56.881 -53.425  1.00  0.00     0.726 A 
HETATM    5  N   UNL     1     -42.147  56.980 -54.563  1.00  0.00    -0.083 N 
HETATM    6  N   UNL     1     -41.268  55.965 -54.666  1.00  0.00    -0.135 NA
HETATM    7  C   UNL     1     -41.604  55.214 -53.600  1.00  0.00     0.199 A 
HETATM    8  N   UNL     1     -42.589  55.773 -52.802  1.00  0.00    -0.041 NA
HETATM    9  C   UNL     1     -42.219  58.106 -55.500  1.00  0.00     0.202 A 
HETATM   10  C   UNL     1     -43.212  59.163 -55.032  1.00  0.00     0.062 A 
HETATM   11  H   UNL     1     -44.321  57.776 -52.274  1.00  0.00     0.184 HD
ENDROOT
BRANCH   7  12
HETATM   12  C   UNL     1     -40.998  53.920 -53.295  1.00  0.00     0.014 A 
HETATM   13  C   UNL     1     -40.608  53.598 -51.989  1.00  0.00     0.018 A 
HETATM   14  C   UNL     1     -40.008  52.365 -51.712  1.00  0.00     0.037 A 
HETATM   15  C   UNL     1     -39.789  51.434 -52.729  1.00  0.00     0.068 A 
HETATM   16  C   UNL     1     -40.178  51.746 -54.031  1.00  0.00     0.037 A 
HETATM   17  C   UNL     1     -40.776  52.982 -54.311  1.00  0.00     0.018 A 
BRANCH  15  18
HETATM   18  O   UNL     1     -39.191  50.274 -52.322  1.00  0.00    -0.356 OA
HETATM   19  C   UNL     1     -39.485  49.829 -51.003  1.00  0.00     0.210 C 
ENDBRANCH  15  18
ENDBRANCH   7  12
BRANCH   9  20
HETATM   20  C   UNL     1     -42.480  57.587 -56.913  1.00  0.00    -0.028 A 
HETATM   21  C   UNL     1     -41.911  58.202 -58.043  1.00  0.00     0.012 A 
HETATM   22  C   UNL     1     -42.179  57.715 -59.325  1.00  0.00     0.043 A 
HETATM   23  C   UNL     1     -43.024  56.624 -59.483  1.00  0.00     0.116 A 
HETATM   24  F   UNL     1     -43.283  56.162 -60.712  1.00  0.00    -0.206 F 
HETATM   25  C   UNL     1     -43.609  56.009 -58.384  1.00  0.00     0.043 A 
HETATM   26  C   UNL     1     -43.341  56.489 -57.102  1.00  0.00     0.012 A 
ENDBRANCH   9  20
BRANCH  10  27
HETATM   27  C   UNL     1     -43.430  60.332 -55.911  1.00  0.00     0.249 C 
HETATM   28  N   UNL     1     -42.492  61.312 -55.837  1.00  0.00    -0.366 N 
HETATM   29  H   UNL     1     -41.733  61.340 -55.173  1.00  0.00     0.159 HD
HETATM   30  H   UNL     1     -42.640  62.126 -56.421  1.00  0.00     0.159 HD
HETATM   31  O   UNL     1     -44.390  60.425 -56.664  1.00  0.00    -0.268 OA
ENDBRANCH  10  27
TORSDOF 4
ENDMDL
MODEL 5
REMARK VINA RESULT:      -7.7      2.668      4.318
REMARK  4 active torsions:
REMARK  status: ('A' for Active; 'I' for Inactive)
REMARK    1  A    between atoms: C_7  and  C_8 
REMARK    2  A    between atoms: C_11  and  O_12 
REMARK    3  A    between atoms: C_17  and  C_18 
REMARK    4  A    between atoms: C_25  and  C_26 
REMARK       I    between atoms: C_26  and  N_27 
ROOT
HETATM    1  C   UNL     1     -45.513  59.489 -50.383  1.00  0.00     0.070 C 
HETATM    2  C   UNL     1     -44.469  58.833 -51.255  1.00  0.00     0.037 A 
HETATM    3  N   UNL     1     -44.201  57.499 -50.972  1.00  0.00    -0.192 N 
HETATM    4  C   UNL     1     -43.281  56.772 -51.631  1.00  0.00     0.726 A 
HETATM    5  N   UNL     1     -42.573  57.349 -52.646  1.00  0.00    -0.083 N 
HETATM    6  N   UNL     1     -41.634  56.514 -53.130  1.00  0.00    -0.135 NA
HETATM    7  C   UNL     1     -41.890  55.392 -52.431  1.00  0.00     0.199 A 
HETATM    8  N   UNL     1     -42.887  55.534 -51.478  1.00  0.00    -0.041 NA
HETATM    9  C   UNL     1     -42.745  58.739 -53.083  1.00  0.00     0.202 A 
HETATM   10  C   UNL     1     -43.790  59.465 -52.245  1.00  0.00     0.062 A 
HETATM   11  H   UNL     1     -44.729  57.058 -50.224  1.00  0.00     0.184 HD
ENDROOT
BRANCH   7  12
HETATM   12  C   UNL     1     -41.193  54.126 -52.643  1.00  0.00     0.014 A 
HETATM   13  C   UNL     1     -41.179  53.515 -53.903  1.00  0.00     0.018 A 
HETATM   14  C   UNL     1     -40.528  52.291 -54.090  1.00  0.00     0.037 A 
HETATM   15  C   UNL     1     -39.880  51.659 -53.027  1.00  0.00     0.068 A 
HETATM   16  C   UNL     1     -39.886  52.263 -51.771  1.00  0.00     0.037 A 
HETATM   17  C   UNL     1     -40.540  53.488 -51.581  1.00  0.00     0.018 A 
BRANCH  15  18
HETATM   18  O   UNL     1     -39.288  50.468 -53.347  1.00  0.00    -0.356 OA
HETATM   19  C   UNL     1     -39.696  49.855 -54.563  1.00  0.00     0.210 C 
ENDBRANCH  15  18
ENDBRANCH   7  12
BRANCH   9  20
HETATM   20  C   UNL     1     -43.011  58.779 -54.586  1.00  0.00    -0.028 A 
HETATM   21  C   UNL     1     -44.145  58.166 -55.153  1.00  0.00     0.012 A 
HETATM   22  C   UNL     1     -44.355  58.206 -56.533  1.00  0.00     0.043 A 
HETATM   23  C   UNL     1     -43.432  58.844 -57.351  1.00  0.00     0.116 A 
HETATM   24  F   UNL     1     -43.634  58.877 -58.675  1.00  0.00    -0.206 F 
HETATM   25  C   UNL     1     -42.299  59.444 -56.818  1.00  0.00     0.043 A 
HETATM   26  C   UNL     1     -42.086  59.411 -55.439  1.00  0.00     0.012 A 
ENDBRANCH   9  20
BRANCH  10  27
HETATM   27  C   UNL     1     -44.108  60.863 -52.612  1.00  0.00     0.249 C 
HETATM   28  N   UNL     1     -43.247  61.806 -52.150  1.00  0.00    -0.366 N 
HETATM   29  H   UNL     1     -42.484  61.634 -51.513  1.00  0.00     0.159 HD
HETATM   30  H   UNL     1     -43.464  62.768 -52.379  1.00  0.00     0.159 HD
HETATM   31  O   UNL     1     -45.082  61.164 -53.288  1.00  0.00    -0.268 OA
ENDBRANCH  10  27
TORSDOF 4
ENDMDL
MODEL 6
REMARK VINA RESULT:      -7.4      2.146      2.483
REMARK  4 active torsions:
REMARK  status: ('A' for Active; 'I' for Inactive)
REMARK    1  A    between atoms: C_7  and  C_8 
REMARK    2  A    between atoms: C_11  and  O_12 
REMARK    3  A    between atoms: C_17  and  C_18 
REMARK    4  A    between atoms: C_25  and  C_26 
REMARK       I    between atoms: C_26  and  N_27 
ROOT
HETATM    1  C   UNL     1     -43.065  56.101 -59.546  1.00  0.00     0.070 C 
HETATM    2  C   UNL     1     -43.199  56.221 -58.048  1.00  0.00     0.037 A 
HETATM    3  N   UNL     1     -42.395  55.367 -57.301  1.00  0.00    -0.192 N 
HETATM    4  C   UNL     1     -42.410  55.322 -55.956  1.00  0.00     0.726 A 
HETATM    5  N   UNL     1     -43.238  56.160 -55.268  1.00  0.00    -0.083 N 
HETATM    6  N   UNL     1     -43.197  55.916 -53.944  1.00  0.00    -0.135 NA
HETATM    7  C   UNL     1     -42.235  54.976 -53.877  1.00  0.00     0.199 A 
HETATM    8  N   UNL     1     -41.752  54.572 -55.111  1.00  0.00    -0.041 NA
HETATM    9  C   UNL     1     -44.137  57.131 -55.899  1.00  0.00     0.202 A 
HETATM   10  C   UNL     1     -44.052  57.069 -57.419  1.00  0.00     0.062 A 
HETATM   11  H   UNL     1     -41.768  54.746 -57.805  1.00  0.00     0.184 HD
ENDROOT
BRANCH   7  12
HETATM   12  C   UNL     1     -41.730  54.420 -52.624  1.00  0.00     0.014 A 
HETATM   13  C   UNL     1     -42.313  54.761 -51.398  1.00  0.00     0.018 A 
HETATM   14  C   UNL     1     -41.807  54.240 -50.202  1.00  0.00     0.037 A 
HETATM   15  C   UNL     1     -40.714  53.371 -50.210  1.00  0.00     0.068 A 
HETATM   16  C   UNL     1     -40.131  53.023 -51.427  1.00  0.00     0.037 A 
HETATM   17  C   UNL     1     -40.635  53.546 -52.626  1.00  0.00     0.018 A 
BRANCH  15  18
HETATM   18  O   UNL     1     -40.320  52.940 -48.973  1.00  0.00    -0.356 OA
HETATM   19  C   UNL     1     -40.333  53.900 -47.924  1.00  0.00     0.210 C 
ENDBRANCH  15  18
ENDBRANCH   7  12
BRANCH   9  20
HETATM   20  C   UNL     1     -43.889  58.521 -55.316  1.00  0.00    -0.028 A 
HETATM   21  C   UNL     1     -44.917  59.259 -54.700  1.00  0.00     0.012 A 
HETATM   22  C   UNL     1     -44.665  60.534 -54.189  1.00  0.00     0.043 A 
HETATM   23  C   UNL     1     -43.393  61.081 -54.302  1.00  0.00     0.116 A 
HETATM   24  F   UNL     1     -43.154  62.306 -53.816  1.00  0.00    -0.206 F 
HETATM   25  C   UNL     1     -42.365  60.379 -54.919  1.00  0.00     0.043 A 
HETATM   26  C   UNL     1     -42.611  59.103 -55.427  1.00  0.00     0.012 A 
ENDBRANCH   9  20
BRANCH  10  27
HETATM   27  C   UNL     1     -44.865  58.036 -58.190  1.00  0.00     0.249 C 
HETATM   28  N   UNL     1     -46.168  57.699 -58.373  1.00  0.00    -0.366 N 
HETATM   29  H   UNL     1     -46.582  56.816 -58.112  1.00  0.00     0.159 HD
HETATM   30  H   UNL     1     -46.731  58.344 -58.914  1.00  0.00     0.159 HD
HETATM   31  O   UNL     1     -44.406  59.077 -58.639  1.00  0.00    -0.268 OA
ENDBRANCH  10  27
TORSDOF 4
ENDMDL
MODEL 7
REMARK VINA RESULT:      -7.0      3.350      7.660
REMARK  4 active torsions:
REMARK  status: ('A' for Active; 'I' for Inactive)
REMARK    1  A    between atoms: C_7  and  C_8 
REMARK    2  A    between atoms: C_11  and  O_12 
REMARK    3  A    between atoms: C_17  and  C_18 
REMARK    4  A    between atoms: C_25  and  C_26 
REMARK       I    between atoms: C_26  and  N_27 
ROOT
HETATM    1  C   UNL     1     -40.584  57.889 -50.139  1.00  0.00     0.070 C 
HETATM    2  C   UNL     1     -41.151  57.017 -51.233  1.00  0.00     0.037 A 
HETATM    3  N   UNL     1     -41.462  57.669 -52.422  1.00  0.00    -0.192 N 
HETATM    4  C   UNL     1     -42.000  57.049 -53.488  1.00  0.00     0.726 A 
HETATM    5  N   UNL     1     -42.249  55.709 -53.428  1.00  0.00    -0.083 N 
HETATM    6  N   UNL     1     -42.874  55.272 -54.538  1.00  0.00    -0.135 NA
HETATM    7  C   UNL     1     -42.885  56.388 -55.292  1.00  0.00     0.199 A 
HETATM    8  N   UNL     1     -42.375  57.507 -54.654  1.00  0.00    -0.041 NA
HETATM    9  C   UNL     1     -41.966  54.870 -52.258  1.00  0.00     0.202 A 
HETATM   10  C   UNL     1     -41.386  55.687 -51.110  1.00  0.00     0.062 A 
HETATM   11  H   UNL     1     -41.271  58.665 -52.479  1.00  0.00     0.184 HD
ENDROOT
BRANCH   7  12
HETATM   12  C   UNL     1     -43.384  56.436 -56.664  1.00  0.00     0.014 A 
HETATM   13  C   UNL     1     -44.182  57.499 -57.103  1.00  0.00     0.018 A 
HETATM   14  C   UNL     1     -44.673  57.524 -58.412  1.00  0.00     0.037 A 
HETATM   15  C   UNL     1     -44.376  56.492 -59.305  1.00  0.00     0.068 A 
HETATM   16  C   UNL     1     -43.578  55.432 -58.877  1.00  0.00     0.037 A 
HETATM   17  C   UNL     1     -43.087  55.404 -57.564  1.00  0.00     0.018 A 
BRANCH  15  18
HETATM   18  O   UNL     1     -44.923  56.639 -60.549  1.00  0.00    -0.356 OA
HETATM   19  C   UNL     1     -45.294  55.448 -61.232  1.00  0.00     0.210 C 
ENDBRANCH  15  18
ENDBRANCH   7  12
BRANCH   9  20
HETATM   20  C   UNL     1     -41.106  53.677 -52.672  1.00  0.00    -0.028 A 
HETATM   21  C   UNL     1     -40.715  53.477 -54.009  1.00  0.00     0.012 A 
HETATM   22  C   UNL     1     -39.941  52.370 -54.362  1.00  0.00     0.043 A 
HETATM   23  C   UNL     1     -39.567  51.453 -53.387  1.00  0.00     0.116 A 
HETATM   24  F   UNL     1     -38.829  50.389 -53.728  1.00  0.00    -0.206 F 
HETATM   25  C   UNL     1     -39.953  51.621 -52.063  1.00  0.00     0.043 A 
HETATM   26  C   UNL     1     -40.723  52.728 -51.705  1.00  0.00     0.012 A 
ENDBRANCH   9  20
BRANCH  10  27
HETATM   27  C   UNL     1     -40.999  54.959 -49.881  1.00  0.00     0.249 C 
HETATM   28  N   UNL     1     -39.664  54.832 -49.665  1.00  0.00    -0.366 N 
HETATM   29  H   UNL     1     -38.942  55.107 -50.314  1.00  0.00     0.159 HD
HETATM   30  H   UNL     1     -39.386  54.321 -48.836  1.00  0.00     0.159 HD
HETATM   31  O   UNL     1     -41.818  54.495 -49.100  1.00  0.00    -0.268 OA
ENDBRANCH  10  27
TORSDOF 4
ENDMDL
MODEL 8
REMARK VINA RESULT:      -7.0      3.292      7.788
REMARK  4 active torsions:
REMARK  status: ('A' for Active; 'I' for Inactive)
REMARK    1  A    between atoms: C_7  and  C_8 
REMARK    2  A    between atoms: C_11  and  O_12 
REMARK    3  A    between atoms: C_17  and  C_18 
REMARK    4  A    between atoms: C_25  and  C_26 
REMARK       I    between atoms: C_26  and  N_27 
ROOT
HETATM    1  C   UNL     1     -40.910  59.419 -51.109  1.00  0.00     0.070 C 
HETATM    2  C   UNL     1     -41.673  58.525 -52.056  1.00  0.00     0.037 A 
HETATM    3  N   UNL     1     -42.227  59.155 -53.165  1.00  0.00    -0.192 N 
HETATM    4  C   UNL     1     -42.961  58.514 -54.092  1.00  0.00     0.726 A 
HETATM    5  N   UNL     1     -43.173  57.172 -53.967  1.00  0.00    -0.083 N 
HETATM    6  N   UNL     1     -44.003  56.712 -54.923  1.00  0.00    -0.135 NA
HETATM    7  C   UNL     1     -44.182  57.816 -55.672  1.00  0.00     0.199 A 
HETATM    8  N   UNL     1     -43.570  58.951 -55.164  1.00  0.00    -0.041 NA
HETATM    9  C   UNL     1     -42.647  56.354 -52.869  1.00  0.00     0.202 A 
HETATM   10  C   UNL     1     -41.859  57.194 -51.872  1.00  0.00     0.062 A 
HETATM   11  H   UNL     1     -42.066  60.153 -53.271  1.00  0.00     0.184 HD
ENDROOT
BRANCH   7  12
HETATM   12  C   UNL     1     -44.949  57.838 -56.915  1.00  0.00     0.014 A 
HETATM   13  C   UNL     1     -44.368  57.443 -58.127  1.00  0.00     0.018 A 
HETATM   14  C   UNL     1     -45.105  57.489 -59.315  1.00  0.00     0.037 A 
HETATM   15  C   UNL     1     -46.430  57.927 -59.315  1.00  0.00     0.068 A 
HETATM   16  C   UNL     1     -47.017  58.318 -58.113  1.00  0.00     0.037 A 
HETATM   17  C   UNL     1     -46.280  58.275 -56.922  1.00  0.00     0.018 A 
BRANCH  15  18
HETATM   18  O   UNL     1     -47.031  57.927 -60.544  1.00  0.00    -0.356 OA
HETATM   19  C   UNL     1     -47.381  56.660 -61.087  1.00  0.00     0.210 C 
ENDBRANCH  15  18
ENDBRANCH   7  12
BRANCH   9  20
HETATM   20  C   UNL     1     -41.872  55.165 -53.434  1.00  0.00    -0.028 A 
HETATM   21  C   UNL     1     -42.150  53.844 -53.036  1.00  0.00     0.012 A 
HETATM   22  C   UNL     1     -41.414  52.778 -53.558  1.00  0.00     0.043 A 
HETATM   23  C   UNL     1     -40.394  53.026 -54.467  1.00  0.00     0.116 A 
HETATM   24  F   UNL     1     -39.688  52.002 -54.963  1.00  0.00    -0.206 F 
HETATM   25  C   UNL     1     -40.092  54.322 -54.865  1.00  0.00     0.043 A 
HETATM   26  C   UNL     1     -40.826  55.390 -54.350  1.00  0.00     0.012 A 
ENDBRANCH   9  20
BRANCH  10  27
HETATM   27  C   UNL     1     -41.221  56.488 -50.738  1.00  0.00     0.249 C 
HETATM   28  N   UNL     1     -42.065  56.018 -49.784  1.00  0.00    -0.366 N 
HETATM   29  H   UNL     1     -43.057  56.196 -49.747  1.00  0.00     0.159 HD
HETATM   30  H   UNL     1     -41.639  55.549 -48.994  1.00  0.00     0.159 HD
HETATM   31  O   UNL     1     -40.011  56.331 -50.653  1.00  0.00    -0.268 OA
ENDBRANCH  10  27
TORSDOF 4
ENDMDL
MODEL 9
REMARK VINA RESULT:      -6.9      3.418      7.110
REMARK  4 active torsions:
REMARK  status: ('A' for Active; 'I' for Inactive)
REMARK    1  A    between atoms: C_7  and  C_8 
REMARK    2  A    between atoms: C_11  and  O_12 
REMARK    3  A    between atoms: C_17  and  C_18 
REMARK    4  A    between atoms: C_25  and  C_26 
REMARK       I    between atoms: C_26  and  N_27 
ROOT
HETATM    1  C   UNL     1     -45.678  57.907 -58.063  1.00  0.00     0.070 C 
HETATM    2  C   UNL     1     -44.914  58.070 -56.772  1.00  0.00     0.037 A 
HETATM    3  N   UNL     1     -45.562  58.793 -55.776  1.00  0.00    -0.192 N 
HETATM    4  C   UNL     1     -45.014  59.055 -54.575  1.00  0.00     0.726 A 
HETATM    5  N   UNL     1     -43.765  58.584 -54.292  1.00  0.00    -0.083 N 
HETATM    6  N   UNL     1     -43.333  59.018 -53.092  1.00  0.00    -0.135 NA
HETATM    7  C   UNL     1     -44.420  59.673 -52.641  1.00  0.00     0.199 A 
HETATM    8  N   UNL     1     -45.463  59.733 -53.552  1.00  0.00    -0.041 NA
HETATM    9  C   UNL     1     -42.953  57.792 -55.223  1.00  0.00     0.202 A 
HETATM   10  C   UNL     1     -43.666  57.585 -56.553  1.00  0.00     0.062 A 
HETATM   11  H   UNL     1     -46.496  59.139 -55.974  1.00  0.00     0.184 HD
ENDROOT
BRANCH   7  12
HETATM   12  C   UNL     1     -44.513  60.272 -51.312  1.00  0.00     0.014 A 
HETATM   13  C   UNL     1     -45.506  59.871 -50.410  1.00  0.00     0.018 A 
HETATM   14  C   UNL     1     -45.600  60.467 -49.148  1.00  0.00     0.037 A 
HETATM   15  C   UNL     1     -44.707  61.469 -48.765  1.00  0.00     0.068 A 
HETATM   16  C   UNL     1     -43.713  61.871 -49.655  1.00  0.00     0.037 A 
HETATM   17  C   UNL     1     -43.618  61.276 -50.921  1.00  0.00     0.018 A 
BRANCH  15  18
HETATM   18  O   UNL     1     -44.914  61.968 -47.508  1.00  0.00    -0.356 OA
HETATM   19  C   UNL     1     -44.856  61.041 -46.432  1.00  0.00     0.210 C 
ENDBRANCH  15  18
ENDBRANCH   7  12
BRANCH   9  20
HETATM   20  C   UNL     1     -42.505  56.498 -54.546  1.00  0.00    -0.028 A 
HETATM   21  C   UNL     1     -41.143  56.173 -54.400  1.00  0.00     0.012 A 
HETATM   22  C   UNL     1     -40.763  54.975 -53.791  1.00  0.00     0.043 A 
HETATM   23  C   UNL     1     -41.737  54.095 -53.337  1.00  0.00     0.116 A 
HETATM   24  F   UNL     1     -41.370  52.945 -52.757  1.00  0.00    -0.206 F 
HETATM   25  C   UNL     1     -43.088  54.387 -53.482  1.00  0.00     0.043 A 
HETATM   26  C   UNL     1     -43.472  55.584 -54.087  1.00  0.00     0.012 A 
ENDBRANCH   9  20
BRANCH  10  27
HETATM   27  C   UNL     1     -42.986  56.753 -57.570  1.00  0.00     0.249 C 
HETATM   28  N   UNL     1     -42.053  57.389 -58.326  1.00  0.00    -0.366 N 
HETATM   29  H   UNL     1     -41.868  58.380 -58.308  1.00  0.00     0.159 HD
HETATM   30  H   UNL     1     -41.593  56.834 -59.038  1.00  0.00     0.159 HD
HETATM   31  O   UNL     1     -43.237  55.567 -57.731  1.00  0.00    -0.268 OA
ENDBRANCH  10  27
TORSDOF 4
ENDMDL
MODEL 10
REMARK VINA RESULT:      -6.8      3.911      6.477
REMARK  4 active torsions:
REMARK  status: ('A' for Active; 'I' for Inactive)
REMARK    1  A    between atoms: C_7  and  C_8 
REMARK    2  A    between atoms: C_11  and  O_12 
REMARK    3  A    between atoms: C_17  and  C_18 
REMARK    4  A    between atoms: C_25  and  C_26 
REMARK       I    between atoms: C_26  and  N_27 
ROOT
HETATM    1  C   UNL     1     -40.966  56.550 -50.183  1.00  0.00     0.070 C 
HETATM    2  C   UNL     1     -41.331  57.217 -51.487  1.00  0.00     0.037 A 
HETATM    3  N   UNL     1     -41.650  56.360 -52.534  1.00  0.00    -0.192 N 
HETATM    4  C   UNL     1     -41.970  56.785 -53.769  1.00  0.00     0.726 A 
HETATM    5  N   UNL     1     -42.005  58.125 -54.027  1.00  0.00    -0.083 N 
HETATM    6  N   UNL     1     -42.247  58.371 -55.329  1.00  0.00    -0.135 NA
HETATM    7  C   UNL     1     -42.456  57.126 -55.799  1.00  0.00     0.199 A 
HETATM    8  N   UNL     1     -42.264  56.126 -54.860  1.00  0.00    -0.041 NA
HETATM    9  C   UNL     1     -41.712  59.163 -53.034  1.00  0.00     0.202 A 
HETATM   10  C   UNL     1     -41.337  58.560 -51.686  1.00  0.00     0.062 A 
HETATM   11  H   UNL     1     -41.636  55.360 -52.348  1.00  0.00     0.184 HD
ENDROOT
BRANCH   7  12
HETATM   12  C   UNL     1     -42.854  56.834 -57.174  1.00  0.00     0.014 A 
HETATM   13  C   UNL     1     -43.209  55.536 -57.561  1.00  0.00     0.018 A 
HETATM   14  C   UNL     1     -43.567  55.263 -58.885  1.00  0.00     0.037 A 
HETATM   15  C   UNL     1     -43.577  56.278 -59.844  1.00  0.00     0.068 A 
HETATM   16  C   UNL     1     -43.228  57.574 -59.467  1.00  0.00     0.037 A 
HETATM   17  C   UNL     1     -42.867  57.849 -58.141  1.00  0.00     0.018 A 
BRANCH  15  18
HETATM   18  O   UNL     1     -43.941  55.873 -61.099  1.00  0.00    -0.356 OA
HETATM   19  C   UNL     1     -45.112  55.073 -61.201  1.00  0.00     0.210 C 
ENDBRANCH  15  18
ENDBRANCH   7  12
BRANCH   9  20
HETATM   20  C   UNL     1     -42.867  60.161 -52.971  1.00  0.00    -0.028 A 
HETATM   21  C   UNL     1     -44.180  59.753 -52.669  1.00  0.00     0.012 A 
HETATM   22  C   UNL     1     -45.220  60.684 -52.634  1.00  0.00     0.043 A 
HETATM   23  C   UNL     1     -44.956  62.020 -52.912  1.00  0.00     0.116 A 
HETATM   24  F   UNL     1     -45.956  62.911 -52.882  1.00  0.00    -0.206 F 
HETATM   25  C   UNL     1     -43.672  62.444 -53.227  1.00  0.00     0.043 A 
HETATM   26  C   UNL     1     -42.629  61.518 -53.259  1.00  0.00     0.012 A 
ENDBRANCH   9  20
BRANCH  10  27
HETATM   27  C   UNL     1     -41.070  59.493 -50.569  1.00  0.00     0.249 C 
HETATM   28  N   UNL     1     -42.148  59.842 -49.820  1.00  0.00    -0.366 N 
HETATM   29  H   UNL     1     -43.104  59.593 -50.026  1.00  0.00     0.159 HD
HETATM   30  H   UNL     1     -41.982  60.495 -49.064  1.00  0.00     0.159 HD
HETATM   31  O   UNL     1     -39.955  59.931 -50.325  1.00  0.00    -0.268 OA
ENDBRANCH  10  27
TORSDOF 4
ENDMDL
