MODEL 1
REMARK VINA RESULT:      -8.8      0.000      0.000
REMARK  6 active torsions:
REMARK  status: ('A' for Active; 'I' for Inactive)
REMARK    1  A    between atoms: C_3  and  C_4 
REMARK    2  A    between atoms: C_4  and  C_5 
REMARK    3  A    between atoms: N_8  and  C_10 
REMARK    4  A    between atoms: C_10  and  C_11 
REMARK    5  A    between atoms: N_24  and  C_25 
REMARK    6  A    between atoms: C_25  and  C_26 
ROOT
HETATM    1  C   UNL     1     -42.739  59.427 -53.016  1.00  0.00     0.164 C 
HETATM    2  N   UNL     1     -43.898  58.554 -52.960  1.00  0.00    -0.319 N 
HETATM    3  C   UNL     1     -44.235  58.023 -54.183  1.00  0.00     0.326 C 
HETATM    4  O   UNL     1     -45.036  57.120 -54.332  1.00  0.00    -0.247 OA
HETATM    5  N   UNL     1     -43.452  58.610 -55.130  1.00  0.00    -0.265 N 
HETATM    6  C   UNL     1     -42.599  59.503 -54.549  1.00  0.00     0.263 C 
HETATM    7  O   UNL     1     -41.786  60.187 -55.159  1.00  0.00    -0.270 OA
HETATM    8  H   UNL     1     -44.382  58.281 -52.112  1.00  0.00     0.166 HD
ENDROOT
BRANCH   1   9
HETATM    9  C   UNL     1     -43.064  60.781 -52.383  1.00  0.00     0.072 A 
HETATM   10  C   UNL     1     -42.655  61.117 -51.089  1.00  0.00     0.030 A 
HETATM   11  C   UNL     1     -42.966  62.377 -50.580  1.00  0.00     0.003 A 
HETATM   12  C   UNL     1     -43.653  63.286 -51.371  1.00  0.00     0.019 A 
HETATM   13  C   UNL     1     -43.999  62.899 -52.651  1.00  0.00     0.117 A 
HETATM   14  N   UNL     1     -43.720  61.679 -53.167  1.00  0.00    -0.262 NA
ENDBRANCH   1   9
BRANCH   1  15
HETATM   15  C   UNL     1     -41.508  58.700 -52.334  1.00  0.00     0.033 C 
HETATM   16  C   UNL     1     -40.652  57.814 -53.260  1.00  0.00     0.036 C 
HETATM   17  C   UNL     1     -41.122  56.377 -53.446  1.00  0.00     0.235 C 
HETATM   18  N   UNL     1     -41.456  55.719 -52.130  1.00  0.00    -0.067 N 
HETATM   19  H   UNL     1     -40.567  55.564 -51.634  1.00  0.00     0.280 HD
HETATM   20  C   UNL     1     -42.343  56.533 -51.229  1.00  0.00     0.235 C 
HETATM   21  C   UNL     1     -41.781  57.926 -51.029  1.00  0.00     0.036 C 
BRANCH  18  22
HETATM   22  C   UNL     1     -42.080  54.338 -52.327  1.00  0.00     0.278 C 
BRANCH  22  23
HETATM   23  C   UNL     1     -41.132  53.236 -52.688  1.00  0.00     0.028 A 
HETATM   24  C   UNL     1     -40.211  52.692 -51.786  1.00  0.00     0.045 A 
HETATM   25 CL   UNL     1     -40.071  53.311 -50.180  1.00  0.00    -0.084 Cl
HETATM   26  C   UNL     1     -39.368  51.645 -52.171  1.00  0.00     0.024 A 
HETATM   27  C   UNL     1     -39.439  51.126 -53.466  1.00  0.00     0.005 A 
HETATM   28  C   UNL     1     -40.347  51.659 -54.374  1.00  0.00     0.043 A 
HETATM   29  C   UNL     1     -41.181  52.699 -53.979  1.00  0.00     0.126 A 
HETATM   30  F   UNL     1     -42.047  53.205 -54.868  1.00  0.00    -0.205 F 
ENDBRANCH  22  23
ENDBRANCH  18  22
ENDBRANCH   1  15
BRANCH   5  31
HETATM   31  C   UNL     1     -43.525  58.347 -56.561  1.00  0.00     0.168 C 
BRANCH  31  32
HETATM   32  C   UNL     1     -42.412  57.400 -57.040  1.00  0.00     0.140 C 
HETATM   33  O   UNL     1     -42.040  57.752 -58.381  1.00  0.00    -0.384 OA
HETATM   34  C   UNL     1     -42.788  56.935 -59.298  1.00  0.00     0.168 C 
HETATM   35  C   UNL     1     -43.574  55.929 -58.478  1.00  0.00     0.029 C 
HETATM   36  C   UNL     1     -42.874  55.956 -57.142  1.00  0.00     0.036 C 
ENDBRANCH  31  32
ENDBRANCH   5  31
TORSDOF 6
ENDMDL
MODEL 2
REMARK VINA RESULT:      -8.7      1.836      5.356
REMARK  6 active torsions:
REMARK  status: ('A' for Active; 'I' for Inactive)
REMARK    1  A    between atoms: C_3  and  C_4 
REMARK    2  A    between atoms: C_4  and  C_5 
REMARK    3  A    between atoms: N_8  and  C_10 
REMARK    4  A    between atoms: C_10  and  C_11 
REMARK    5  A    between atoms: N_24  and  C_25 
REMARK    6  A    between atoms: C_25  and  C_26 
ROOT
HETATM    1  C   UNL     1     -43.123  57.297 -55.406  1.00  0.00     0.164 C 
HETATM    2  N   UNL     1     -41.739  57.519 -55.028  1.00  0.00    -0.319 N 
HETATM    3  C   UNL     1     -41.595  58.446 -54.022  1.00  0.00     0.326 C 
HETATM    4  O   UNL     1     -40.556  58.636 -53.419  1.00  0.00    -0.247 OA
HETATM    5  N   UNL     1     -42.814  59.004 -53.782  1.00  0.00    -0.265 N 
HETATM    6  C   UNL     1     -43.755  58.448 -54.600  1.00  0.00     0.263 C 
HETATM    7  O   UNL     1     -44.939  58.763 -54.613  1.00  0.00    -0.270 OA
HETATM    8  H   UNL     1     -40.945  57.003 -55.391  1.00  0.00     0.166 HD
ENDROOT
BRANCH   1   9
HETATM    9  C   UNL     1     -43.294  57.468 -56.917  1.00  0.00     0.072 A 
HETATM   10  C   UNL     1     -44.543  57.389 -57.539  1.00  0.00     0.030 A 
HETATM   11  C   UNL     1     -44.632  57.576 -58.918  1.00  0.00     0.003 A 
HETATM   12  C   UNL     1     -43.486  57.861 -59.647  1.00  0.00     0.019 A 
HETATM   13  C   UNL     1     -42.291  57.954 -58.963  1.00  0.00     0.117 A 
HETATM   14  N   UNL     1     -42.173  57.767 -57.628  1.00  0.00    -0.262 NA
ENDBRANCH   1   9
BRANCH   1  15
HETATM   15  C   UNL     1     -43.582  55.873 -54.885  1.00  0.00     0.033 C 
HETATM   16  C   UNL     1     -43.439  55.633 -53.369  1.00  0.00     0.036 C 
HETATM   17  C   UNL     1     -42.083  55.135 -52.887  1.00  0.00     0.235 C 
HETATM   18  N   UNL     1     -41.575  53.987 -53.725  1.00  0.00    -0.067 N 
HETATM   19  H   UNL     1     -42.164  53.169 -53.509  1.00  0.00     0.280 HD
HETATM   20  C   UNL     1     -41.642  54.216 -55.209  1.00  0.00     0.235 C 
HETATM   21  C   UNL     1     -43.034  54.639 -55.630  1.00  0.00     0.036 C 
BRANCH  18  22
HETATM   22  C   UNL     1     -40.148  53.595 -53.346  1.00  0.00     0.278 C 
BRANCH  22  23
HETATM   23  C   UNL     1     -39.980  52.233 -52.744  1.00  0.00     0.028 A 
HETATM   24  C   UNL     1     -39.945  52.004 -51.363  1.00  0.00     0.045 A 
HETATM   25 CL   UNL     1     -40.040  53.316 -50.245  1.00  0.00    -0.084 Cl
HETATM   26  C   UNL     1     -39.813  50.708 -50.859  1.00  0.00     0.024 A 
HETATM   27  C   UNL     1     -39.717  49.621 -51.731  1.00  0.00     0.005 A 
HETATM   28  C   UNL     1     -39.747  49.833 -53.105  1.00  0.00     0.043 A 
HETATM   29  C   UNL     1     -39.880  51.127 -53.595  1.00  0.00     0.126 A 
HETATM   30  F   UNL     1     -39.903  51.315 -54.922  1.00  0.00    -0.205 F 
ENDBRANCH  22  23
ENDBRANCH  18  22
ENDBRANCH   1  15
BRANCH   5  31
HETATM   31  C   UNL     1     -43.079  60.058 -52.814  1.00  0.00     0.168 C 
BRANCH  31  32
HETATM   32  C   UNL     1     -43.135  59.528 -51.371  1.00  0.00     0.140 C 
HETATM   33  O   UNL     1     -44.476  59.657 -50.875  1.00  0.00    -0.384 OA
HETATM   34  C   UNL     1     -44.585  60.900 -50.158  1.00  0.00     0.168 C 
HETATM   35  C   UNL     1     -43.200  61.516 -50.096  1.00  0.00     0.029 C 
HETATM   36  C   UNL     1     -42.295  60.351 -50.411  1.00  0.00     0.036 C 
ENDBRANCH  31  32
ENDBRANCH   5  31
TORSDOF 6
ENDMDL
MODEL 3
REMARK VINA RESULT:      -8.5      1.260      1.506
REMARK  6 active torsions:
REMARK  status: ('A' for Active; 'I' for Inactive)
REMARK    1  A    between atoms: C_3  and  C_4 
REMARK    2  A    between atoms: C_4  and  C_5 
REMARK    3  A    between atoms: N_8  and  C_10 
REMARK    4  A    between atoms: C_10  and  C_11 
REMARK    5  A    between atoms: N_24  and  C_25 
REMARK    6  A    between atoms: C_25  and  C_26 
ROOT
HETATM    1  C   UNL     1     -42.804  59.385 -52.945  1.00  0.00     0.164 C 
HETATM    2  N   UNL     1     -43.902  58.436 -52.936  1.00  0.00    -0.319 N 
HETATM    3  C   UNL     1     -44.203  57.946 -54.185  1.00  0.00     0.326 C 
HETATM    4  O   UNL     1     -44.943  57.000 -54.381  1.00  0.00    -0.247 OA
HETATM    5  N   UNL     1     -43.461  58.630 -55.099  1.00  0.00    -0.265 N 
HETATM    6  C   UNL     1     -42.670  59.547 -54.471  1.00  0.00     0.263 C 
HETATM    7  O   UNL     1     -41.904  60.313 -55.044  1.00  0.00    -0.270 OA
HETATM    8  H   UNL     1     -44.367  58.089 -52.104  1.00  0.00     0.166 HD
ENDROOT
BRANCH   1   9
HETATM    9  C   UNL     1     -43.218  60.682 -52.246  1.00  0.00     0.072 A 
HETATM   10  C   UNL     1     -42.554  61.163 -51.114  1.00  0.00     0.030 A 
HETATM   11  C   UNL     1     -42.968  62.363 -50.538  1.00  0.00     0.003 A 
HETATM   12  C   UNL     1     -44.015  63.073 -51.109  1.00  0.00     0.019 A 
HETATM   13  C   UNL     1     -44.606  62.554 -52.244  1.00  0.00     0.117 A 
HETATM   14  N   UNL     1     -44.231  61.387 -52.818  1.00  0.00    -0.262 NA
ENDBRANCH   1   9
BRANCH   1  15
HETATM   15  C   UNL     1     -41.526  58.709 -52.296  1.00  0.00     0.033 C 
HETATM   16  C   UNL     1     -40.715  57.779 -53.220  1.00  0.00     0.036 C 
HETATM   17  C   UNL     1     -41.179  56.330 -53.298  1.00  0.00     0.235 C 
HETATM   18  N   UNL     1     -41.429  55.745 -51.929  1.00  0.00    -0.067 N 
HETATM   19  H   UNL     1     -40.510  55.625 -51.478  1.00  0.00     0.280 HD
HETATM   20  C   UNL     1     -42.271  56.601 -51.026  1.00  0.00     0.235 C 
HETATM   21  C   UNL     1     -41.715  58.007 -50.936  1.00  0.00     0.036 C 
BRANCH  18  22
HETATM   22  C   UNL     1     -42.046  54.350 -52.013  1.00  0.00     0.278 C 
BRANCH  22  23
HETATM   23  C   UNL     1     -41.154  53.268 -52.540  1.00  0.00     0.028 A 
HETATM   24  C   UNL     1     -41.199  52.817 -53.865  1.00  0.00     0.045 A 
HETATM   25 CL   UNL     1     -42.349  53.457 -54.982  1.00  0.00    -0.084 Cl
HETATM   26  C   UNL     1     -40.322  51.822 -54.309  1.00  0.00     0.024 A 
HETATM   27  C   UNL     1     -39.387  51.267 -53.432  1.00  0.00     0.005 A 
HETATM   28  C   UNL     1     -39.334  51.703 -52.113  1.00  0.00     0.043 A 
HETATM   29  C   UNL     1     -40.209  52.694 -51.683  1.00  0.00     0.126 A 
HETATM   30  F   UNL     1     -40.148  53.100 -50.407  1.00  0.00    -0.205 F 
ENDBRANCH  22  23
ENDBRANCH  18  22
ENDBRANCH   1  15
BRANCH   5  31
HETATM   31  C   UNL     1     -43.517  58.435 -56.541  1.00  0.00     0.168 C 
BRANCH  31  32
HETATM   32  C   UNL     1     -42.437  57.462 -57.043  1.00  0.00     0.140 C 
HETATM   33  O   UNL     1     -41.967  57.903 -58.326  1.00  0.00    -0.384 OA
HETATM   34  C   UNL     1     -42.708  57.217 -59.351  1.00  0.00     0.168 C 
HETATM   35  C   UNL     1     -43.600  56.198 -58.666  1.00  0.00     0.029 C 
HETATM   36  C   UNL     1     -42.978  56.066 -57.298  1.00  0.00     0.036 C 
ENDBRANCH  31  32
ENDBRANCH   5  31
TORSDOF 6
ENDMDL
MODEL 4
REMARK VINA RESULT:      -8.1      1.579      1.978
REMARK  6 active torsions:
REMARK  status: ('A' for Active; 'I' for Inactive)
REMARK    1  A    between atoms: C_3  and  C_4 
REMARK    2  A    between atoms: C_4  and  C_5 
REMARK    3  A    between atoms: N_8  and  C_10 
REMARK    4  A    between atoms: C_10  and  C_11 
REMARK    5  A    between atoms: N_24  and  C_25 
REMARK    6  A    between atoms: C_25  and  C_26 
ROOT
HETATM    1  C   UNL     1     -44.128  58.571 -53.403  1.00  0.00     0.164 C 
HETATM    2  N   UNL     1     -45.247  59.046 -54.196  1.00  0.00    -0.319 N 
HETATM    3  C   UNL     1     -44.930  59.229 -55.522  1.00  0.00     0.326 C 
HETATM    4  O   UNL     1     -45.756  59.425 -56.394  1.00  0.00    -0.247 OA
HETATM    5  N   UNL     1     -43.588  59.050 -55.666  1.00  0.00    -0.265 N 
HETATM    6  C   UNL     1     -43.023  58.739 -54.464  1.00  0.00     0.263 C 
HETATM    7  O   UNL     1     -41.828  58.534 -54.289  1.00  0.00    -0.270 OA
HETATM    8  H   UNL     1     -46.195  59.164 -53.856  1.00  0.00     0.166 HD
ENDROOT
BRANCH   1   9
HETATM    9  C   UNL     1     -43.920  59.473 -52.184  1.00  0.00     0.072 A 
HETATM   10  C   UNL     1     -42.664  59.979 -51.836  1.00  0.00     0.030 A 
HETATM   11  C   UNL     1     -42.548  60.813 -50.725  1.00  0.00     0.003 A 
HETATM   12  C   UNL     1     -43.681  61.149 -49.998  1.00  0.00     0.019 A 
HETATM   13  C   UNL     1     -44.893  60.638 -50.416  1.00  0.00     0.117 A 
HETATM   14  N   UNL     1     -45.035  59.818 -51.483  1.00  0.00    -0.262 NA
ENDBRANCH   1   9
BRANCH   1  15
HETATM   15  C   UNL     1     -44.369  57.053 -53.019  1.00  0.00     0.033 C 
HETATM   16  C   UNL     1     -43.699  56.574 -51.716  1.00  0.00     0.036 C 
HETATM   17  C   UNL     1     -42.258  56.093 -51.833  1.00  0.00     0.235 C 
HETATM   18  N   UNL     1     -42.076  55.136 -52.986  1.00  0.00    -0.067 N 
HETATM   19  H   UNL     1     -42.549  54.257 -52.729  1.00  0.00     0.280 HD
HETATM   20  C   UNL     1     -42.665  55.605 -54.288  1.00  0.00     0.235 C 
HETATM   21  C   UNL     1     -44.117  56.000 -54.116  1.00  0.00     0.036 C 
BRANCH  18  22
HETATM   22  C   UNL     1     -40.607  54.781 -53.203  1.00  0.00     0.278 C 
BRANCH  22  23
HETATM   23  C   UNL     1     -40.259  53.328 -53.091  1.00  0.00     0.028 A 
HETATM   24  C   UNL     1     -39.959  52.704 -51.875  1.00  0.00     0.045 A 
HETATM   25 CL   UNL     1     -39.916  53.605 -50.402  1.00  0.00    -0.084 Cl
HETATM   26  C   UNL     1     -39.668  51.338 -51.827  1.00  0.00     0.024 A 
HETATM   27  C   UNL     1     -39.677  50.576 -52.998  1.00  0.00     0.005 A 
HETATM   28  C   UNL     1     -39.971  51.184 -54.215  1.00  0.00     0.043 A 
HETATM   29  C   UNL     1     -40.260  52.543 -54.249  1.00  0.00     0.126 A 
HETATM   30  F   UNL     1     -40.536  53.114 -55.430  1.00  0.00    -0.205 F 
ENDBRANCH  22  23
ENDBRANCH  18  22
ENDBRANCH   1  15
BRANCH   5  31
HETATM   31  C   UNL     1     -42.851  59.194 -56.914  1.00  0.00     0.168 C 
BRANCH  31  32
HETATM   32  C   UNL     1     -42.407  57.840 -57.491  1.00  0.00     0.140 C 
HETATM   33  O   UNL     1     -41.825  58.049 -58.787  1.00  0.00    -0.384 OA
HETATM   34  C   UNL     1     -42.842  57.860 -59.787  1.00  0.00     0.168 C 
HETATM   35  C   UNL     1     -44.096  57.381 -59.079  1.00  0.00     0.029 C 
HETATM   36  C   UNL     1     -43.574  56.901 -57.748  1.00  0.00     0.036 C 
ENDBRANCH  31  32
ENDBRANCH   5  31
TORSDOF 6
ENDMDL
MODEL 5
REMARK VINA RESULT:      -8.1      2.976      7.152
REMARK  6 active torsions:
REMARK  status: ('A' for Active; 'I' for Inactive)
REMARK    1  A    between atoms: C_3  and  C_4 
REMARK    2  A    between atoms: C_4  and  C_5 
REMARK    3  A    between atoms: N_8  and  C_10 
REMARK    4  A    between atoms: C_10  and  C_11 
REMARK    5  A    between atoms: N_24  and  C_25 
REMARK    6  A    between atoms: C_25  and  C_26 
ROOT
HETATM    1  C   UNL     1     -41.934  56.405 -53.135  1.00  0.00     0.164 C 
HETATM    2  N   UNL     1     -41.071  57.517 -53.492  1.00  0.00    -0.319 N 
HETATM    3  C   UNL     1     -41.685  58.437 -54.309  1.00  0.00     0.326 C 
HETATM    4  O   UNL     1     -41.221  59.532 -54.563  1.00  0.00    -0.247 OA
HETATM    5  N   UNL     1     -42.899  57.938 -54.672  1.00  0.00    -0.265 N 
HETATM    6  C   UNL     1     -43.098  56.718 -54.094  1.00  0.00     0.263 C 
HETATM    7  O   UNL     1     -44.099  56.029 -54.252  1.00  0.00    -0.270 OA
HETATM    8  H   UNL     1     -40.137  57.670 -53.128  1.00  0.00     0.166 HD
ENDROOT
BRANCH   1   9
HETATM    9  C   UNL     1     -41.245  55.076 -53.453  1.00  0.00     0.072 A 
HETATM   10  C   UNL     1     -41.188  54.027 -52.531  1.00  0.00     0.030 A 
HETATM   11  C   UNL     1     -40.564  52.834 -52.893  1.00  0.00     0.003 A 
HETATM   12  C   UNL     1     -40.030  52.697 -54.166  1.00  0.00     0.019 A 
HETATM   13  C   UNL     1     -40.149  53.763 -55.036  1.00  0.00     0.117 A 
HETATM   14  N   UNL     1     -40.740  54.936 -54.709  1.00  0.00    -0.262 NA
ENDBRANCH   1   9
BRANCH   1  15
HETATM   15  C   UNL     1     -42.354  56.540 -51.613  1.00  0.00     0.033 C 
HETATM   16  C   UNL     1     -43.721  57.200 -51.349  1.00  0.00     0.036 C 
HETATM   17  C   UNL     1     -43.734  58.721 -51.265  1.00  0.00     0.235 C 
HETATM   18  N   UNL     1     -42.635  59.245 -50.374  1.00  0.00    -0.067 N 
HETATM   19  H   UNL     1     -42.887  59.000 -49.405  1.00  0.00     0.280 HD
HETATM   20  C   UNL     1     -41.275  58.666 -50.650  1.00  0.00     0.235 C 
HETATM   21  C   UNL     1     -41.319  57.152 -50.648  1.00  0.00     0.036 C 
BRANCH  18  22
HETATM   22  C   UNL     1     -42.546  60.769 -50.418  1.00  0.00     0.278 C 
BRANCH  22  23
HETATM   23  C   UNL     1     -43.852  61.501 -50.474  1.00  0.00     0.028 A 
HETATM   24  C   UNL     1     -44.382  62.034 -51.654  1.00  0.00     0.045 A 
HETATM   25 CL   UNL     1     -43.514  61.927 -53.143  1.00  0.00    -0.084 Cl
HETATM   26  C   UNL     1     -45.619  62.684 -51.650  1.00  0.00     0.024 A 
HETATM   27  C   UNL     1     -46.345  62.806 -50.463  1.00  0.00     0.005 A 
HETATM   28  C   UNL     1     -45.830  62.284 -49.282  1.00  0.00     0.043 A 
HETATM   29  C   UNL     1     -44.599  61.638 -49.298  1.00  0.00     0.126 A 
HETATM   30  F   UNL     1     -44.114  61.144 -48.151  1.00  0.00    -0.205 F 
ENDBRANCH  22  23
ENDBRANCH  18  22
ENDBRANCH   1  15
BRANCH   5  31
HETATM   31  C   UNL     1     -43.843  58.594 -55.565  1.00  0.00     0.168 C 
BRANCH  31  32
HETATM   32  C   UNL     1     -43.828  57.990 -56.979  1.00  0.00     0.140 C 
HETATM   33  O   UNL     1     -42.468  57.777 -57.386  1.00  0.00    -0.384 OA
HETATM   34  C   UNL     1     -42.027  58.920 -58.140  1.00  0.00     0.168 C 
HETATM   35  C   UNL     1     -43.222  59.838 -58.321  1.00  0.00     0.029 C 
HETATM   36  C   UNL     1     -44.393  58.934 -58.027  1.00  0.00     0.036 C 
ENDBRANCH  31  32
ENDBRANCH   5  31
TORSDOF 6
ENDMDL
MODEL 6
REMARK VINA RESULT:      -8.0      2.796      7.100
REMARK  6 active torsions:
REMARK  status: ('A' for Active; 'I' for Inactive)
REMARK    1  A    between atoms: C_3  and  C_4 
REMARK    2  A    between atoms: C_4  and  C_5 
REMARK    3  A    between atoms: N_8  and  C_10 
REMARK    4  A    between atoms: C_10  and  C_11 
REMARK    5  A    between atoms: N_24  and  C_25 
REMARK    6  A    between atoms: C_25  and  C_26 
ROOT
HETATM    1  C   UNL     1     -41.953  55.748 -52.986  1.00  0.00     0.164 C 
HETATM    2  N   UNL     1     -41.139  56.853 -53.460  1.00  0.00    -0.319 N 
HETATM    3  C   UNL     1     -41.748  57.587 -54.450  1.00  0.00     0.326 C 
HETATM    4  O   UNL     1     -41.339  58.662 -54.845  1.00  0.00    -0.247 OA
HETATM    5  N   UNL     1     -42.898  56.950 -54.804  1.00  0.00    -0.265 N 
HETATM    6  C   UNL     1     -43.061  55.821 -54.053  1.00  0.00     0.263 C 
HETATM    7  O   UNL     1     -44.002  55.044 -54.162  1.00  0.00    -0.270 OA
HETATM    8  H   UNL     1     -40.246  57.129 -53.067  1.00  0.00     0.166 HD
ENDROOT
BRANCH   1   9
HETATM    9  C   UNL     1     -41.160  54.441 -53.045  1.00  0.00     0.072 A 
HETATM   10  C   UNL     1     -40.840  53.710 -51.897  1.00  0.00     0.030 A 
HETATM   11  C   UNL     1     -40.133  52.515 -52.023  1.00  0.00     0.003 A 
HETATM   12  C   UNL     1     -39.779  52.057 -53.284  1.00  0.00     0.019 A 
HETATM   13  C   UNL     1     -40.153  52.814 -54.376  1.00  0.00     0.117 A 
HETATM   14  N   UNL     1     -40.830  53.982 -54.283  1.00  0.00    -0.262 NA
ENDBRANCH   1   9
BRANCH   1  15
HETATM   15  C   UNL     1     -42.492  56.084 -51.534  1.00  0.00     0.033 C 
HETATM   16  C   UNL     1     -43.750  56.973 -51.472  1.00  0.00     0.036 C 
HETATM   17  C   UNL     1     -43.517  58.478 -51.502  1.00  0.00     0.235 C 
HETATM   18  N   UNL     1     -42.438  58.900 -50.534  1.00  0.00    -0.067 N 
HETATM   19  H   UNL     1     -42.821  58.786 -49.584  1.00  0.00     0.280 HD
HETATM   20  C   UNL     1     -41.173  58.091 -50.615  1.00  0.00     0.235 C 
HETATM   21  C   UNL     1     -41.469  56.609 -50.507  1.00  0.00     0.036 C 
BRANCH  18  22
HETATM   22  C   UNL     1     -42.093  60.381 -50.680  1.00  0.00     0.278 C 
BRANCH  22  23
HETATM   23  C   UNL     1     -43.198  61.267 -51.168  1.00  0.00     0.028 A 
HETATM   24  C   UNL     1     -44.226  61.735 -50.341  1.00  0.00     0.045 A 
HETATM   25 CL   UNL     1     -44.315  61.262 -48.683  1.00  0.00    -0.084 Cl
HETATM   26  C   UNL     1     -45.216  62.582 -50.846  1.00  0.00     0.024 A 
HETATM   27  C   UNL     1     -45.189  62.975 -52.186  1.00  0.00     0.005 A 
HETATM   28  C   UNL     1     -44.175  62.515 -53.020  1.00  0.00     0.043 A 
HETATM   29  C   UNL     1     -43.195  61.675 -52.506  1.00  0.00     0.126 A 
HETATM   30  F   UNL     1     -42.228  61.236 -53.324  1.00  0.00    -0.205 F 
ENDBRANCH  22  23
ENDBRANCH  18  22
ENDBRANCH   1  15
BRANCH   5  31
HETATM   31  C   UNL     1     -43.814  57.388 -55.848  1.00  0.00     0.168 C 
BRANCH  31  32
HETATM   32  C   UNL     1     -45.124  57.957 -55.277  1.00  0.00     0.140 C 
HETATM   33  O   UNL     1     -46.058  58.153 -56.349  1.00  0.00    -0.384 OA
HETATM   34  C   UNL     1     -45.958  59.513 -56.807  1.00  0.00     0.168 C 
HETATM   35  C   UNL     1     -44.999  60.238 -55.881  1.00  0.00     0.029 C 
HETATM   36  C   UNL     1     -44.949  59.339 -54.671  1.00  0.00     0.036 C 
ENDBRANCH  31  32
ENDBRANCH   5  31
TORSDOF 6
ENDMDL
MODEL 7
REMARK VINA RESULT:      -8.0      2.953      6.592
REMARK  6 active torsions:
REMARK  status: ('A' for Active; 'I' for Inactive)
REMARK    1  A    between atoms: C_3  and  C_4 
REMARK    2  A    between atoms: C_4  and  C_5 
REMARK    3  A    between atoms: N_8  and  C_10 
REMARK    4  A    between atoms: C_10  and  C_11 
REMARK    5  A    between atoms: N_24  and  C_25 
REMARK    6  A    between atoms: C_25  and  C_26 
ROOT
HETATM    1  C   UNL     1     -42.433  55.540 -51.744  1.00  0.00     0.164 C 
HETATM    2  N   UNL     1     -43.807  55.770 -51.333  1.00  0.00    -0.319 N 
HETATM    3  C   UNL     1     -44.177  57.093 -51.403  1.00  0.00     0.326 C 
HETATM    4  O   UNL     1     -45.326  57.480 -51.300  1.00  0.00    -0.247 OA
HETATM    5  N   UNL     1     -43.071  57.828 -51.700  1.00  0.00    -0.265 N 
HETATM    6  C   UNL     1     -41.987  57.011 -51.841  1.00  0.00     0.263 C 
HETATM    7  O   UNL     1     -40.853  57.398 -52.097  1.00  0.00    -0.270 OA
HETATM    8  H   UNL     1     -44.473  55.045 -51.091  1.00  0.00     0.166 HD
ENDROOT
BRANCH   1   9
HETATM    9  C   UNL     1     -41.680  54.761 -50.664  1.00  0.00     0.072 A 
HETATM   10  C   UNL     1     -41.075  53.527 -50.920  1.00  0.00     0.030 A 
HETATM   11  C   UNL     1     -40.385  52.880 -49.896  1.00  0.00     0.003 A 
HETATM   12  C   UNL     1     -40.287  53.480 -48.648  1.00  0.00     0.019 A 
HETATM   13  C   UNL     1     -40.882  54.713 -48.475  1.00  0.00     0.117 A 
HETATM   14  N   UNL     1     -41.567  55.360 -49.447  1.00  0.00    -0.262 NA
ENDBRANCH   1   9
BRANCH   1  15
HETATM   15  C   UNL     1     -42.427  54.815 -53.153  1.00  0.00     0.033 C 
HETATM   16  C   UNL     1     -41.382  55.323 -54.167  1.00  0.00     0.036 C 
HETATM   17  C   UNL     1     -41.793  56.515 -55.022  1.00  0.00     0.235 C 
HETATM   18  N   UNL     1     -43.167  56.332 -55.619  1.00  0.00    -0.067 N 
HETATM   19  H   UNL     1     -43.090  55.600 -56.340  1.00  0.00     0.280 HD
HETATM   20  C   UNL     1     -44.223  55.898 -54.641  1.00  0.00     0.235 C 
HETATM   21  C   UNL     1     -43.781  54.667 -53.876  1.00  0.00     0.036 C 
BRANCH  18  22
HETATM   22  C   UNL     1     -43.644  57.591 -56.341  1.00  0.00     0.278 C 
BRANCH  22  23
HETATM   23  C   UNL     1     -43.066  57.825 -57.703  1.00  0.00     0.028 A 
HETATM   24  C   UNL     1     -42.423  59.014 -58.068  1.00  0.00     0.045 A 
HETATM   25 CL   UNL     1     -42.303  60.334 -56.962  1.00  0.00    -0.084 Cl
HETATM   26  C   UNL     1     -41.878  59.165 -59.347  1.00  0.00     0.024 A 
HETATM   27  C   UNL     1     -41.968  58.127 -60.277  1.00  0.00     0.005 A 
HETATM   28  C   UNL     1     -42.607  56.942 -59.928  1.00  0.00     0.043 A 
HETATM   29  C   UNL     1     -43.143  56.801 -58.654  1.00  0.00     0.126 A 
HETATM   30  F   UNL     1     -43.760  55.655 -58.336  1.00  0.00    -0.205 F 
ENDBRANCH  22  23
ENDBRANCH  18  22
ENDBRANCH   1  15
BRANCH   5  31
HETATM   31  C   UNL     1     -43.035  59.278 -51.825  1.00  0.00     0.168 C 
BRANCH  31  32
HETATM   32  C   UNL     1     -43.105  59.742 -53.290  1.00  0.00     0.140 C 
HETATM   33  O   UNL     1     -42.336  60.945 -53.440  1.00  0.00    -0.384 OA
HETATM   34  C   UNL     1     -43.214  62.076 -53.300  1.00  0.00     0.168 C 
HETATM   35  C   UNL     1     -44.631  61.543 -53.185  1.00  0.00     0.029 C 
HETATM   36  C   UNL     1     -44.510  60.136 -53.714  1.00  0.00     0.036 C 
ENDBRANCH  31  32
ENDBRANCH   5  31
TORSDOF 6
ENDMDL
MODEL 8
REMARK VINA RESULT:      -8.0      2.907      5.559
REMARK  6 active torsions:
REMARK  status: ('A' for Active; 'I' for Inactive)
REMARK    1  A    between atoms: C_3  and  C_4 
REMARK    2  A    between atoms: C_4  and  C_5 
REMARK    3  A    between atoms: N_8  and  C_10 
REMARK    4  A    between atoms: C_10  and  C_11 
REMARK    5  A    between atoms: N_24  and  C_25 
REMARK    6  A    between atoms: C_25  and  C_26 
ROOT
HETATM    1  C   UNL     1     -43.443  59.670 -52.787  1.00  0.00     0.164 C 
HETATM    2  N   UNL     1     -42.052  60.068 -52.908  1.00  0.00    -0.319 N 
HETATM    3  C   UNL     1     -41.194  59.002 -53.040  1.00  0.00     0.326 C 
HETATM    4  O   UNL     1     -40.024  59.109 -53.354  1.00  0.00    -0.247 OA
HETATM    5  N   UNL     1     -41.909  57.857 -52.862  1.00  0.00    -0.265 N 
HETATM    6  C   UNL     1     -43.221  58.154 -52.630  1.00  0.00     0.263 C 
HETATM    7  O   UNL     1     -44.096  57.321 -52.423  1.00  0.00    -0.270 OA
HETATM    8  H   UNL     1     -41.722  61.025 -52.972  1.00  0.00     0.166 HD
ENDROOT
BRANCH   1   9
HETATM    9  C   UNL     1     -44.071  60.308 -51.546  1.00  0.00     0.072 A 
HETATM   10  C   UNL     1     -43.313  60.676 -50.431  1.00  0.00     0.030 A 
HETATM   11  C   UNL     1     -43.946  61.273 -49.342  1.00  0.00     0.003 A 
HETATM   12  C   UNL     1     -45.311  61.515 -49.389  1.00  0.00     0.019 A 
HETATM   13  C   UNL     1     -45.993  61.153 -50.534  1.00  0.00     0.117 A 
HETATM   14  N   UNL     1     -45.407  60.563 -51.602  1.00  0.00    -0.262 NA
ENDBRANCH   1   9
BRANCH   1  15
HETATM   15  C   UNL     1     -44.206  60.033 -54.127  1.00  0.00     0.033 C 
HETATM   16  C   UNL     1     -45.023  58.892 -54.766  1.00  0.00     0.036 C 
HETATM   17  C   UNL     1     -44.265  57.958 -55.701  1.00  0.00     0.235 C 
HETATM   18  N   UNL     1     -43.422  58.720 -56.695  1.00  0.00    -0.067 N 
HETATM   19  H   UNL     1     -44.069  59.169 -57.360  1.00  0.00     0.280 HD
HETATM   20  C   UNL     1     -42.565  59.798 -56.094  1.00  0.00     0.235 C 
HETATM   21  C   UNL     1     -43.392  60.732 -55.234  1.00  0.00     0.036 C 
BRANCH  18  22
HETATM   22  C   UNL     1     -42.540  57.787 -57.524  1.00  0.00     0.278 C 
BRANCH  22  23
HETATM   23  C   UNL     1     -43.250  56.941 -58.536  1.00  0.00     0.028 A 
HETATM   24  C   UNL     1     -43.772  57.452 -59.731  1.00  0.00     0.045 A 
HETATM   25 CL   UNL     1     -43.674  59.137 -60.092  1.00  0.00    -0.084 Cl
HETATM   26  C   UNL     1     -44.401  56.609 -60.651  1.00  0.00     0.024 A 
HETATM   27  C   UNL     1     -44.515  55.241 -60.389  1.00  0.00     0.005 A 
HETATM   28  C   UNL     1     -44.004  54.721 -59.205  1.00  0.00     0.043 A 
HETATM   29  C   UNL     1     -43.379  55.568 -58.298  1.00  0.00     0.126 A 
HETATM   30  F   UNL     1     -42.897  55.052 -57.159  1.00  0.00    -0.205 F 
ENDBRANCH  22  23
ENDBRANCH  18  22
ENDBRANCH   1  15
BRANCH   5  31
HETATM   31  C   UNL     1     -41.358  56.510 -52.887  1.00  0.00     0.168 C 
BRANCH  31  32
HETATM   32  C   UNL     1     -41.565  55.817 -54.244  1.00  0.00     0.140 C 
HETATM   33  O   UNL     1     -42.574  54.806 -54.107  1.00  0.00    -0.384 OA
HETATM   34  C   UNL     1     -41.932  53.545 -53.843  1.00  0.00     0.168 C 
HETATM   35  C   UNL     1     -40.434  53.763 -53.951  1.00  0.00     0.029 C 
HETATM   36  C   UNL     1     -40.333  55.062 -54.712  1.00  0.00     0.036 C 
ENDBRANCH  31  32
ENDBRANCH   5  31
TORSDOF 6
ENDMDL
MODEL 9
REMARK VINA RESULT:      -7.9      2.983      7.678
REMARK  6 active torsions:
REMARK  status: ('A' for Active; 'I' for Inactive)
REMARK    1  A    between atoms: C_3  and  C_4 
REMARK    2  A    between atoms: C_4  and  C_5 
REMARK    3  A    between atoms: N_8  and  C_10 
REMARK    4  A    between atoms: C_10  and  C_11 
REMARK    5  A    between atoms: N_24  and  C_25 
REMARK    6  A    between atoms: C_25  and  C_26 
ROOT
HETATM    1  C   UNL     1     -42.112  54.409 -53.259  1.00  0.00     0.164 C 
HETATM    2  N   UNL     1     -42.832  54.567 -52.008  1.00  0.00    -0.319 N 
HETATM    3  C   UNL     1     -42.743  55.837 -51.489  1.00  0.00     0.326 C 
HETATM    4  O   UNL     1     -43.425  56.242 -50.567  1.00  0.00    -0.247 OA
HETATM    5  N   UNL     1     -41.858  56.543 -52.246  1.00  0.00    -0.265 N 
HETATM    6  C   UNL     1     -41.379  55.764 -53.259  1.00  0.00     0.263 C 
HETATM    7  O   UNL     1     -40.558  56.132 -54.091  1.00  0.00    -0.270 OA
HETATM    8  H   UNL     1     -43.415  53.857 -51.577  1.00  0.00     0.166 HD
ENDROOT
BRANCH   1   9
HETATM    9  C   UNL     1     -41.156  53.218 -53.174  1.00  0.00     0.072 A 
HETATM   10  C   UNL     1     -40.943  52.355 -54.253  1.00  0.00     0.030 A 
HETATM   11  C   UNL     1     -40.041  51.300 -54.116  1.00  0.00     0.003 A 
HETATM   12  C   UNL     1     -39.352  51.137 -52.923  1.00  0.00     0.019 A 
HETATM   13  C   UNL     1     -39.589  52.044 -51.910  1.00  0.00     0.117 A 
HETATM   14  N   UNL     1     -40.466  53.071 -52.011  1.00  0.00    -0.262 NA
ENDBRANCH   1   9
BRANCH   1  15
HETATM   15  C   UNL     1     -43.154  54.288 -54.447  1.00  0.00     0.033 C 
HETATM   16  C   UNL     1     -42.586  54.500 -55.864  1.00  0.00     0.036 C 
HETATM   17  C   UNL     1     -42.516  55.940 -56.357  1.00  0.00     0.235 C 
HETATM   18  N   UNL     1     -43.807  56.681 -56.113  1.00  0.00    -0.067 N 
HETATM   19  H   UNL     1     -44.507  56.293 -56.761  1.00  0.00     0.280 HD
HETATM   20  C   UNL     1     -44.354  56.546 -54.719  1.00  0.00     0.235 C 
HETATM   21  C   UNL     1     -44.465  55.089 -54.319  1.00  0.00     0.036 C 
BRANCH  18  22
HETATM   22  C   UNL     1     -43.683  58.165 -56.457  1.00  0.00     0.278 C 
BRANCH  22  23
HETATM   23  C   UNL     1     -43.889  58.523 -57.897  1.00  0.00     0.028 A 
HETATM   24  C   UNL     1     -45.149  58.562 -58.505  1.00  0.00     0.045 A 
HETATM   25 CL   UNL     1     -46.572  58.137 -57.623  1.00  0.00    -0.084 Cl
HETATM   26  C   UNL     1     -45.283  58.930 -59.847  1.00  0.00     0.024 A 
HETATM   27  C   UNL     1     -44.154  59.266 -60.599  1.00  0.00     0.005 A 
HETATM   28  C   UNL     1     -42.895  59.228 -60.009  1.00  0.00     0.043 A 
HETATM   29  C   UNL     1     -42.775  58.863 -58.673  1.00  0.00     0.126 A 
HETATM   30  F   UNL     1     -41.554  58.826 -58.122  1.00  0.00    -0.205 F 
ENDBRANCH  22  23
ENDBRANCH  18  22
ENDBRANCH   1  15
BRANCH   5  31
HETATM   31  C   UNL     1     -41.457  57.921 -52.002  1.00  0.00     0.168 C 
BRANCH  31  32
HETATM   32  C   UNL     1     -42.230  58.921 -52.878  1.00  0.00     0.140 C 
HETATM   33  O   UNL     1     -41.655  60.226 -52.723  1.00  0.00    -0.384 OA
HETATM   34  C   UNL     1     -42.385  60.935 -51.705  1.00  0.00     0.168 C 
HETATM   35  C   UNL     1     -43.560  60.067 -51.297  1.00  0.00     0.029 C 
HETATM   36  C   UNL     1     -43.675  59.089 -52.440  1.00  0.00     0.036 C 
ENDBRANCH  31  32
ENDBRANCH   5  31
TORSDOF 6
ENDMDL
MODEL 10
REMARK VINA RESULT:      -7.7      2.648      5.519
REMARK  6 active torsions:
REMARK  status: ('A' for Active; 'I' for Inactive)
REMARK    1  A    between atoms: C_3  and  C_4 
REMARK    2  A    between atoms: C_4  and  C_5 
REMARK    3  A    between atoms: N_8  and  C_10 
REMARK    4  A    between atoms: C_10  and  C_11 
REMARK    5  A    between atoms: N_24  and  C_25 
REMARK    6  A    between atoms: C_25  and  C_26 
ROOT
HETATM    1  C   UNL     1     -43.518  60.095 -52.400  1.00  0.00     0.164 C 
HETATM    2  N   UNL     1     -42.142  60.345 -52.790  1.00  0.00    -0.319 N 
HETATM    3  C   UNL     1     -41.353  59.219 -52.740  1.00  0.00     0.326 C 
HETATM    4  O   UNL     1     -40.234  59.156 -53.211  1.00  0.00    -0.247 OA
HETATM    5  N   UNL     1     -42.082  58.215 -52.180  1.00  0.00    -0.265 N 
HETATM    6  C   UNL     1     -43.338  58.657 -51.877  1.00  0.00     0.263 C 
HETATM    7  O   UNL     1     -44.208  57.972 -51.353  1.00  0.00    -0.270 OA
HETATM    8  H   UNL     1     -41.787  61.226 -53.143  1.00  0.00     0.166 HD
ENDROOT
BRANCH   1   9
HETATM    9  C   UNL     1     -43.946  61.074 -51.305  1.00  0.00     0.072 A 
HETATM   10  C   UNL     1     -43.052  61.974 -50.719  1.00  0.00     0.030 A 
HETATM   11  C   UNL     1     -43.512  62.855 -49.741  1.00  0.00     0.003 A 
HETATM   12  C   UNL     1     -44.851  62.841 -49.381  1.00  0.00     0.019 A 
HETATM   13  C   UNL     1     -45.685  61.946 -50.022  1.00  0.00     0.117 A 
HETATM   14  N   UNL     1     -45.264  61.073 -50.967  1.00  0.00    -0.262 NA
ENDBRANCH   1   9
BRANCH   1  15
HETATM   15  C   UNL     1     -44.443  60.157 -53.686  1.00  0.00     0.033 C 
HETATM   16  C   UNL     1     -45.005  58.808 -54.176  1.00  0.00     0.036 C 
HETATM   17  C   UNL     1     -44.115  58.006 -55.117  1.00  0.00     0.235 C 
HETATM   18  N   UNL     1     -43.556  58.860 -56.228  1.00  0.00    -0.067 N 
HETATM   19  H   UNL     1     -44.339  59.090 -56.858  1.00  0.00     0.280 HD
HETATM   20  C   UNL     1     -42.943  60.156 -55.774  1.00  0.00     0.235 C 
HETATM   21  C   UNL     1     -43.905  60.936 -54.903  1.00  0.00     0.036 C 
BRANCH  18  22
HETATM   22  C   UNL     1     -42.539  58.097 -57.074  1.00  0.00     0.278 C 
BRANCH  22  23
HETATM   23  C   UNL     1     -43.106  57.198 -58.130  1.00  0.00     0.028 A 
HETATM   24  C   UNL     1     -43.232  55.813 -57.971  1.00  0.00     0.045 A 
HETATM   25 CL   UNL     1     -42.676  55.032 -56.535  1.00  0.00    -0.084 Cl
HETATM   26  C   UNL     1     -43.795  55.028 -58.980  1.00  0.00     0.024 A 
HETATM   27  C   UNL     1     -44.242  55.620 -60.164  1.00  0.00     0.005 A 
HETATM   28  C   UNL     1     -44.121  56.994 -60.338  1.00  0.00     0.043 A 
HETATM   29  C   UNL     1     -43.561  57.765 -59.326  1.00  0.00     0.126 A 
HETATM   30  F   UNL     1     -43.446  59.088 -59.511  1.00  0.00    -0.205 F 
ENDBRANCH  22  23
ENDBRANCH  18  22
ENDBRANCH   1  15
BRANCH   5  31
HETATM   31  C   UNL     1     -41.593  56.869 -51.916  1.00  0.00     0.168 C 
BRANCH  31  32
HETATM   32  C   UNL     1     -41.947  55.885 -53.045  1.00  0.00     0.140 C 
HETATM   33  O   UNL     1     -43.125  55.153 -52.678  1.00  0.00    -0.384 OA
HETATM   34  C   UNL     1     -42.728  53.915 -52.062  1.00  0.00     0.168 C 
HETATM   35  C   UNL     1     -41.217  53.816 -52.168  1.00  0.00     0.029 C 
HETATM   36  C   UNL     1     -40.885  54.818 -53.246  1.00  0.00     0.036 C 
ENDBRANCH  31  32
ENDBRANCH   5  31
TORSDOF 6
ENDMDL
