MODEL 1
REMARK VINA RESULT:      -7.7      0.000      0.000
REMARK  5 active torsions:
REMARK  status: ('A' for Active; 'I' for Inactive)
REMARK    1  A    between atoms: C_2  and  O_3 
REMARK    2  A    between atoms: C_2  and  C_5 
REMARK    3  A    between atoms: C_7  and  N_8 
REMARK    4  A    between atoms: N_8  and  C_9 
REMARK    5  A    between atoms: C_9  and  C_10 
ROOT
HETATM    1  N   UNL     1     -41.700  55.155 -56.093  1.00  0.00    -0.289 NA
HETATM    2  H   UNL     1     -40.848  55.178 -56.653  1.00  0.00     0.128 HD
ENDROOT
BRANCH   1   3
HETATM    3  C   UNL     1     -41.440  54.571 -54.849  1.00  0.00     0.009 A 
HETATM    4  C   UNL     1     -40.625  53.426 -54.830  1.00  0.00     0.033 A 
HETATM    5  C   UNL     1     -40.338  52.730 -53.644  1.00  0.00    -0.028 A 
HETATM    6  C   UNL     1     -40.890  53.215 -52.449  1.00  0.00     0.010 A 
HETATM    7  C   UNL     1     -41.699  54.349 -52.446  1.00  0.00     0.002 A 
HETATM    8  C   UNL     1     -41.981  55.014 -53.640  1.00  0.00     0.023 A 
BRANCH   5   9
HETATM    9  C   UNL     1     -39.511  51.455 -53.600  1.00  0.00     0.149 C 
HETATM   10  C   UNL     1     -40.114  50.255 -54.330  1.00  0.00     0.045 C 
BRANCH   9  11
HETATM   11  O   UNL     1     -39.330  51.139 -52.214  1.00  0.00    -0.386 OA
HETATM   12  C   UNL     1     -39.564  49.773 -51.907  1.00  0.00     0.202 C 
ENDBRANCH   9  11
ENDBRANCH   5   9
ENDBRANCH   1   3
BRANCH   1  13
HETATM   13  C   UNL     1     -42.437  56.413 -56.184  1.00  0.00     0.133 C 
BRANCH  13  14
HETATM   14  C   UNL     1     -42.654  56.777 -57.637  1.00  0.00    -0.016 A 
HETATM   15  C   UNL     1     -43.377  55.988 -58.550  1.00  0.00     0.069 A 
HETATM   16  C   UNL     1     -43.599  56.335 -59.876  1.00  0.00     0.012 A 
HETATM   17  N   UNL     1     -43.999  54.773 -58.390  1.00  0.00    -0.277 N 
HETATM   18  C   UNL     1     -44.327  55.249 -60.410  1.00  0.00     0.152 A 
HETATM   19  C   UNL     1     -43.103  57.558 -60.355  1.00  0.00     0.015 A 
HETATM   20  N   UNL     1     -44.566  54.290 -59.511  1.00  0.00    -0.186 NA
HETATM   21  C   UNL     1     -42.406  58.390 -59.471  1.00  0.00     0.002 A 
HETATM   22  C   UNL     1     -42.190  58.008 -58.144  1.00  0.00     0.011 A 
HETATM   23  H   UNL     1     -44.038  54.230 -57.532  1.00  0.00     0.189 HD
ENDBRANCH  13  14
ENDBRANCH   1  13
TORSDOF 5
ENDMDL
MODEL 2
REMARK VINA RESULT:      -7.5      3.801      5.678
REMARK  5 active torsions:
REMARK  status: ('A' for Active; 'I' for Inactive)
REMARK    1  A    between atoms: C_2  and  O_3 
REMARK    2  A    between atoms: C_2  and  C_5 
REMARK    3  A    between atoms: C_7  and  N_8 
REMARK    4  A    between atoms: N_8  and  C_9 
REMARK    5  A    between atoms: C_9  and  C_10 
ROOT
HETATM    1  N   UNL     1     -43.557  54.316 -52.559  1.00  0.00    -0.289 NA
HETATM    2  H   UNL     1     -44.250  54.903 -53.024  1.00  0.00     0.128 HD
ENDROOT
BRANCH   1   3
HETATM    3  C   UNL     1     -42.464  54.104 -53.405  1.00  0.00     0.009 A 
HETATM    4  C   UNL     1     -41.611  53.028 -53.102  1.00  0.00     0.033 A 
HETATM    5  C   UNL     1     -40.457  52.752 -53.854  1.00  0.00    -0.028 A 
HETATM    6  C   UNL     1     -40.168  53.588 -54.944  1.00  0.00     0.010 A 
HETATM    7  C   UNL     1     -41.002  54.658 -55.262  1.00  0.00     0.002 A 
HETATM    8  C   UNL     1     -42.134  54.920 -54.490  1.00  0.00     0.023 A 
BRANCH   5   9
HETATM    9  C   UNL     1     -39.484  51.635 -53.515  1.00  0.00     0.149 C 
HETATM   10  C   UNL     1     -39.817  50.268 -54.114  1.00  0.00     0.045 C 
BRANCH   9  11
HETATM   11  O   UNL     1     -39.457  51.543 -52.085  1.00  0.00    -0.386 OA
HETATM   12  C   UNL     1     -39.480  50.209 -51.600  1.00  0.00     0.202 C 
ENDBRANCH   9  11
ENDBRANCH   5   9
ENDBRANCH   1   3
BRANCH   1  13
HETATM   13  C   UNL     1     -43.354  54.721 -51.171  1.00  0.00     0.133 C 
BRANCH  13  14
HETATM   14  C   UNL     1     -42.780  56.121 -51.122  1.00  0.00    -0.016 A 
HETATM   15  C   UNL     1     -43.455  57.268 -51.576  1.00  0.00     0.069 A 
HETATM   16  C   UNL     1     -42.939  58.556 -51.507  1.00  0.00     0.012 A 
HETATM   17  N   UNL     1     -44.692  57.411 -52.157  1.00  0.00    -0.277 N 
HETATM   18  C   UNL     1     -43.931  59.368 -52.100  1.00  0.00     0.152 A 
HETATM   19  C   UNL     1     -41.675  58.756 -50.929  1.00  0.00     0.015 A 
HETATM   20  N   UNL     1     -44.997  58.674 -52.506  1.00  0.00    -0.186 NA
HETATM   21  C   UNL     1     -40.982  57.645 -50.434  1.00  0.00     0.002 A 
HETATM   22  C   UNL     1     -41.524  56.360 -50.527  1.00  0.00     0.011 A 
HETATM   23  H   UNL     1     -45.350  56.661 -52.354  1.00  0.00     0.189 HD
ENDBRANCH  13  14
ENDBRANCH   1  13
TORSDOF 5
ENDMDL
MODEL 3
REMARK VINA RESULT:      -7.4      1.442      2.423
REMARK  5 active torsions:
REMARK  status: ('A' for Active; 'I' for Inactive)
REMARK    1  A    between atoms: C_2  and  O_3 
REMARK    2  A    between atoms: C_2  and  C_5 
REMARK    3  A    between atoms: C_7  and  N_8 
REMARK    4  A    between atoms: N_8  and  C_9 
REMARK    5  A    between atoms: C_9  and  C_10 
ROOT
HETATM    1  N   UNL     1     -41.447  55.086 -56.018  1.00  0.00    -0.289 NA
HETATM    2  H   UNL     1     -40.864  55.914 -56.146  1.00  0.00     0.128 HD
ENDROOT
BRANCH   1   3
HETATM    3  C   UNL     1     -41.220  54.530 -54.756  1.00  0.00     0.009 A 
HETATM    4  C   UNL     1     -40.483  53.334 -54.700  1.00  0.00     0.033 A 
HETATM    5  C   UNL     1     -40.238  52.661 -53.491  1.00  0.00    -0.028 A 
HETATM    6  C   UNL     1     -40.748  53.224 -52.312  1.00  0.00     0.010 A 
HETATM    7  C   UNL     1     -41.479  54.410 -52.345  1.00  0.00     0.002 A 
HETATM    8  C   UNL     1     -41.722  55.051 -53.561  1.00  0.00     0.023 A 
BRANCH   5   9
HETATM    9  C   UNL     1     -39.498  51.336 -53.405  1.00  0.00     0.149 C 
HETATM   10  C   UNL     1     -40.024  50.229 -54.319  1.00  0.00     0.045 C 
BRANCH   9  11
HETATM   11  O   UNL     1     -39.581  50.916 -52.037  1.00  0.00    -0.386 OA
HETATM   12  C   UNL     1     -39.620  49.505 -51.877  1.00  0.00     0.202 C 
ENDBRANCH   9  11
ENDBRANCH   5   9
ENDBRANCH   1   3
BRANCH   1  13
HETATM   13  C   UNL     1     -42.808  55.310 -56.498  1.00  0.00     0.133 C 
BRANCH  13  14
HETATM   14  C   UNL     1     -42.796  56.315 -57.630  1.00  0.00    -0.016 A 
HETATM   15  C   UNL     1     -42.455  57.671 -57.478  1.00  0.00     0.069 A 
HETATM   16  C   UNL     1     -42.418  58.587 -58.521  1.00  0.00     0.012 A 
HETATM   17  N   UNL     1     -42.101  58.388 -56.361  1.00  0.00    -0.277 N 
HETATM   18  C   UNL     1     -42.066  59.810 -57.907  1.00  0.00     0.152 A 
HETATM   19  C   UNL     1     -42.710  58.154 -59.824  1.00  0.00     0.015 A 
HETATM   20  N   UNL     1     -41.881  59.696 -56.589  1.00  0.00    -0.186 NA
HETATM   21  C   UNL     1     -43.023  56.804 -60.025  1.00  0.00     0.002 A 
HETATM   22  C   UNL     1     -43.061  55.908 -58.954  1.00  0.00     0.011 A 
HETATM   23  H   UNL     1     -42.022  58.021 -55.416  1.00  0.00     0.189 HD
ENDBRANCH  13  14
ENDBRANCH   1  13
TORSDOF 5
ENDMDL
MODEL 4
REMARK VINA RESULT:      -7.3      4.278      5.945
REMARK  5 active torsions:
REMARK  status: ('A' for Active; 'I' for Inactive)
REMARK    1  A    between atoms: C_2  and  O_3 
REMARK    2  A    between atoms: C_2  and  C_5 
REMARK    3  A    between atoms: C_7  and  N_8 
REMARK    4  A    between atoms: N_8  and  C_9 
REMARK    5  A    between atoms: C_9  and  C_10 
ROOT
HETATM    1  N   UNL     1     -41.691  55.194 -51.391  1.00  0.00    -0.289 NA
HETATM    2  H   UNL     1     -41.356  54.660 -50.589  1.00  0.00     0.128 HD
ENDROOT
BRANCH   1   3
HETATM    3  C   UNL     1     -41.214  54.628 -52.578  1.00  0.00     0.009 A 
HETATM    4  C   UNL     1     -40.682  53.329 -52.506  1.00  0.00     0.033 A 
HETATM    5  C   UNL     1     -40.130  52.683 -53.625  1.00  0.00    -0.028 A 
HETATM    6  C   UNL     1     -40.127  53.373 -54.846  1.00  0.00     0.010 A 
HETATM    7  C   UNL     1     -40.651  54.661 -54.939  1.00  0.00     0.002 A 
HETATM    8  C   UNL     1     -41.180  55.287 -53.809  1.00  0.00     0.023 A 
BRANCH   5   9
HETATM    9  C   UNL     1     -39.493  51.304 -53.566  1.00  0.00     0.149 C 
HETATM   10  C   UNL     1     -40.217  50.211 -54.353  1.00  0.00     0.045 C 
BRANCH   9  11
HETATM   11  O   UNL     1     -39.436  50.945 -52.179  1.00  0.00    -0.386 OA
HETATM   12  C   UNL     1     -39.641  49.561 -51.941  1.00  0.00     0.202 C 
ENDBRANCH   9  11
ENDBRANCH   5   9
ENDBRANCH   1   3
BRANCH   1  13
HETATM   13  C   UNL     1     -43.101  55.546 -51.250  1.00  0.00     0.133 C 
BRANCH  13  14
HETATM   14  C   UNL     1     -43.303  57.008 -51.588  1.00  0.00    -0.016 A 
HETATM   15  C   UNL     1     -42.484  58.049 -51.114  1.00  0.00     0.069 A 
HETATM   16  C   UNL     1     -42.653  59.387 -51.446  1.00  0.00     0.012 A 
HETATM   17  N   UNL     1     -41.398  58.024 -50.272  1.00  0.00    -0.277 N 
HETATM   18  C   UNL     1     -41.642  60.061 -50.725  1.00  0.00     0.152 A 
HETATM   19  C   UNL     1     -43.682  59.748 -52.328  1.00  0.00     0.015 A 
HETATM   20  N   UNL     1     -40.881  59.237 -50.001  1.00  0.00    -0.186 NA
HETATM   21  C   UNL     1     -44.501  58.739 -52.850  1.00  0.00     0.002 A 
HETATM   22  C   UNL     1     -44.312  57.402 -52.490  1.00  0.00     0.011 A 
HETATM   23  H   UNL     1     -40.994  57.196 -49.842  1.00  0.00     0.189 HD
ENDBRANCH  13  14
ENDBRANCH   1  13
TORSDOF 5
ENDMDL
MODEL 5
REMARK VINA RESULT:      -7.1      1.432      2.545
REMARK  5 active torsions:
REMARK  status: ('A' for Active; 'I' for Inactive)
REMARK    1  A    between atoms: C_2  and  O_3 
REMARK    2  A    between atoms: C_2  and  C_5 
REMARK    3  A    between atoms: C_7  and  N_8 
REMARK    4  A    between atoms: N_8  and  C_9 
REMARK    5  A    between atoms: C_9  and  C_10 
ROOT
HETATM    1  N   UNL     1     -41.511  55.602 -55.776  1.00  0.00    -0.289 NA
HETATM    2  H   UNL     1     -41.151  56.506 -55.471  1.00  0.00     0.128 HD
ENDROOT
BRANCH   1   3
HETATM    3  C   UNL     1     -41.159  54.610 -54.856  1.00  0.00     0.009 A 
HETATM    4  C   UNL     1     -41.716  54.695 -53.569  1.00  0.00     0.033 A 
HETATM    5  C   UNL     1     -41.394  53.782 -52.551  1.00  0.00    -0.028 A 
HETATM    6  C   UNL     1     -40.489  52.754 -52.854  1.00  0.00     0.010 A 
HETATM    7  C   UNL     1     -39.927  52.651 -54.124  1.00  0.00     0.002 A 
HETATM    8  C   UNL     1     -40.252  53.580 -55.114  1.00  0.00     0.023 A 
BRANCH   5   9
HETATM    9  C   UNL     1     -41.933  53.884 -51.133  1.00  0.00     0.149 C 
HETATM   10  C   UNL     1     -43.362  54.412 -51.009  1.00  0.00     0.045 C 
BRANCH   9  11
HETATM   11  O   UNL     1     -41.035  54.745 -50.421  1.00  0.00    -0.386 OA
HETATM   12  C   UNL     1     -40.992  54.493 -49.025  1.00  0.00     0.202 C 
ENDBRANCH   9  11
ENDBRANCH   5   9
ENDBRANCH   1   3
BRANCH   1  13
HETATM   13  C   UNL     1     -42.883  55.709 -56.265  1.00  0.00     0.133 C 
BRANCH  13  14
HETATM   14  C   UNL     1     -42.891  56.336 -57.643  1.00  0.00    -0.016 A 
HETATM   15  C   UNL     1     -43.600  55.819 -58.743  1.00  0.00     0.069 A 
HETATM   16  C   UNL     1     -43.628  56.409 -59.999  1.00  0.00     0.012 A 
HETATM   17  N   UNL     1     -44.381  54.695 -58.858  1.00  0.00    -0.277 N 
HETATM   18  C   UNL     1     -44.421  55.540 -60.781  1.00  0.00     0.152 A 
HETATM   19  C   UNL     1     -42.934  57.611 -60.207  1.00  0.00     0.015 A 
HETATM   20  N   UNL     1     -44.875  54.489 -60.093  1.00  0.00    -0.186 NA
HETATM   21  C   UNL     1     -42.242  58.179 -59.130  1.00  0.00     0.002 A 
HETATM   22  C   UNL     1     -42.225  57.556 -57.879  1.00  0.00     0.011 A 
HETATM   23  H   UNL     1     -44.582  54.028 -58.117  1.00  0.00     0.189 HD
ENDBRANCH  13  14
ENDBRANCH   1  13
TORSDOF 5
ENDMDL
MODEL 6
REMARK VINA RESULT:      -7.1      4.521      7.751
REMARK  5 active torsions:
REMARK  status: ('A' for Active; 'I' for Inactive)
REMARK    1  A    between atoms: C_2  and  O_3 
REMARK    2  A    between atoms: C_2  and  C_5 
REMARK    3  A    between atoms: C_7  and  N_8 
REMARK    4  A    between atoms: N_8  and  C_9 
REMARK    5  A    between atoms: C_9  and  C_10 
ROOT
HETATM    1  N   UNL     1     -41.790  53.741 -54.042  1.00  0.00    -0.289 NA
HETATM    2  H   UNL     1     -42.343  52.887 -53.974  1.00  0.00     0.128 HD
ENDROOT
BRANCH   1   3
HETATM    3  C   UNL     1     -42.201  54.657 -53.068  1.00  0.00     0.009 A 
HETATM    4  C   UNL     1     -41.531  55.891 -53.018  1.00  0.00     0.033 A 
HETATM    5  C   UNL     1     -41.827  56.865 -52.050  1.00  0.00    -0.028 A 
HETATM    6  C   UNL     1     -42.833  56.578 -51.116  1.00  0.00     0.010 A 
HETATM    7  C   UNL     1     -43.511  55.361 -51.150  1.00  0.00     0.002 A 
HETATM    8  C   UNL     1     -43.187  54.404 -52.113  1.00  0.00     0.023 A 
BRANCH   5   9
HETATM    9  C   UNL     1     -41.078  58.183 -51.932  1.00  0.00     0.149 C 
HETATM   10  C   UNL     1     -40.717  58.610 -50.509  1.00  0.00     0.045 C 
BRANCH   9  11
HETATM   11  O   UNL     1     -41.915  59.177 -52.538  1.00  0.00    -0.386 OA
HETATM   12  C   UNL     1     -41.506  59.542 -53.848  1.00  0.00     0.202 C 
ENDBRANCH   9  11
ENDBRANCH   5   9
ENDBRANCH   1   3
BRANCH   1  13
HETATM   13  C   UNL     1     -40.372  53.449 -54.237  1.00  0.00     0.133 C 
BRANCH  13  14
HETATM   14  C   UNL     1     -40.054  52.068 -53.704  1.00  0.00    -0.016 A 
HETATM   15  C   UNL     1     -40.085  51.721 -52.341  1.00  0.00     0.069 A 
HETATM   16  C   UNL     1     -39.819  50.448 -51.854  1.00  0.00     0.012 A 
HETATM   17  N   UNL     1     -40.361  52.479 -51.228  1.00  0.00    -0.277 N 
HETATM   18  C   UNL     1     -39.932  50.574 -50.451  1.00  0.00     0.152 A 
HETATM   19  C   UNL     1     -39.523  49.417 -52.759  1.00  0.00     0.015 A 
HETATM   20  N   UNL     1     -40.253  51.811 -50.064  1.00  0.00    -0.186 NA
HETATM   21  C   UNL     1     -39.513  49.712 -54.128  1.00  0.00     0.002 A 
HETATM   22  C   UNL     1     -39.776  51.005 -54.587  1.00  0.00     0.011 A 
HETATM   23  H   UNL     1     -40.604  53.466 -51.222  1.00  0.00     0.189 HD
ENDBRANCH  13  14
ENDBRANCH   1  13
TORSDOF 5
ENDMDL
MODEL 7
REMARK VINA RESULT:      -7.0      2.243      3.458
REMARK  5 active torsions:
REMARK  status: ('A' for Active; 'I' for Inactive)
REMARK    1  A    between atoms: C_2  and  O_3 
REMARK    2  A    between atoms: C_2  and  C_5 
REMARK    3  A    between atoms: C_7  and  N_8 
REMARK    4  A    between atoms: N_8  and  C_9 
REMARK    5  A    between atoms: C_9  and  C_10 
ROOT
HETATM    1  N   UNL     1     -42.158  56.254 -54.577  1.00  0.00    -0.289 NA
HETATM    2  H   UNL     1     -42.320  56.842 -53.759  1.00  0.00     0.128 HD
ENDROOT
BRANCH   1   3
HETATM    3  C   UNL     1     -41.501  55.078 -54.199  1.00  0.00     0.009 A 
HETATM    4  C   UNL     1     -41.358  54.832 -52.823  1.00  0.00     0.033 A 
HETATM    5  C   UNL     1     -40.673  53.708 -52.331  1.00  0.00    -0.028 A 
HETATM    6  C   UNL     1     -40.128  52.812 -53.262  1.00  0.00     0.010 A 
HETATM    7  C   UNL     1     -40.260  53.037 -54.630  1.00  0.00     0.002 A 
HETATM    8  C   UNL     1     -40.933  54.169 -55.094  1.00  0.00     0.023 A 
BRANCH   5   9
HETATM    9  C   UNL     1     -40.449  53.446 -50.850  1.00  0.00     0.149 C 
HETATM   10  C   UNL     1     -40.266  51.979 -50.462  1.00  0.00     0.045 C 
BRANCH   9  11
HETATM   11  O   UNL     1     -41.587  53.989 -50.168  1.00  0.00    -0.386 OA
HETATM   12  C   UNL     1     -41.248  54.795 -49.049  1.00  0.00     0.202 C 
ENDBRANCH   9  11
ENDBRANCH   5   9
ENDBRANCH   1   3
BRANCH   1  13
HETATM   13  C   UNL     1     -43.333  56.203 -55.443  1.00  0.00     0.133 C 
BRANCH  13  14
HETATM   14  C   UNL     1     -42.981  56.730 -56.818  1.00  0.00    -0.016 A 
HETATM   15  C   UNL     1     -42.442  58.007 -57.061  1.00  0.00     0.069 A 
HETATM   16  C   UNL     1     -42.094  58.480 -58.319  1.00  0.00     0.012 A 
HETATM   17  N   UNL     1     -42.143  59.033 -56.198  1.00  0.00    -0.277 N 
HETATM   18  C   UNL     1     -41.637  59.796 -58.089  1.00  0.00     0.152 A 
HETATM   19  C   UNL     1     -42.257  57.643 -59.434  1.00  0.00     0.015 A 
HETATM   20  N   UNL     1     -41.673  60.142 -56.799  1.00  0.00    -0.186 NA
HETATM   21  C   UNL     1     -42.760  56.352 -59.233  1.00  0.00     0.002 A 
HETATM   22  C   UNL     1     -43.110  55.907 -57.955  1.00  0.00     0.011 A 
HETATM   23  H   UNL     1     -42.270  59.023 -55.190  1.00  0.00     0.189 HD
ENDBRANCH  13  14
ENDBRANCH   1  13
TORSDOF 5
ENDMDL
MODEL 8
REMARK VINA RESULT:      -6.9      3.435      7.452
REMARK  5 active torsions:
REMARK  status: ('A' for Active; 'I' for Inactive)
REMARK    1  A    between atoms: C_2  and  O_3 
REMARK    2  A    between atoms: C_2  and  C_5 
REMARK    3  A    between atoms: C_7  and  N_8 
REMARK    4  A    between atoms: N_8  and  C_9 
REMARK    5  A    between atoms: C_9  and  C_10 
ROOT
HETATM    1  N   UNL     1     -41.186  54.872 -55.352  1.00  0.00    -0.289 NA
HETATM    2  H   UNL     1     -41.128  54.746 -56.363  1.00  0.00     0.128 HD
ENDROOT
BRANCH   1   3
HETATM    3  C   UNL     1     -41.454  56.211 -55.050  1.00  0.00     0.009 A 
HETATM    4  C   UNL     1     -40.875  56.740 -53.884  1.00  0.00     0.033 A 
HETATM    5  C   UNL     1     -41.116  58.057 -53.458  1.00  0.00    -0.028 A 
HETATM    6  C   UNL     1     -41.962  58.855 -54.242  1.00  0.00     0.010 A 
HETATM    7  C   UNL     1     -42.545  58.351 -55.403  1.00  0.00     0.002 A 
HETATM    8  C   UNL     1     -42.301  57.034 -55.796  1.00  0.00     0.023 A 
BRANCH   5   9
HETATM    9  C   UNL     1     -40.553  58.637 -52.171  1.00  0.00     0.149 C 
HETATM   10  C   UNL     1     -40.792  57.800 -50.913  1.00  0.00     0.045 C 
BRANCH   9  11
HETATM   11  O   UNL     1     -41.154  59.929 -52.014  1.00  0.00    -0.386 OA
HETATM   12  C   UNL     1     -41.690  60.154 -50.719  1.00  0.00     0.202 C 
ENDBRANCH   9  11
ENDBRANCH   5   9
ENDBRANCH   1   3
BRANCH   1  13
HETATM   13  C   UNL     1     -41.950  53.800 -54.720  1.00  0.00     0.133 C 
BRANCH  13  14
HETATM   14  C   UNL     1     -41.049  52.994 -53.810  1.00  0.00    -0.016 A 
HETATM   15  C   UNL     1     -40.900  53.233 -52.431  1.00  0.00     0.069 A 
HETATM   16  C   UNL     1     -40.094  52.476 -51.591  1.00  0.00     0.012 A 
HETATM   17  N   UNL     1     -41.461  54.191 -51.622  1.00  0.00    -0.277 N 
HETATM   18  C   UNL     1     -40.226  53.091 -50.326  1.00  0.00     0.152 A 
HETATM   19  C   UNL     1     -39.392  51.382 -52.119  1.00  0.00     0.015 A 
HETATM   20  N   UNL     1     -41.050  54.142 -50.341  1.00  0.00    -0.186 NA
HETATM   21  C   UNL     1     -39.536  51.088 -53.480  1.00  0.00     0.002 A 
HETATM   22  C   UNL     1     -40.348  51.874 -54.303  1.00  0.00     0.011 A 
HETATM   23  H   UNL     1     -42.112  54.914 -51.914  1.00  0.00     0.189 HD
ENDBRANCH  13  14
ENDBRANCH   1  13
TORSDOF 5
ENDMDL
MODEL 9
REMARK VINA RESULT:      -6.9      3.009      7.720
REMARK  5 active torsions:
REMARK  status: ('A' for Active; 'I' for Inactive)
REMARK    1  A    between atoms: C_2  and  O_3 
REMARK    2  A    between atoms: C_2  and  C_5 
REMARK    3  A    between atoms: C_7  and  N_8 
REMARK    4  A    between atoms: N_8  and  C_9 
REMARK    5  A    between atoms: C_9  and  C_10 
ROOT
HETATM    1  N   UNL     1     -42.051  54.104 -55.234  1.00  0.00    -0.289 NA
HETATM    2  H   UNL     1     -42.530  54.032 -54.336  1.00  0.00     0.128 HD
ENDROOT
BRANCH   1   3
HETATM    3  C   UNL     1     -42.440  55.275 -55.892  1.00  0.00     0.009 A 
HETATM    4  C   UNL     1     -42.857  55.156 -57.229  1.00  0.00     0.033 A 
HETATM    5  C   UNL     1     -43.222  56.272 -58.002  1.00  0.00    -0.028 A 
HETATM    6  C   UNL     1     -43.169  57.536 -57.396  1.00  0.00     0.010 A 
HETATM    7  C   UNL     1     -42.761  57.674 -56.071  1.00  0.00     0.002 A 
HETATM    8  C   UNL     1     -42.388  56.552 -55.329  1.00  0.00     0.023 A 
BRANCH   5   9
HETATM    9  C   UNL     1     -43.618  56.182 -59.467  1.00  0.00     0.149 C 
HETATM   10  C   UNL     1     -43.629  57.509 -60.227  1.00  0.00     0.045 C 
BRANCH   9  11
HETATM   11  O   UNL     1     -44.926  55.597 -59.496  1.00  0.00    -0.386 OA
HETATM   12  C   UNL     1     -45.111  54.670 -60.555  1.00  0.00     0.202 C 
ENDBRANCH   9  11
ENDBRANCH   5   9
ENDBRANCH   1   3
BRANCH   1  13
HETATM   13  C   UNL     1     -40.639  53.751 -55.119  1.00  0.00     0.133 C 
BRANCH  13  14
HETATM   14  C   UNL     1     -40.396  53.023 -53.814  1.00  0.00    -0.016 A 
HETATM   15  C   UNL     1     -40.026  51.668 -53.722  1.00  0.00     0.069 A 
HETATM   16  C   UNL     1     -39.777  51.008 -52.526  1.00  0.00     0.012 A 
HETATM   17  N   UNL     1     -39.831  50.723 -54.700  1.00  0.00    -0.277 N 
HETATM   18  C   UNL     1     -39.479  49.681 -52.909  1.00  0.00     0.152 A 
HETATM   19  C   UNL     1     -39.868  51.719 -51.319  1.00  0.00     0.015 A 
HETATM   20  N   UNL     1     -39.519  49.500 -54.232  1.00  0.00    -0.186 NA
HETATM   21  C   UNL     1     -40.201  53.078 -51.367  1.00  0.00     0.002 A 
HETATM   22  C   UNL     1     -40.455  53.713 -52.586  1.00  0.00     0.011 A 
HETATM   23  H   UNL     1     -39.925  50.871 -55.701  1.00  0.00     0.189 HD
ENDBRANCH  13  14
ENDBRANCH   1  13
TORSDOF 5
ENDMDL
MODEL 10
REMARK VINA RESULT:      -6.9      2.776      7.782
REMARK  5 active torsions:
REMARK  status: ('A' for Active; 'I' for Inactive)
REMARK    1  A    between atoms: C_2  and  O_3 
REMARK    2  A    between atoms: C_2  and  C_5 
REMARK    3  A    between atoms: C_7  and  N_8 
REMARK    4  A    between atoms: N_8  and  C_9 
REMARK    5  A    between atoms: C_9  and  C_10 
ROOT
HETATM    1  N   UNL     1     -42.010  54.389 -55.271  1.00  0.00    -0.289 NA
HETATM    2  H   UNL     1     -42.387  54.446 -54.325  1.00  0.00     0.128 HD
ENDROOT
BRANCH   1   3
HETATM    3  C   UNL     1     -42.344  55.540 -55.991  1.00  0.00     0.009 A 
HETATM    4  C   UNL     1     -42.817  55.367 -57.304  1.00  0.00     0.033 A 
HETATM    5  C   UNL     1     -43.136  56.454 -58.135  1.00  0.00    -0.028 A 
HETATM    6  C   UNL     1     -42.976  57.747 -57.614  1.00  0.00     0.010 A 
HETATM    7  C   UNL     1     -42.511  57.940 -56.315  1.00  0.00     0.002 A 
HETATM    8  C   UNL     1     -42.186  56.843 -55.515  1.00  0.00     0.023 A 
BRANCH   5   9
HETATM    9  C   UNL     1     -43.591  56.301 -59.577  1.00  0.00     0.149 C 
HETATM   10  C   UNL     1     -44.188  57.555 -60.215  1.00  0.00     0.045 C 
BRANCH   9  11
HETATM   11  O   UNL     1     -44.560  55.245 -59.584  1.00  0.00    -0.386 OA
HETATM   12  C   UNL     1     -44.977  54.864 -60.887  1.00  0.00     0.202 C 
ENDBRANCH   9  11
ENDBRANCH   5   9
ENDBRANCH   1   3
BRANCH   1  13
HETATM   13  C   UNL     1     -40.640  53.883 -55.273  1.00  0.00     0.133 C 
BRANCH  13  14
HETATM   14  C   UNL     1     -40.331  53.229 -53.943  1.00  0.00    -0.016 A 
HETATM   15  C   UNL     1     -40.580  53.825 -52.693  1.00  0.00     0.069 A 
HETATM   16  C   UNL     1     -40.322  53.214 -51.473  1.00  0.00     0.012 A 
HETATM   17  N   UNL     1     -41.097  55.057 -52.374  1.00  0.00    -0.277 N 
HETATM   18  C   UNL     1     -40.689  54.179 -50.509  1.00  0.00     0.152 A 
HETATM   19  C   UNL     1     -39.804  51.910 -51.457  1.00  0.00     0.015 A 
HETATM   20  N   UNL     1     -41.153  55.308 -51.052  1.00  0.00    -0.186 NA
HETATM   21  C   UNL     1     -39.572  51.267 -52.679  1.00  0.00     0.002 A 
HETATM   22  C   UNL     1     -39.833  51.911 -53.891  1.00  0.00     0.011 A 
HETATM   23  H   UNL     1     -41.401  55.767 -53.034  1.00  0.00     0.189 HD
ENDBRANCH  13  14
ENDBRANCH   1  13
TORSDOF 5
ENDMDL
