MODEL 1
REMARK VINA RESULT:      -8.3      0.000      0.000
REMARK  4 active torsions:
REMARK  status: ('A' for Active; 'I' for Inactive)
REMARK    1  A    between atoms: C_5  and  C_6 
REMARK    2  A    between atoms: C_6  and  N_7 
REMARK    3  A    between atoms: C_17  and  C_18 
REMARK    4  A    between atoms: C_27  and  C_28 
ROOT
HETATM    1  N   UNL     1     -43.701  57.588 -51.642  1.00  0.00    -0.067 N 
HETATM    2  H   UNL     1     -44.146  58.378 -51.153  1.00  0.00     0.280 HD
HETATM    3  C   UNL     1     -44.000  56.351 -50.843  1.00  0.00     0.236 C 
HETATM    4  C   UNL     1     -43.191  55.150 -51.332  1.00  0.00     0.039 C 
HETATM    5  C   UNL     1     -41.659  55.388 -51.441  1.00  0.00    -0.013 C 
HETATM    6  C   UNL     1     -40.956  55.436 -50.054  1.00  0.00     0.244 C 
HETATM    7  N   UNL     1     -40.931  54.087 -49.376  1.00  0.00    -0.073 N 
HETATM    8  H   UNL     1     -41.887  53.758 -49.188  1.00  0.00     0.279 HD
HETATM    9  C   UNL     1     -40.267  54.161 -48.014  1.00  0.00     0.269 C 
HETATM   10  C   UNL     1     -40.261  53.011 -50.220  1.00  0.00     0.243 C 
HETATM   11  C   UNL     1     -40.988  52.893 -51.564  1.00  0.00     0.045 C 
HETATM   12  C   UNL     1     -41.008  54.253 -52.285  1.00  0.00     0.022 C 
HETATM   13  C   UNL     1     -41.427  56.729 -52.200  1.00  0.00     0.039 C 
HETATM   14  C   UNL     1     -42.233  57.913 -51.666  1.00  0.00     0.236 C 
ENDROOT
BRANCH  11  15
HETATM   15  C   UNL     1     -40.382  51.798 -52.415  1.00  0.00    -0.052 A 
HETATM   16  C   UNL     1     -40.392  51.924 -53.814  1.00  0.00     0.007 A 
HETATM   17  C   UNL     1     -39.859  50.922 -54.625  1.00  0.00     0.001 A 
HETATM   18  C   UNL     1     -39.308  49.780 -54.052  1.00  0.00     0.000 A 
HETATM   19  C   UNL     1     -39.287  49.639 -52.667  1.00  0.00     0.001 A 
HETATM   20  C   UNL     1     -39.820  50.641 -51.851  1.00  0.00     0.007 A 
ENDBRANCH  11  15
BRANCH   1  21
HETATM   21  C   UNL     1     -44.349  57.646 -53.030  1.00  0.00     0.277 C 
BRANCH  21  22
HETATM   22  C   UNL     1     -43.626  58.407 -54.083  1.00  0.00     0.011 A 
HETATM   23  C   UNL     1     -43.231  59.769 -54.042  1.00  0.00     0.149 A 
HETATM   24  N   UNL     1     -42.652  60.183 -55.160  1.00  0.00    -0.185 NA
HETATM   25  N   UNL     1     -42.592  59.082 -55.923  1.00  0.00    -0.278 N 
HETATM   26  C   UNL     1     -41.972  59.159 -57.228  1.00  0.00     0.179 C 
HETATM   27  C   UNL     1     -43.131  57.972 -55.309  1.00  0.00     0.043 A 
BRANCH  27  28
HETATM   28  C   UNL     1     -43.095  56.580 -55.942  1.00  0.00     0.038 A 
HETATM   29  C   UNL     1     -41.927  55.665 -55.645  1.00  0.00     0.011 A 
HETATM   30  C   UNL     1     -43.286  55.317 -55.139  1.00  0.00     0.011 A 
ENDBRANCH  27  28
ENDBRANCH  21  22
ENDBRANCH   1  21
TORSDOF 4
ENDMDL
MODEL 2
REMARK VINA RESULT:      -8.2      1.926      7.353
REMARK  4 active torsions:
REMARK  status: ('A' for Active; 'I' for Inactive)
REMARK    1  A    between atoms: C_5  and  C_6 
REMARK    2  A    between atoms: C_6  and  N_7 
REMARK    3  A    between atoms: C_17  and  C_18 
REMARK    4  A    between atoms: C_27  and  C_28 
ROOT
HETATM    1  N   UNL     1     -41.325  55.145 -51.273  1.00  0.00    -0.067 N 
HETATM    2  H   UNL     1     -41.354  55.124 -50.243  1.00  0.00     0.280 HD
HETATM    3  C   UNL     1     -41.227  56.588 -51.681  1.00  0.00     0.236 C 
HETATM    4  C   UNL     1     -41.423  56.767 -53.187  1.00  0.00     0.039 C 
HETATM    5  C   UNL     1     -42.704  56.107 -53.768  1.00  0.00    -0.013 C 
HETATM    6  C   UNL     1     -44.002  56.881 -53.397  1.00  0.00     0.244 C 
HETATM    7  N   UNL     1     -44.094  58.216 -54.096  1.00  0.00    -0.073 N 
HETATM    8  H   UNL     1     -43.318  58.829 -53.812  1.00  0.00     0.279 HD
HETATM    9  C   UNL     1     -45.351  58.967 -53.700  1.00  0.00     0.269 C 
HETATM   10  C   UNL     1     -44.019  58.099 -55.613  1.00  0.00     0.243 C 
HETATM   11  C   UNL     1     -42.709  57.407 -56.004  1.00  0.00     0.045 C 
HETATM   12  C   UNL     1     -42.601  56.032 -55.320  1.00  0.00     0.022 C 
HETATM   13  C   UNL     1     -42.787  54.646 -53.231  1.00  0.00     0.039 C 
HETATM   14  C   UNL     1     -42.614  54.510 -51.719  1.00  0.00     0.236 C 
ENDROOT
BRANCH  11  15
HETATM   15  C   UNL     1     -42.573  57.313 -57.509  1.00  0.00    -0.052 A 
HETATM   16  C   UNL     1     -42.976  56.140 -58.168  1.00  0.00     0.007 A 
HETATM   17  C   UNL     1     -42.843  56.017 -59.551  1.00  0.00     0.001 A 
HETATM   18  C   UNL     1     -42.308  57.063 -60.297  1.00  0.00     0.000 A 
HETATM   19  C   UNL     1     -41.906  58.234 -59.660  1.00  0.00     0.001 A 
HETATM   20  C   UNL     1     -42.037  58.361 -58.275  1.00  0.00     0.007 A 
ENDBRANCH  11  15
BRANCH   1  21
HETATM   21  C   UNL     1     -40.095  54.288 -51.591  1.00  0.00     0.277 C 
BRANCH  21  22
HETATM   22  C   UNL     1     -40.120  52.873 -51.133  1.00  0.00     0.011 A 
HETATM   23  C   UNL     1     -40.518  52.387 -49.862  1.00  0.00     0.149 A 
HETATM   24  N   UNL     1     -40.375  51.076 -49.732  1.00  0.00    -0.185 NA
HETATM   25  N   UNL     1     -39.950  50.672 -50.938  1.00  0.00    -0.278 N 
HETATM   26  C   UNL     1     -39.721  49.263 -51.172  1.00  0.00     0.179 C 
HETATM   27  C   UNL     1     -39.814  51.710 -51.834  1.00  0.00     0.043 A 
BRANCH  27  28
HETATM   28  C   UNL     1     -39.433  51.490 -53.299  1.00  0.00     0.038 A 
HETATM   29  C   UNL     1     -40.447  50.878 -54.242  1.00  0.00     0.011 A 
HETATM   30  C   UNL     1     -40.030  52.298 -54.425  1.00  0.00     0.011 A 
ENDBRANCH  27  28
ENDBRANCH  21  22
ENDBRANCH   1  21
TORSDOF 4
ENDMDL
MODEL 3
REMARK VINA RESULT:      -8.1      2.751      4.289
REMARK  4 active torsions:
REMARK  status: ('A' for Active; 'I' for Inactive)
REMARK    1  A    between atoms: C_5  and  C_6 
REMARK    2  A    between atoms: C_6  and  N_7 
REMARK    3  A    between atoms: C_17  and  C_18 
REMARK    4  A    between atoms: C_27  and  C_28 
ROOT
HETATM    1  N   UNL     1     -44.292  59.129 -56.194  1.00  0.00    -0.067 N 
HETATM    2  H   UNL     1     -44.919  59.938 -56.314  1.00  0.00     0.280 HD
HETATM    3  C   UNL     1     -45.109  58.025 -55.585  1.00  0.00     0.236 C 
HETATM    4  C   UNL     1     -44.233  56.855 -55.133  1.00  0.00     0.039 C 
HETATM    5  C   UNL     1     -43.042  57.241 -54.213  1.00  0.00    -0.013 C 
HETATM    6  C   UNL     1     -43.489  57.607 -52.769  1.00  0.00     0.244 C 
HETATM    7  N   UNL     1     -43.993  56.408 -52.002  1.00  0.00    -0.073 N 
HETATM    8  H   UNL     1     -44.827  56.012 -52.455  1.00  0.00     0.279 HD
HETATM    9  C   UNL     1     -44.450  56.792 -50.607  1.00  0.00     0.269 C 
HETATM   10  C   UNL     1     -42.969  55.284 -51.919  1.00  0.00     0.243 C 
HETATM   11  C   UNL     1     -42.571  54.854 -53.336  1.00  0.00     0.045 C 
HETATM   12  C   UNL     1     -42.034  56.057 -54.132  1.00  0.00     0.022 C 
HETATM   13  C   UNL     1     -42.298  58.448 -54.860  1.00  0.00     0.039 C 
HETATM   14  C   UNL     1     -43.201  59.608 -55.275  1.00  0.00     0.236 C 
ENDROOT
BRANCH  11  15
HETATM   15  C   UNL     1     -41.589  53.703 -53.298  1.00  0.00    -0.052 A 
HETATM   16  C   UNL     1     -40.848  53.465 -52.128  1.00  0.00     0.007 A 
HETATM   17  C   UNL     1     -39.920  52.424 -52.071  1.00  0.00     0.001 A 
HETATM   18  C   UNL     1     -39.719  51.607 -53.178  1.00  0.00     0.000 A 
HETATM   19  C   UNL     1     -40.447  51.827 -54.344  1.00  0.00     0.001 A 
HETATM   20  C   UNL     1     -41.377  52.867 -54.406  1.00  0.00     0.007 A 
ENDBRANCH  11  15
BRANCH   1  21
HETATM   21  C   UNL     1     -43.800  58.873 -57.622  1.00  0.00     0.277 C 
BRANCH  21  22
HETATM   22  C   UNL     1     -44.810  58.421 -58.615  1.00  0.00     0.011 A 
HETATM   23  C   UNL     1     -45.830  59.198 -59.220  1.00  0.00     0.149 A 
HETATM   24  N   UNL     1     -46.617  58.499 -60.026  1.00  0.00    -0.185 NA
HETATM   25  N   UNL     1     -46.082  57.269 -60.017  1.00  0.00    -0.278 N 
HETATM   26  C   UNL     1     -46.677  56.234 -60.835  1.00  0.00     0.179 C 
HETATM   27  C   UNL     1     -44.967  57.173 -59.213  1.00  0.00     0.043 A 
BRANCH  27  28
HETATM   28  C   UNL     1     -44.129  55.898 -59.114  1.00  0.00     0.038 A 
HETATM   29  C   UNL     1     -42.739  55.879 -59.712  1.00  0.00     0.011 A 
HETATM   30  C   UNL     1     -42.909  55.794 -58.233  1.00  0.00     0.011 A 
ENDBRANCH  27  28
ENDBRANCH  21  22
ENDBRANCH   1  21
TORSDOF 4
ENDMDL
MODEL 4
REMARK VINA RESULT:      -8.0      2.623      3.834
REMARK  4 active torsions:
REMARK  status: ('A' for Active; 'I' for Inactive)
REMARK    1  A    between atoms: C_5  and  C_6 
REMARK    2  A    between atoms: C_6  and  N_7 
REMARK    3  A    between atoms: C_17  and  C_18 
REMARK    4  A    between atoms: C_27  and  C_28 
ROOT
HETATM    1  N   UNL     1     -43.639  58.423 -55.561  1.00  0.00    -0.067 N 
HETATM    2  H   UNL     1     -44.274  59.232 -55.623  1.00  0.00     0.280 HD
HETATM    3  C   UNL     1     -44.472  57.238 -55.163  1.00  0.00     0.236 C 
HETATM    4  C   UNL     1     -43.606  56.031 -54.801  1.00  0.00     0.039 C 
HETATM    5  C   UNL     1     -42.493  56.309 -53.753  1.00  0.00    -0.013 C 
HETATM    6  C   UNL     1     -43.052  56.478 -52.311  1.00  0.00     0.244 C 
HETATM    7  N   UNL     1     -43.583  55.183 -51.745  1.00  0.00    -0.073 N 
HETATM    8  H   UNL     1     -44.372  54.838 -52.306  1.00  0.00     0.279 HD
HETATM    9  C   UNL     1     -44.148  55.375 -50.350  1.00  0.00     0.269 C 
HETATM   10  C   UNL     1     -42.542  54.071 -51.731  1.00  0.00     0.243 C 
HETATM   11  C   UNL     1     -42.033  53.834 -53.158  1.00  0.00     0.045 C 
HETATM   12  C   UNL     1     -41.467  55.138 -53.750  1.00  0.00     0.022 C 
HETATM   13  C   UNL     1     -41.732  57.599 -54.181  1.00  0.00     0.039 C 
HETATM   14  C   UNL     1     -42.629  58.792 -54.509  1.00  0.00     0.236 C 
ENDROOT
BRANCH  11  15
HETATM   15  C   UNL     1     -41.031  52.701 -53.195  1.00  0.00    -0.052 A 
HETATM   16  C   UNL     1     -40.996  51.845 -54.309  1.00  0.00     0.007 A 
HETATM   17  C   UNL     1     -40.097  50.780 -54.362  1.00  0.00     0.001 A 
HETATM   18  C   UNL     1     -39.220  50.553 -53.306  1.00  0.00     0.000 A 
HETATM   19  C   UNL     1     -39.239  51.393 -52.196  1.00  0.00     0.001 A 
HETATM   20  C   UNL     1     -40.138  52.461 -52.139  1.00  0.00     0.007 A 
ENDBRANCH  11  15
BRANCH   1  21
HETATM   21  C   UNL     1     -43.039  58.361 -56.970  1.00  0.00     0.277 C 
BRANCH  21  22
HETATM   22  C   UNL     1     -43.641  57.389 -57.920  1.00  0.00     0.011 A 
HETATM   23  C   UNL     1     -43.152  56.102 -58.260  1.00  0.00     0.149 A 
HETATM   24  N   UNL     1     -43.879  55.491 -59.185  1.00  0.00    -0.185 NA
HETATM   25  N   UNL     1     -44.894  56.336 -59.414  1.00  0.00    -0.278 N 
HETATM   26  C   UNL     1     -45.923  55.964 -60.362  1.00  0.00     0.179 C 
HETATM   27  C   UNL     1     -44.823  57.481 -58.651  1.00  0.00     0.043 A 
BRANCH  27  28
HETATM   28  C   UNL     1     -45.915  58.551 -58.666  1.00  0.00     0.038 A 
HETATM   29  C   UNL     1     -47.138  58.371 -57.792  1.00  0.00     0.011 A 
HETATM   30  C   UNL     1     -46.172  59.467 -57.495  1.00  0.00     0.011 A 
ENDBRANCH  27  28
ENDBRANCH  21  22
ENDBRANCH   1  21
TORSDOF 4
ENDMDL
MODEL 5
REMARK VINA RESULT:      -7.9      2.820      3.517
REMARK  4 active torsions:
REMARK  status: ('A' for Active; 'I' for Inactive)
REMARK    1  A    between atoms: C_5  and  C_6 
REMARK    2  A    between atoms: C_6  and  N_7 
REMARK    3  A    between atoms: C_17  and  C_18 
REMARK    4  A    between atoms: C_27  and  C_28 
ROOT
HETATM    1  N   UNL     1     -43.509  57.566 -55.596  1.00  0.00    -0.067 N 
HETATM    2  H   UNL     1     -44.024  58.459 -55.619  1.00  0.00     0.280 HD
HETATM    3  C   UNL     1     -44.143  56.721 -54.527  1.00  0.00     0.236 C 
HETATM    4  C   UNL     1     -43.316  55.469 -54.229  1.00  0.00     0.039 C 
HETATM    5  C   UNL     1     -41.815  55.730 -53.920  1.00  0.00    -0.013 C 
HETATM    6  C   UNL     1     -41.588  56.348 -52.512  1.00  0.00     0.244 C 
HETATM    7  N   UNL     1     -41.885  55.371 -51.400  1.00  0.00    -0.073 N 
HETATM    8  H   UNL     1     -42.874  55.089 -51.419  1.00  0.00     0.279 HD
HETATM    9  C   UNL     1     -41.684  56.002 -50.034  1.00  0.00     0.269 C 
HETATM   10  C   UNL     1     -41.068  54.090 -51.502  1.00  0.00     0.243 C 
HETATM   11  C   UNL     1     -41.337  53.422 -52.854  1.00  0.00     0.045 C 
HETATM   12  C   UNL     1     -41.020  54.393 -54.006  1.00  0.00     0.022 C 
HETATM   13  C   UNL     1     -41.250  56.683 -55.016  1.00  0.00     0.039 C 
HETATM   14  C   UNL     1     -42.089  57.936 -55.267  1.00  0.00     0.236 C 
ENDROOT
BRANCH  11  15
HETATM   15  C   UNL     1     -40.578  52.117 -52.976  1.00  0.00    -0.052 A 
HETATM   16  C   UNL     1     -40.513  51.469 -54.221  1.00  0.00     0.007 A 
HETATM   17  C   UNL     1     -39.839  50.256 -54.358  1.00  0.00     0.001 A 
HETATM   18  C   UNL     1     -39.221  49.672 -53.258  1.00  0.00     0.000 A 
HETATM   19  C   UNL     1     -39.273  50.302 -52.017  1.00  0.00     0.001 A 
HETATM   20  C   UNL     1     -39.947  51.517 -51.875  1.00  0.00     0.007 A 
ENDBRANCH  11  15
BRANCH   1  21
HETATM   21  C   UNL     1     -43.676  57.047 -57.028  1.00  0.00     0.277 C 
BRANCH  21  22
HETATM   22  C   UNL     1     -44.813  57.590 -57.817  1.00  0.00     0.011 A 
HETATM   23  C   UNL     1     -45.758  58.565 -57.406  1.00  0.00     0.149 A 
HETATM   24  N   UNL     1     -46.695  58.805 -58.311  1.00  0.00    -0.185 NA
HETATM   25  N   UNL     1     -46.340  58.046 -59.358  1.00  0.00    -0.278 N 
HETATM   26  C   UNL     1     -47.136  58.089 -60.565  1.00  0.00     0.179 C 
HETATM   27  C   UNL     1     -45.190  57.320 -59.129  1.00  0.00     0.043 A 
BRANCH  27  28
HETATM   28  C   UNL     1     -44.535  56.453 -60.206  1.00  0.00     0.038 A 
HETATM   29  C   UNL     1     -44.171  55.021 -59.879  1.00  0.00     0.011 A 
HETATM   30  C   UNL     1     -45.251  55.302 -60.868  1.00  0.00     0.011 A 
ENDBRANCH  27  28
ENDBRANCH  21  22
ENDBRANCH   1  21
TORSDOF 4
ENDMDL
MODEL 6
REMARK VINA RESULT:      -7.8      2.147      3.553
REMARK  4 active torsions:
REMARK  status: ('A' for Active; 'I' for Inactive)
REMARK    1  A    between atoms: C_5  and  C_6 
REMARK    2  A    between atoms: C_6  and  N_7 
REMARK    3  A    between atoms: C_17  and  C_18 
REMARK    4  A    between atoms: C_27  and  C_28 
ROOT
HETATM    1  N   UNL     1     -42.693  59.257 -55.480  1.00  0.00    -0.067 N 
HETATM    2  H   UNL     1     -43.231  60.131 -55.575  1.00  0.00     0.280 HD
HETATM    3  C   UNL     1     -43.688  58.145 -55.299  1.00  0.00     0.236 C 
HETATM    4  C   UNL     1     -43.008  56.834 -54.904  1.00  0.00     0.039 C 
HETATM    5  C   UNL     1     -42.051  56.931 -53.684  1.00  0.00    -0.013 C 
HETATM    6  C   UNL     1     -42.807  57.073 -52.333  1.00  0.00     0.244 C 
HETATM    7  N   UNL     1     -43.541  55.811 -51.949  1.00  0.00    -0.073 N 
HETATM    8  H   UNL     1     -44.263  55.585 -52.646  1.00  0.00     0.279 HD
HETATM    9  C   UNL     1     -44.295  55.980 -50.643  1.00  0.00     0.269 C 
HETATM   10  C   UNL     1     -42.627  54.596 -51.864  1.00  0.00     0.243 C 
HETATM   11  C   UNL     1     -41.928  54.391 -53.212  1.00  0.00     0.045 C 
HETATM   12  C   UNL     1     -41.154  55.659 -53.615  1.00  0.00     0.022 C 
HETATM   13  C   UNL     1     -41.111  58.156 -53.897  1.00  0.00     0.039 C 
HETATM   14  C   UNL     1     -41.828  59.454 -54.265  1.00  0.00     0.236 C 
ENDROOT
BRANCH  11  15
HETATM   15  C   UNL     1     -41.045  53.161 -53.184  1.00  0.00    -0.052 A 
HETATM   16  C   UNL     1     -40.993  52.322 -54.310  1.00  0.00     0.007 A 
HETATM   17  C   UNL     1     -40.204  51.171 -54.306  1.00  0.00     0.001 A 
HETATM   18  C   UNL     1     -39.456  50.842 -53.180  1.00  0.00     0.000 A 
HETATM   19  C   UNL     1     -39.494  51.664 -52.057  1.00  0.00     0.001 A 
HETATM   20  C   UNL     1     -40.283  52.817 -52.057  1.00  0.00     0.007 A 
ENDBRANCH  11  15
BRANCH   1  21
HETATM   21  C   UNL     1     -41.891  59.214 -56.785  1.00  0.00     0.277 C 
BRANCH  21  22
HETATM   22  C   UNL     1     -42.549  59.757 -58.003  1.00  0.00     0.011 A 
HETATM   23  C   UNL     1     -42.462  61.077 -58.513  1.00  0.00     0.149 A 
HETATM   24  N   UNL     1     -43.211  61.277 -59.588  1.00  0.00    -0.185 NA
HETATM   25  N   UNL     1     -43.744  60.073 -59.842  1.00  0.00    -0.278 N 
HETATM   26  C   UNL     1     -44.605  59.911 -60.994  1.00  0.00     0.179 C 
HETATM   27  C   UNL     1     -43.350  59.109 -58.940  1.00  0.00     0.043 A 
BRANCH  27  28
HETATM   28  C   UNL     1     -43.751  57.640 -59.075  1.00  0.00     0.038 A 
HETATM   29  C   UNL     1     -42.980  56.748 -60.024  1.00  0.00     0.011 A 
HETATM   30  C   UNL     1     -42.895  56.512 -58.555  1.00  0.00     0.011 A 
ENDBRANCH  27  28
ENDBRANCH  21  22
ENDBRANCH   1  21
TORSDOF 4
ENDMDL
MODEL 7
REMARK VINA RESULT:      -7.7      2.540      7.535
REMARK  4 active torsions:
REMARK  status: ('A' for Active; 'I' for Inactive)
REMARK    1  A    between atoms: C_5  and  C_6 
REMARK    2  A    between atoms: C_6  and  N_7 
REMARK    3  A    between atoms: C_17  and  C_18 
REMARK    4  A    between atoms: C_27  and  C_28 
ROOT
HETATM    1  N   UNL     1     -42.123  56.918 -52.648  1.00  0.00    -0.067 N 
HETATM    2  H   UNL     1     -41.543  57.208 -51.847  1.00  0.00     0.280 HD
HETATM    3  C   UNL     1     -41.228  56.899 -53.855  1.00  0.00     0.236 C 
HETATM    4  C   UNL     1     -42.025  56.721 -55.148  1.00  0.00     0.039 C 
HETATM    5  C   UNL     1     -43.201  57.719 -55.340  1.00  0.00    -0.013 C 
HETATM    6  C   UNL     1     -42.721  59.153 -55.703  1.00  0.00     0.244 C 
HETATM    7  N   UNL     1     -42.129  59.227 -57.090  1.00  0.00    -0.073 N 
HETATM    8  H   UNL     1     -41.293  58.633 -57.160  1.00  0.00     0.279 HD
HETATM    9  C   UNL     1     -41.642  60.628 -57.414  1.00  0.00     0.269 C 
HETATM   10  C   UNL     1     -43.089  58.752 -58.172  1.00  0.00     0.243 C 
HETATM   11  C   UNL     1     -43.515  57.310 -57.874  1.00  0.00     0.045 C 
HETATM   12  C   UNL     1     -44.143  57.213 -56.472  1.00  0.00     0.022 C 
HETATM   13  C   UNL     1     -44.029  57.755 -54.021  1.00  0.00     0.039 C 
HETATM   14  C   UNL     1     -43.203  57.960 -52.752  1.00  0.00     0.236 C 
ENDROOT
BRANCH  11  15
HETATM   15  C   UNL     1     -44.435  56.782 -58.955  1.00  0.00    -0.052 A 
HETATM   16  C   UNL     1     -45.731  57.311 -59.080  1.00  0.00     0.007 A 
HETATM   17  C   UNL     1     -46.607  56.829 -60.052  1.00  0.00     0.001 A 
HETATM   18  C   UNL     1     -46.204  55.815 -60.914  1.00  0.00     0.000 A 
HETATM   19  C   UNL     1     -44.922  55.281 -60.807  1.00  0.00     0.001 A 
HETATM   20  C   UNL     1     -44.042  55.760 -59.834  1.00  0.00     0.007 A 
ENDBRANCH  11  15
BRANCH   1  21
HETATM   21  C   UNL     1     -42.652  55.552 -52.200  1.00  0.00     0.277 C 
BRANCH  21  22
HETATM   22  C   UNL     1     -41.656  54.574 -51.688  1.00  0.00     0.011 A 
HETATM   23  C   UNL     1     -41.132  54.488 -50.372  1.00  0.00     0.149 A 
HETATM   24  N   UNL     1     -40.212  53.545 -50.233  1.00  0.00    -0.185 NA
HETATM   25  N   UNL     1     -40.169  52.950 -51.434  1.00  0.00    -0.278 N 
HETATM   26  C   UNL     1     -39.280  51.827 -51.635  1.00  0.00     0.179 C 
HETATM   27  C   UNL     1     -41.047  53.506 -52.340  1.00  0.00     0.043 A 
BRANCH  27  28
HETATM   28  C   UNL     1     -41.247  52.940 -53.746  1.00  0.00     0.038 A 
HETATM   29  C   UNL     1     -40.349  53.415 -54.868  1.00  0.00     0.011 A 
HETATM   30  C   UNL     1     -40.256  52.005 -54.395  1.00  0.00     0.011 A 
ENDBRANCH  27  28
ENDBRANCH  21  22
ENDBRANCH   1  21
TORSDOF 4
ENDMDL
MODEL 8
REMARK VINA RESULT:      -7.5      2.969      5.648
REMARK  4 active torsions:
REMARK  status: ('A' for Active; 'I' for Inactive)
REMARK    1  A    between atoms: C_5  and  C_6 
REMARK    2  A    between atoms: C_6  and  N_7 
REMARK    3  A    between atoms: C_17  and  C_18 
REMARK    4  A    between atoms: C_27  and  C_28 
ROOT
HETATM    1  N   UNL     1     -43.656  59.900 -53.237  1.00  0.00    -0.067 N 
HETATM    2  H   UNL     1     -44.071  60.785 -53.563  1.00  0.00     0.280 HD
HETATM    3  C   UNL     1     -42.484  59.608 -54.132  1.00  0.00     0.236 C 
HETATM    4  C   UNL     1     -41.935  58.199 -53.905  1.00  0.00     0.039 C 
HETATM    5  C   UNL     1     -42.990  57.061 -53.977  1.00  0.00    -0.013 C 
HETATM    6  C   UNL     1     -43.458  56.762 -55.429  1.00  0.00     0.244 C 
HETATM    7  N   UNL     1     -42.373  56.122 -56.263  1.00  0.00    -0.073 N 
HETATM    8  H   UNL     1     -41.568  56.755 -56.358  1.00  0.00     0.279 HD
HETATM    9  C   UNL     1     -42.841  55.866 -57.683  1.00  0.00     0.269 C 
HETATM   10  C   UNL     1     -41.840  54.833 -55.653  1.00  0.00     0.243 C 
HETATM   11  C   UNL     1     -41.302  55.120 -54.247  1.00  0.00     0.045 C 
HETATM   12  C   UNL     1     -42.397  55.754 -53.371  1.00  0.00     0.022 C 
HETATM   13  C   UNL     1     -44.211  57.472 -53.100  1.00  0.00     0.039 C 
HETATM   14  C   UNL     1     -44.750  58.876 -53.373  1.00  0.00     0.236 C 
ENDROOT
BRANCH  11  15
HETATM   15  C   UNL     1     -40.717  53.870 -53.624  1.00  0.00    -0.052 A 
HETATM   16  C   UNL     1     -40.600  53.784 -52.227  1.00  0.00     0.007 A 
HETATM   17  C   UNL     1     -40.046  52.654 -51.626  1.00  0.00     0.001 A 
HETATM   18  C   UNL     1     -39.602  51.593 -52.409  1.00  0.00     0.000 A 
HETATM   19  C   UNL     1     -39.712  51.661 -53.795  1.00  0.00     0.001 A 
HETATM   20  C   UNL     1     -40.266  52.791 -54.401  1.00  0.00     0.007 A 
ENDBRANCH  11  15
BRANCH   1  21
HETATM   21  C   UNL     1     -43.306  60.211 -51.778  1.00  0.00     0.277 C 
BRANCH  21  22
HETATM   22  C   UNL     1     -44.391  60.768 -50.926  1.00  0.00     0.011 A 
HETATM   23  C   UNL     1     -45.093  60.108 -49.886  1.00  0.00     0.149 A 
HETATM   24  N   UNL     1     -46.049  60.848 -49.344  1.00  0.00    -0.185 NA
HETATM   25  N   UNL     1     -45.942  62.029 -49.970  1.00  0.00    -0.278 N 
HETATM   26  C   UNL     1     -46.826  63.111 -49.594  1.00  0.00     0.179 C 
HETATM   27  C   UNL     1     -44.934  62.050 -50.909  1.00  0.00     0.043 A 
BRANCH  27  28
HETATM   28  C   UNL     1     -44.557  63.312 -51.686  1.00  0.00     0.038 A 
HETATM   29  C   UNL     1     -43.502  64.239 -51.122  1.00  0.00     0.011 A 
HETATM   30  C   UNL     1     -43.223  63.476 -52.372  1.00  0.00     0.011 A 
ENDBRANCH  27  28
ENDBRANCH  21  22
ENDBRANCH   1  21
TORSDOF 4
ENDMDL
MODEL 9
REMARK VINA RESULT:      -7.3      2.498      8.739
REMARK  4 active torsions:
REMARK  status: ('A' for Active; 'I' for Inactive)
REMARK    1  A    between atoms: C_5  and  C_6 
REMARK    2  A    between atoms: C_6  and  N_7 
REMARK    3  A    between atoms: C_17  and  C_18 
REMARK    4  A    between atoms: C_27  and  C_28 
ROOT
HETATM    1  N   UNL     1     -43.177  55.781 -54.564  1.00  0.00    -0.067 N 
HETATM    2  H   UNL     1     -43.719  55.095 -54.019  1.00  0.00     0.280 HD
HETATM    3  C   UNL     1     -44.004  57.033 -54.642  1.00  0.00     0.236 C 
HETATM    4  C   UNL     1     -43.417  58.042 -55.630  1.00  0.00     0.039 C 
HETATM    5  C   UNL     1     -43.121  57.479 -57.048  1.00  0.00    -0.013 C 
HETATM    6  C   UNL     1     -44.411  57.245 -57.884  1.00  0.00     0.244 C 
HETATM    7  N   UNL     1     -45.078  58.539 -58.285  1.00  0.00    -0.073 N 
HETATM    8  H   UNL     1     -45.382  59.063 -57.454  1.00  0.00     0.279 HD
HETATM    9  C   UNL     1     -46.349  58.288 -59.076  1.00  0.00     0.269 C 
HETATM   10  C   UNL     1     -44.157  59.464 -59.069  1.00  0.00     0.243 C 
HETATM   11  C   UNL     1     -42.912  59.770 -58.229  1.00  0.00     0.045 C 
HETATM   12  C   UNL     1     -42.201  58.465 -57.825  1.00  0.00     0.022 C 
HETATM   13  C   UNL     1     -42.343  56.138 -56.888  1.00  0.00     0.039 C 
HETATM   14  C   UNL     1     -42.974  55.145 -55.912  1.00  0.00     0.236 C 
ENDROOT
BRANCH  11  15
HETATM   15  C   UNL     1     -41.990  60.728 -58.954  1.00  0.00    -0.052 A 
HETATM   16  C   UNL     1     -41.045  61.466 -58.221  1.00  0.00     0.007 A 
HETATM   17  C   UNL     1     -40.197  62.371 -58.859  1.00  0.00     0.001 A 
HETATM   18  C   UNL     1     -40.279  62.553 -60.236  1.00  0.00     0.000 A 
HETATM   19  C   UNL     1     -41.208  61.828 -60.978  1.00  0.00     0.001 A 
HETATM   20  C   UNL     1     -42.059  60.920 -60.343  1.00  0.00     0.007 A 
ENDBRANCH  11  15
BRANCH   1  21
HETATM   21  C   UNL     1     -41.879  55.900 -53.758  1.00  0.00     0.277 C 
BRANCH  21  22
HETATM   22  C   UNL     1     -41.738  55.017 -52.570  1.00  0.00     0.011 A 
HETATM   23  C   UNL     1     -42.438  55.111 -51.340  1.00  0.00     0.149 A 
HETATM   24  N   UNL     1     -42.053  54.212 -50.445  1.00  0.00    -0.185 NA
HETATM   25  N   UNL     1     -41.146  53.471 -51.097  1.00  0.00    -0.278 N 
HETATM   26  C   UNL     1     -40.531  52.349 -50.419  1.00  0.00     0.179 C 
HETATM   27  C   UNL     1     -40.944  53.887 -52.395  1.00  0.00     0.043 A 
BRANCH  27  28
HETATM   28  C   UNL     1     -40.027  53.142 -53.366  1.00  0.00     0.038 A 
HETATM   29  C   UNL     1     -40.585  51.985 -54.167  1.00  0.00     0.011 A 
HETATM   30  C   UNL     1     -40.180  53.239 -54.864  1.00  0.00     0.011 A 
ENDBRANCH  27  28
ENDBRANCH  21  22
ENDBRANCH   1  21
TORSDOF 4
ENDMDL
MODEL 10
REMARK VINA RESULT:      -7.3      4.161      8.915
REMARK  4 active torsions:
REMARK  status: ('A' for Active; 'I' for Inactive)
REMARK    1  A    between atoms: C_5  and  C_6 
REMARK    2  A    between atoms: C_6  and  N_7 
REMARK    3  A    between atoms: C_17  and  C_18 
REMARK    4  A    between atoms: C_27  and  C_28 
ROOT
HETATM    1  N   UNL     1     -42.337  57.770 -52.702  1.00  0.00    -0.067 N 
HETATM    2  H   UNL     1     -42.164  57.363 -53.633  1.00  0.00     0.280 HD
HETATM    3  C   UNL     1     -43.777  58.197 -52.669  1.00  0.00     0.236 C 
HETATM    4  C   UNL     1     -44.092  59.036 -51.430  1.00  0.00     0.039 C 
HETATM    5  C   UNL     1     -43.145  60.245 -51.195  1.00  0.00    -0.013 C 
HETATM    6  C   UNL     1     -43.404  61.415 -52.188  1.00  0.00     0.244 C 
HETATM    7  N   UNL     1     -44.723  62.103 -51.933  1.00  0.00    -0.073 N 
HETATM    8  H   UNL     1     -45.506  61.450 -52.069  1.00  0.00     0.279 HD
HETATM    9  C   UNL     1     -44.970  63.222 -52.928  1.00  0.00     0.269 C 
HETATM   10  C   UNL     1     -44.849  62.639 -50.513  1.00  0.00     0.243 C 
HETATM   11  C   UNL     1     -44.673  61.486 -49.518  1.00  0.00     0.045 C 
HETATM   12  C   UNL     1     -43.324  60.781 -49.744  1.00  0.00     0.022 C 
HETATM   13  C   UNL     1     -41.675  59.748 -51.334  1.00  0.00     0.039 C 
HETATM   14  C   UNL     1     -41.391  58.936 -52.597  1.00  0.00     0.236 C 
ENDROOT
BRANCH  11  15
HETATM   15  C   UNL     1     -44.840  61.969 -48.093  1.00  0.00    -0.052 A 
HETATM   16  C   UNL     1     -44.880  61.033 -47.046  1.00  0.00     0.007 A 
HETATM   17  C   UNL     1     -45.053  61.447 -45.725  1.00  0.00     0.001 A 
HETATM   18  C   UNL     1     -45.188  62.800 -45.430  1.00  0.00     0.000 A 
HETATM   19  C   UNL     1     -45.147  63.742 -46.455  1.00  0.00     0.001 A 
HETATM   20  C   UNL     1     -44.974  63.331 -47.778  1.00  0.00     0.007 A 
ENDBRANCH  11  15
BRANCH   1  21
HETATM   21  C   UNL     1     -41.971  56.618 -51.760  1.00  0.00     0.277 C 
BRANCH  21  22
HETATM   22  C   UNL     1     -41.340  55.418 -52.372  1.00  0.00     0.011 A 
HETATM   23  C   UNL     1     -41.011  55.220 -53.737  1.00  0.00     0.149 A 
HETATM   24  N   UNL     1     -40.510  54.020 -53.989  1.00  0.00    -0.185 NA
HETATM   25  N   UNL     1     -40.435  53.438 -52.784  1.00  0.00    -0.278 N 
HETATM   26  C   UNL     1     -39.886  52.103 -52.676  1.00  0.00     0.179 C 
HETATM   27  C   UNL     1     -40.887  54.249 -51.766  1.00  0.00     0.043 A 
BRANCH  27  28
HETATM   28  C   UNL     1     -40.814  53.843 -50.293  1.00  0.00     0.038 A 
HETATM   29  C   UNL     1     -39.631  54.289 -49.462  1.00  0.00     0.011 A 
HETATM   30  C   UNL     1     -40.987  54.833 -49.168  1.00  0.00     0.011 A 
ENDBRANCH  27  28
ENDBRANCH  21  22
ENDBRANCH   1  21
TORSDOF 4
ENDMDL
