MODEL 1
REMARK VINA RESULT:      -8.6      0.000      0.000
REMARK  3 active torsions:
REMARK  status: ('A' for Active; 'I' for Inactive)
REMARK    1  A    between atoms: C_8  and  C_9 
REMARK    2  A    between atoms: C_10  and  O_11 
REMARK    3  A    between atoms: C_24  and  N_25 
ROOT
HETATM    1  C   UNL     1     -44.091  55.380 -50.272  1.00  0.00     0.070 C 
HETATM    2  C   UNL     1     -44.219  56.655 -51.013  1.00  0.00     0.035 A 
HETATM    3  N   UNL     1     -45.429  57.288 -51.182  1.00  0.00    -0.280 N 
HETATM    4  H   UNL     1     -46.341  56.991 -50.852  1.00  0.00     0.189 HD
HETATM    5  N   UNL     1     -45.348  58.449 -51.861  1.00  0.00    -0.148 NA
HETATM    6  C   UNL     1     -44.058  58.509 -52.169  1.00  0.00     0.199 A 
HETATM    7  C   UNL     1     -43.298  57.439 -51.682  1.00  0.00     0.034 A 
HETATM    8  C   UNL     1     -41.831  57.389 -51.920  1.00  0.00     0.108 A 
HETATM    9  C   UNL     1     -41.350  58.636 -52.658  1.00  0.00     0.081 A 
HETATM   10  C   UNL     1     -39.942  58.770 -52.842  1.00  0.00     0.100 C 
HETATM   11  N   UNL     1     -38.793  58.896 -52.950  1.00  0.00    -0.191 NA
HETATM   12  C   UNL     1     -42.194  59.610 -53.089  1.00  0.00     0.140 A 
HETATM   13  O   UNL     1     -43.577  59.551 -52.870  1.00  0.00    -0.277 OA
ENDROOT
BRANCH   8  14
HETATM   14  C   UNL     1     -41.478  56.095 -52.649  1.00  0.00    -0.010 A 
HETATM   15  C   UNL     1     -41.528  55.915 -54.042  1.00  0.00     0.076 A 
HETATM   16  C   UNL     1     -41.138  54.704 -54.627  1.00  0.00     0.049 A 
HETATM   17  C   UNL     1     -40.605  53.666 -53.850  1.00  0.00    -0.023 A 
HETATM   18  C   UNL     1     -40.492  53.841 -52.456  1.00  0.00    -0.025 A 
HETATM   19  C   UNL     1     -40.166  52.465 -54.430  1.00  0.00     0.012 A 
HETATM   20  C   UNL     1     -40.943  55.040 -51.876  1.00  0.00     0.023 A 
HETATM   21  C   UNL     1     -39.925  52.819 -51.678  1.00  0.00     0.012 A 
HETATM   22  C   UNL     1     -39.478  51.636 -52.270  1.00  0.00     0.001 A 
HETATM   23  C   UNL     1     -39.603  51.457 -53.645  1.00  0.00     0.001 A 
BRANCH  15  24
HETATM   24  O   UNL     1     -42.037  56.910 -54.833  1.00  0.00    -0.355 OA
HETATM   25  C   UNL     1     -43.322  56.587 -55.359  1.00  0.00     0.210 C 
ENDBRANCH  15  24
ENDBRANCH   8  14
BRANCH  12  26
HETATM   26  N   UNL     1     -41.811  60.756 -53.755  1.00  0.00    -0.282 NA
HETATM   27  H   UNL     1     -40.985  60.671 -54.342  1.00  0.00     0.126 HD
HETATM   28  H   UNL     1     -41.775  61.559 -53.129  1.00  0.00     0.126 HD
ENDBRANCH  12  26
TORSDOF 3
ENDMDL
MODEL 2
REMARK VINA RESULT:      -8.3      1.489      2.411
REMARK  3 active torsions:
REMARK  status: ('A' for Active; 'I' for Inactive)
REMARK    1  A    between atoms: C_8  and  C_9 
REMARK    2  A    between atoms: C_10  and  O_11 
REMARK    3  A    between atoms: C_24  and  N_25 
ROOT
HETATM    1  C   UNL     1     -44.360  56.025 -50.306  1.00  0.00     0.070 C 
HETATM    2  C   UNL     1     -44.284  56.961 -51.451  1.00  0.00     0.035 A 
HETATM    3  N   UNL     1     -45.403  57.366 -52.143  1.00  0.00    -0.280 N 
HETATM    4  H   UNL     1     -46.368  57.097 -51.983  1.00  0.00     0.189 HD
HETATM    5  N   UNL     1     -45.145  58.239 -53.136  1.00  0.00    -0.148 NA
HETATM    6  C   UNL     1     -43.821  58.335 -53.093  1.00  0.00     0.199 A 
HETATM    7  C   UNL     1     -43.220  57.576 -52.082  1.00  0.00     0.034 A 
HETATM    8  C   UNL     1     -41.746  57.611 -51.891  1.00  0.00     0.108 A 
HETATM    9  C   UNL     1     -41.088  58.589 -52.862  1.00  0.00     0.081 A 
HETATM   10  C   UNL     1     -39.687  58.808 -52.702  1.00  0.00     0.100 C 
HETATM   11  N   UNL     1     -38.557  59.016 -52.539  1.00  0.00    -0.191 NA
HETATM   12  C   UNL     1     -41.785  59.267 -53.812  1.00  0.00     0.140 A 
HETATM   13  O   UNL     1     -43.172  59.132 -53.959  1.00  0.00    -0.277 OA
ENDROOT
BRANCH   8  14
HETATM   14  C   UNL     1     -41.185  56.196 -52.004  1.00  0.00    -0.010 A 
HETATM   15  C   UNL     1     -40.877  55.361 -50.916  1.00  0.00     0.076 A 
HETATM   16  C   UNL     1     -40.411  54.056 -51.117  1.00  0.00     0.049 A 
HETATM   17  C   UNL     1     -40.319  53.514 -52.407  1.00  0.00    -0.023 A 
HETATM   18  C   UNL     1     -40.674  54.312 -53.513  1.00  0.00    -0.025 A 
HETATM   19  C   UNL     1     -39.898  52.191 -52.619  1.00  0.00     0.012 A 
HETATM   20  C   UNL     1     -41.084  55.639 -53.299  1.00  0.00     0.023 A 
HETATM   21  C   UNL     1     -40.618  53.760 -54.804  1.00  0.00     0.012 A 
HETATM   22  C   UNL     1     -40.213  52.439 -54.999  1.00  0.00     0.001 A 
HETATM   23  C   UNL     1     -39.848  51.656 -53.908  1.00  0.00     0.001 A 
BRANCH  15  24
HETATM   24  O   UNL     1     -40.962  55.855 -49.642  1.00  0.00    -0.355 OA
HETATM   25  C   UNL     1     -40.975  54.825 -48.656  1.00  0.00     0.210 C 
ENDBRANCH  15  24
ENDBRANCH   8  14
BRANCH  12  26
HETATM   26  N   UNL     1     -41.240  60.164 -54.708  1.00  0.00    -0.282 NA
HETATM   27  H   UNL     1     -40.947  61.056 -54.317  1.00  0.00     0.126 HD
HETATM   28  H   UNL     1     -41.820  60.263 -55.539  1.00  0.00     0.126 HD
ENDBRANCH  12  26
TORSDOF 3
ENDMDL
MODEL 3
REMARK VINA RESULT:      -8.0      1.555      3.252
REMARK  3 active torsions:
REMARK  status: ('A' for Active; 'I' for Inactive)
REMARK    1  A    between atoms: C_8  and  C_9 
REMARK    2  A    between atoms: C_10  and  O_11 
REMARK    3  A    between atoms: C_24  and  N_25 
ROOT
HETATM    1  C   UNL     1     -38.998  58.763 -52.824  1.00  0.00     0.070 C 
HETATM    2  C   UNL     1     -40.201  58.990 -51.993  1.00  0.00     0.035 A 
HETATM    3  N   UNL     1     -40.133  59.549 -50.737  1.00  0.00    -0.280 N 
HETATM    4  H   UNL     1     -39.306  59.857 -50.235  1.00  0.00     0.189 HD
HETATM    5  N   UNL     1     -41.331  59.702 -50.140  1.00  0.00    -0.148 NA
HETATM    6  C   UNL     1     -42.161  59.172 -51.031  1.00  0.00     0.199 A 
HETATM    7  C   UNL     1     -41.539  58.712 -52.197  1.00  0.00     0.034 A 
HETATM    8  C   UNL     1     -42.348  58.124 -53.298  1.00  0.00     0.108 A 
HETATM    9  C   UNL     1     -43.840  58.181 -52.976  1.00  0.00     0.081 A 
HETATM   10  C   UNL     1     -44.735  57.760 -54.004  1.00  0.00     0.100 C 
HETATM   11  N   UNL     1     -45.459  57.458 -54.859  1.00  0.00    -0.191 NA
HETATM   12  C   UNL     1     -44.323  58.649 -51.796  1.00  0.00     0.140 A 
HETATM   13  O   UNL     1     -43.483  59.135 -50.785  1.00  0.00    -0.277 OA
ENDROOT
BRANCH   8  14
HETATM   14  C   UNL     1     -41.858  56.708 -53.589  1.00  0.00    -0.010 A 
HETATM   15  C   UNL     1     -41.571  56.201 -54.868  1.00  0.00     0.076 A 
HETATM   16  C   UNL     1     -41.078  54.901 -55.035  1.00  0.00     0.049 A 
HETATM   17  C   UNL     1     -40.775  54.097 -53.927  1.00  0.00    -0.023 A 
HETATM   18  C   UNL     1     -41.001  54.602 -52.631  1.00  0.00    -0.025 A 
HETATM   19  C   UNL     1     -40.235  52.809 -54.080  1.00  0.00     0.012 A 
HETATM   20  C   UNL     1     -41.552  55.887 -52.481  1.00  0.00     0.023 A 
HETATM   21  C   UNL     1     -40.664  53.814 -51.518  1.00  0.00     0.012 A 
HETATM   22  C   UNL     1     -40.115  52.542 -51.684  1.00  0.00     0.001 A 
HETATM   23  C   UNL     1     -39.905  52.037 -52.965  1.00  0.00     0.001 A 
BRANCH  15  24
HETATM   24  O   UNL     1     -41.848  56.961 -55.972  1.00  0.00    -0.355 OA
HETATM   25  C   UNL     1     -42.780  56.332 -56.850  1.00  0.00     0.210 C 
ENDBRANCH  15  24
ENDBRANCH   8  14
BRANCH  12  26
HETATM   26  N   UNL     1     -45.658  58.726 -51.458  1.00  0.00    -0.282 NA
HETATM   27  H   UNL     1     -46.190  59.459 -51.923  1.00  0.00     0.126 HD
HETATM   28  H   UNL     1     -45.792  58.714 -50.449  1.00  0.00     0.126 HD
ENDBRANCH  12  26
TORSDOF 3
ENDMDL
MODEL 4
REMARK VINA RESULT:      -8.0      2.266      3.390
REMARK  3 active torsions:
REMARK  status: ('A' for Active; 'I' for Inactive)
REMARK    1  A    between atoms: C_8  and  C_9 
REMARK    2  A    between atoms: C_10  and  O_11 
REMARK    3  A    between atoms: C_24  and  N_25 
ROOT
HETATM    1  C   UNL     1     -44.416  54.199 -54.119  1.00  0.00     0.070 C 
HETATM    2  C   UNL     1     -43.630  55.380 -54.540  1.00  0.00     0.035 A 
HETATM    3  N   UNL     1     -43.696  55.888 -55.818  1.00  0.00    -0.280 N 
HETATM    4  H   UNL     1     -44.248  55.546 -56.598  1.00  0.00     0.189 HD
HETATM    5  N   UNL     1     -42.933  56.981 -56.012  1.00  0.00    -0.148 NA
HETATM    6  C   UNL     1     -42.334  57.121 -54.835  1.00  0.00     0.199 A 
HETATM    7  C   UNL     1     -42.713  56.173 -53.878  1.00  0.00     0.034 A 
HETATM    8  C   UNL     1     -42.149  56.227 -52.503  1.00  0.00     0.108 A 
HETATM    9  C   UNL     1     -41.230  57.434 -52.331  1.00  0.00     0.081 A 
HETATM   10  C   UNL     1     -40.719  57.671 -51.020  1.00  0.00     0.100 C 
HETATM   11  N   UNL     1     -40.343  57.884 -49.943  1.00  0.00    -0.191 NA
HETATM   12  C   UNL     1     -40.933  58.285 -53.347  1.00  0.00     0.140 A 
HETATM   13  O   UNL     1     -41.466  58.129 -54.633  1.00  0.00    -0.277 OA
ENDROOT
BRANCH   8  14
HETATM   14  C   UNL     1     -41.457  54.904 -52.185  1.00  0.00    -0.010 A 
HETATM   15  C   UNL     1     -41.374  54.324 -50.908  1.00  0.00     0.076 A 
HETATM   16  C   UNL     1     -40.759  53.080 -50.719  1.00  0.00     0.049 A 
HETATM   17  C   UNL     1     -40.285  52.337 -51.810  1.00  0.00    -0.023 A 
HETATM   18  C   UNL     1     -40.404  52.872 -53.108  1.00  0.00    -0.025 A 
HETATM   19  C   UNL     1     -39.709  51.067 -51.639  1.00  0.00     0.012 A 
HETATM   20  C   UNL     1     -40.971  54.148 -53.275  1.00  0.00     0.023 A 
HETATM   21  C   UNL     1     -39.964  52.115 -54.206  1.00  0.00     0.012 A 
HETATM   22  C   UNL     1     -39.408  50.848 -54.023  1.00  0.00     0.001 A 
HETATM   23  C   UNL     1     -39.275  50.326 -52.739  1.00  0.00     0.001 A 
BRANCH  15  24
HETATM   24  O   UNL     1     -41.834  55.017 -49.821  1.00  0.00    -0.355 OA
HETATM   25  C   UNL     1     -41.079  54.749 -48.641  1.00  0.00     0.210 C 
ENDBRANCH  15  24
ENDBRANCH   8  14
BRANCH  12  26
HETATM   26  N   UNL     1     -40.114  59.391 -53.244  1.00  0.00    -0.282 NA
HETATM   27  H   UNL     1     -39.125  59.227 -53.418  1.00  0.00     0.126 HD
HETATM   28  H   UNL     1     -40.288  59.907 -52.383  1.00  0.00     0.126 HD
ENDBRANCH  12  26
TORSDOF 3
ENDMDL
MODEL 5
REMARK VINA RESULT:      -7.9      3.179      5.084
REMARK  3 active torsions:
REMARK  status: ('A' for Active; 'I' for Inactive)
REMARK    1  A    between atoms: C_8  and  C_9 
REMARK    2  A    between atoms: C_10  and  O_11 
REMARK    3  A    between atoms: C_24  and  N_25 
ROOT
HETATM    1  C   UNL     1     -43.985  54.972 -58.630  1.00  0.00     0.070 C 
HETATM    2  C   UNL     1     -43.125  56.157 -58.846  1.00  0.00     0.035 A 
HETATM    3  N   UNL     1     -42.362  56.313 -59.981  1.00  0.00    -0.280 N 
HETATM    4  H   UNL     1     -42.282  55.682 -60.772  1.00  0.00     0.189 HD
HETATM    5  N   UNL     1     -41.664  57.465 -60.017  1.00  0.00    -0.148 NA
HETATM    6  C   UNL     1     -41.961  58.012 -58.844  1.00  0.00     0.199 A 
HETATM    7  C   UNL     1     -42.854  57.266 -58.068  1.00  0.00     0.034 A 
HETATM    8  C   UNL     1     -43.304  57.772 -56.744  1.00  0.00     0.108 A 
HETATM    9  C   UNL     1     -42.722  59.154 -56.456  1.00  0.00     0.081 A 
HETATM   10  C   UNL     1     -43.173  59.806 -55.269  1.00  0.00     0.100 C 
HETATM   11  N   UNL     1     -43.577  60.350 -54.327  1.00  0.00    -0.191 NA
HETATM   12  C   UNL     1     -41.852  59.777 -57.292  1.00  0.00     0.140 A 
HETATM   13  O   UNL     1     -41.435  59.201 -58.500  1.00  0.00    -0.277 OA
ENDROOT
BRANCH   8  14
HETATM   14  C   UNL     1     -42.962  56.747 -55.665  1.00  0.00    -0.010 A 
HETATM   15  C   UNL     1     -43.784  56.421 -54.573  1.00  0.00     0.076 A 
HETATM   16  C   UNL     1     -43.408  55.430 -53.657  1.00  0.00     0.049 A 
HETATM   17  C   UNL     1     -42.242  54.675 -53.850  1.00  0.00    -0.023 A 
HETATM   18  C   UNL     1     -41.426  54.946 -54.967  1.00  0.00    -0.025 A 
HETATM   19  C   UNL     1     -41.878  53.647 -52.965  1.00  0.00     0.012 A 
HETATM   20  C   UNL     1     -41.787  55.983 -55.846  1.00  0.00     0.023 A 
HETATM   21  C   UNL     1     -40.277  54.168 -55.184  1.00  0.00     0.012 A 
HETATM   22  C   UNL     1     -39.936  53.139 -54.304  1.00  0.00     0.001 A 
HETATM   23  C   UNL     1     -40.733  52.882 -53.192  1.00  0.00     0.001 A 
BRANCH  15  24
HETATM   24  O   UNL     1     -44.933  57.132 -54.358  1.00  0.00    -0.355 OA
HETATM   25  C   UNL     1     -45.011  57.660 -53.036  1.00  0.00     0.210 C 
ENDBRANCH  15  24
ENDBRANCH   8  14
BRANCH  12  26
HETATM   26  N   UNL     1     -41.302  61.025 -57.082  1.00  0.00    -0.282 NA
HETATM   27  H   UNL     1     -41.853  61.659 -56.508  1.00  0.00     0.126 HD
HETATM   28  H   UNL     1     -40.985  61.447 -57.952  1.00  0.00     0.126 HD
ENDBRANCH  12  26
TORSDOF 3
ENDMDL
MODEL 6
REMARK VINA RESULT:      -7.6      3.569      5.898
REMARK  3 active torsions:
REMARK  status: ('A' for Active; 'I' for Inactive)
REMARK    1  A    between atoms: C_8  and  C_9 
REMARK    2  A    between atoms: C_10  and  O_11 
REMARK    3  A    between atoms: C_24  and  N_25 
ROOT
HETATM    1  C   UNL     1     -39.559  51.826 -53.768  1.00  0.00     0.070 C 
HETATM    2  C   UNL     1     -39.844  51.817 -52.316  1.00  0.00     0.035 A 
HETATM    3  N   UNL     1     -39.877  50.655 -51.581  1.00  0.00    -0.280 N 
HETATM    4  H   UNL     1     -39.727  49.705 -51.906  1.00  0.00     0.189 HD
HETATM    5  N   UNL     1     -40.126  50.843 -50.270  1.00  0.00    -0.148 NA
HETATM    6  C   UNL     1     -40.307  52.157 -50.202  1.00  0.00     0.199 A 
HETATM    7  C   UNL     1     -40.150  52.825 -51.421  1.00  0.00     0.034 A 
HETATM    8  C   UNL     1     -40.290  54.304 -51.491  1.00  0.00     0.108 A 
HETATM    9  C   UNL     1     -40.540  54.900 -50.108  1.00  0.00     0.081 A 
HETATM   10  C   UNL     1     -40.571  56.323 -50.018  1.00  0.00     0.100 C 
HETATM   11  N   UNL     1     -40.552  57.481 -49.943  1.00  0.00    -0.191 NA
HETATM   12  C   UNL     1     -40.681  54.138 -48.991  1.00  0.00     0.140 A 
HETATM   13  O   UNL     1     -40.590  52.741 -49.024  1.00  0.00    -0.277 OA
ENDROOT
BRANCH   8  14
HETATM   14  C   UNL     1     -41.380  54.665 -52.498  1.00  0.00    -0.010 A 
HETATM   15  C   UNL     1     -42.751  54.409 -52.328  1.00  0.00     0.076 A 
HETATM   16  C   UNL     1     -43.686  54.820 -53.286  1.00  0.00     0.049 A 
HETATM   17  C   UNL     1     -43.293  55.576 -54.400  1.00  0.00    -0.023 A 
HETATM   18  C   UNL     1     -41.930  55.894 -54.566  1.00  0.00    -0.025 A 
HETATM   19  C   UNL     1     -44.227  56.036 -55.342  1.00  0.00     0.012 A 
HETATM   20  C   UNL     1     -40.995  55.423 -53.627  1.00  0.00     0.023 A 
HETATM   21  C   UNL     1     -41.536  56.681 -55.660  1.00  0.00     0.012 A 
HETATM   22  C   UNL     1     -42.477  57.144 -56.581  1.00  0.00     0.001 A 
HETATM   23  C   UNL     1     -43.822  56.817 -56.426  1.00  0.00     0.001 A 
BRANCH  15  24
HETATM   24  O   UNL     1     -43.173  53.680 -51.249  1.00  0.00    -0.355 OA
HETATM   25  C   UNL     1     -44.092  54.398 -50.428  1.00  0.00     0.210 C 
ENDBRANCH  15  24
ENDBRANCH   8  14
BRANCH  12  26
HETATM   26  N   UNL     1     -40.902  54.626 -47.720  1.00  0.00    -0.282 NA
HETATM   27  H   UNL     1     -40.593  55.581 -47.553  1.00  0.00     0.126 HD
HETATM   28  H   UNL     1     -40.584  53.973 -47.007  1.00  0.00     0.126 HD
ENDBRANCH  12  26
TORSDOF 3
ENDMDL
MODEL 7
REMARK VINA RESULT:      -7.6      1.903      3.378
REMARK  3 active torsions:
REMARK  status: ('A' for Active; 'I' for Inactive)
REMARK    1  A    between atoms: C_8  and  C_9 
REMARK    2  A    between atoms: C_10  and  O_11 
REMARK    3  A    between atoms: C_24  and  N_25 
ROOT
HETATM    1  C   UNL     1     -39.433  58.994 -51.174  1.00  0.00     0.070 C 
HETATM    2  C   UNL     1     -40.825  59.495 -51.209  1.00  0.00     0.035 A 
HETATM    3  N   UNL     1     -41.325  60.344 -50.248  1.00  0.00    -0.280 N 
HETATM    4  H   UNL     1     -40.847  60.716 -49.434  1.00  0.00     0.189 HD
HETATM    5  N   UNL     1     -42.603  60.716 -50.458  1.00  0.00    -0.148 NA
HETATM    6  C   UNL     1     -42.921  60.033 -51.551  1.00  0.00     0.199 A 
HETATM    7  C   UNL     1     -41.878  59.259 -52.072  1.00  0.00     0.034 A 
HETATM    8  C   UNL     1     -42.078  58.466 -53.314  1.00  0.00     0.108 A 
HETATM    9  C   UNL     1     -43.472  58.694 -53.894  1.00  0.00     0.081 A 
HETATM   10  C   UNL     1     -43.751  58.085 -55.154  1.00  0.00     0.100 C 
HETATM   11  N   UNL     1     -43.957  57.625 -56.200  1.00  0.00    -0.191 NA
HETATM   12  C   UNL     1     -44.407  59.470 -53.286  1.00  0.00     0.140 A 
HETATM   13  O   UNL     1     -44.152  60.140 -52.082  1.00  0.00    -0.277 OA
ENDROOT
BRANCH   8  14
HETATM   14  C   UNL     1     -41.786  56.995 -53.032  1.00  0.00    -0.010 A 
HETATM   15  C   UNL     1     -42.282  56.270 -51.935  1.00  0.00     0.076 A 
HETATM   16  C   UNL     1     -42.000  54.907 -51.783  1.00  0.00     0.049 A 
HETATM   17  C   UNL     1     -41.288  54.204 -52.765  1.00  0.00    -0.023 A 
HETATM   18  C   UNL     1     -40.825  54.895 -53.903  1.00  0.00    -0.025 A 
HETATM   19  C   UNL     1     -41.039  52.827 -52.648  1.00  0.00     0.012 A 
HETATM   20  C   UNL     1     -41.066  56.276 -54.013  1.00  0.00     0.023 A 
HETATM   21  C   UNL     1     -40.143  54.188 -54.907  1.00  0.00     0.012 A 
HETATM   22  C   UNL     1     -39.916  52.816 -54.785  1.00  0.00     0.001 A 
HETATM   23  C   UNL     1     -40.360  52.137 -53.654  1.00  0.00     0.001 A 
BRANCH  15  24
HETATM   24  O   UNL     1     -42.988  56.922 -50.960  1.00  0.00    -0.355 OA
HETATM   25  C   UNL     1     -44.369  56.566 -50.953  1.00  0.00     0.210 C 
ENDBRANCH  15  24
ENDBRANCH   8  14
BRANCH  12  26
HETATM   26  N   UNL     1     -45.676  59.712 -53.769  1.00  0.00    -0.282 NA
HETATM   27  H   UNL     1     -45.737  59.925 -54.762  1.00  0.00     0.126 HD
HETATM   28  H   UNL     1     -46.179  60.377 -53.186  1.00  0.00     0.126 HD
ENDBRANCH  12  26
TORSDOF 3
ENDMDL
MODEL 8
REMARK VINA RESULT:      -7.5      2.883      5.686
REMARK  3 active torsions:
REMARK  status: ('A' for Active; 'I' for Inactive)
REMARK    1  A    between atoms: C_8  and  C_9 
REMARK    2  A    between atoms: C_10  and  O_11 
REMARK    3  A    between atoms: C_24  and  N_25 
ROOT
HETATM    1  C   UNL     1     -44.124  54.690 -50.337  1.00  0.00     0.070 C 
HETATM    2  C   UNL     1     -42.897  54.268 -51.050  1.00  0.00     0.035 A 
HETATM    3  N   UNL     1     -41.927  53.499 -50.449  1.00  0.00    -0.280 N 
HETATM    4  H   UNL     1     -41.912  53.142 -49.499  1.00  0.00     0.189 HD
HETATM    5  N   UNL     1     -40.895  53.191 -51.258  1.00  0.00    -0.148 NA
HETATM    6  C   UNL     1     -41.209  53.834 -52.376  1.00  0.00     0.199 A 
HETATM    7  C   UNL     1     -42.427  54.520 -52.324  1.00  0.00     0.034 A 
HETATM    8  C   UNL     1     -42.925  55.259 -53.515  1.00  0.00     0.108 A 
HETATM    9  C   UNL     1     -41.985  55.082 -54.706  1.00  0.00     0.081 A 
HETATM   10  C   UNL     1     -42.411  55.641 -55.948  1.00  0.00     0.100 C 
HETATM   11  N   UNL     1     -42.782  56.058 -56.965  1.00  0.00    -0.191 NA
HETATM   12  C   UNL     1     -40.818  54.392 -54.628  1.00  0.00     0.140 A 
HETATM   13  O   UNL     1     -40.395  53.770 -53.445  1.00  0.00    -0.277 OA
ENDROOT
BRANCH   8  14
HETATM   14  C   UNL     1     -43.149  56.724 -53.149  1.00  0.00    -0.010 A 
HETATM   15  C   UNL     1     -44.253  57.496 -53.547  1.00  0.00     0.076 A 
HETATM   16  C   UNL     1     -44.398  58.822 -53.121  1.00  0.00     0.049 A 
HETATM   17  C   UNL     1     -43.492  59.392 -52.215  1.00  0.00    -0.023 A 
HETATM   18  C   UNL     1     -42.405  58.621 -51.756  1.00  0.00    -0.025 A 
HETATM   19  C   UNL     1     -43.653  60.705 -51.743  1.00  0.00     0.012 A 
HETATM   20  C   UNL     1     -42.240  57.311 -52.239  1.00  0.00     0.023 A 
HETATM   21  C   UNL     1     -41.516  59.176 -50.821  1.00  0.00     0.012 A 
HETATM   22  C   UNL     1     -41.697  60.476 -50.349  1.00  0.00     0.001 A 
HETATM   23  C   UNL     1     -42.762  61.243 -50.813  1.00  0.00     0.001 A 
BRANCH  15  24
HETATM   24  O   UNL     1     -45.162  56.970 -54.425  1.00  0.00    -0.355 OA
HETATM   25  C   UNL     1     -45.507  57.880 -55.467  1.00  0.00     0.210 C 
ENDBRANCH  15  24
ENDBRANCH   8  14
BRANCH  12  26
HETATM   26  N   UNL     1     -39.938  54.199 -55.673  1.00  0.00    -0.282 NA
HETATM   27  H   UNL     1     -39.162  53.568 -55.486  1.00  0.00     0.126 HD
HETATM   28  H   UNL     1     -39.644  55.083 -56.084  1.00  0.00     0.126 HD
ENDBRANCH  12  26
TORSDOF 3
ENDMDL
MODEL 9
REMARK VINA RESULT:      -7.3      2.814      5.498
REMARK  3 active torsions:
REMARK  status: ('A' for Active; 'I' for Inactive)
REMARK    1  A    between atoms: C_8  and  C_9 
REMARK    2  A    between atoms: C_10  and  O_11 
REMARK    3  A    between atoms: C_24  and  N_25 
ROOT
HETATM    1  C   UNL     1     -42.698  53.981 -51.160  1.00  0.00     0.070 C 
HETATM    2  C   UNL     1     -42.276  53.966 -52.578  1.00  0.00     0.035 A 
HETATM    3  N   UNL     1     -41.438  52.998 -53.085  1.00  0.00    -0.280 N 
HETATM    4  H   UNL     1     -41.017  52.217 -52.593  1.00  0.00     0.189 HD
HETATM    5  N   UNL     1     -41.184  53.130 -54.401  1.00  0.00    -0.148 NA
HETATM    6  C   UNL     1     -41.839  54.244 -54.707  1.00  0.00     0.199 A 
HETATM    7  C   UNL     1     -42.535  54.816 -53.636  1.00  0.00     0.034 A 
HETATM    8  C   UNL     1     -43.342  56.049 -53.837  1.00  0.00     0.108 A 
HETATM    9  C   UNL     1     -43.327  56.484 -55.301  1.00  0.00     0.081 A 
HETATM   10  C   UNL     1     -44.163  57.586 -55.651  1.00  0.00     0.100 C 
HETATM   11  N   UNL     1     -44.878  58.454 -55.939  1.00  0.00    -0.191 NA
HETATM   12  C   UNL     1     -42.600  55.844 -56.253  1.00  0.00     0.140 A 
HETATM   13  O   UNL     1     -41.819  54.717 -55.965  1.00  0.00    -0.277 OA
ENDROOT
BRANCH   8  14
HETATM   14  C   UNL     1     -42.850  57.140 -52.889  1.00  0.00    -0.010 A 
HETATM   15  C   UNL     1     -43.659  57.850 -51.987  1.00  0.00     0.076 A 
HETATM   16  C   UNL     1     -43.110  58.802 -51.119  1.00  0.00     0.049 A 
HETATM   17  C   UNL     1     -41.725  59.013 -51.064  1.00  0.00    -0.023 A 
HETATM   18  C   UNL     1     -40.884  58.274 -51.920  1.00  0.00    -0.025 A 
HETATM   19  C   UNL     1     -41.157  59.931 -50.165  1.00  0.00     0.012 A 
HETATM   20  C   UNL     1     -41.456  57.365 -52.827  1.00  0.00     0.023 A 
HETATM   21  C   UNL     1     -39.493  58.456 -51.843  1.00  0.00     0.012 A 
HETATM   22  C   UNL     1     -38.941  59.360 -50.934  1.00  0.00     0.001 A 
HETATM   23  C   UNL     1     -39.773  60.101 -50.099  1.00  0.00     0.001 A 
BRANCH  15  24
HETATM   24  O   UNL     1     -45.015  57.664 -52.008  1.00  0.00    -0.355 OA
HETATM   25  C   UNL     1     -45.704  58.560 -51.138  1.00  0.00     0.210 C 
ENDBRANCH  15  24
ENDBRANCH   8  14
BRANCH  12  26
HETATM   26  N   UNL     1     -42.556  56.193 -57.588  1.00  0.00    -0.282 NA
HETATM   27  H   UNL     1     -41.782  56.792 -57.863  1.00  0.00     0.126 HD
HETATM   28  H   UNL     1     -43.459  56.531 -57.917  1.00  0.00     0.126 HD
ENDBRANCH  12  26
TORSDOF 3
ENDMDL
MODEL 10
REMARK VINA RESULT:      -7.2      4.216      6.193
REMARK  3 active torsions:
REMARK  status: ('A' for Active; 'I' for Inactive)
REMARK    1  A    between atoms: C_8  and  C_9 
REMARK    2  A    between atoms: C_10  and  O_11 
REMARK    3  A    between atoms: C_24  and  N_25 
ROOT
HETATM    1  C   UNL     1     -47.360  57.658 -57.357  1.00  0.00     0.070 C 
HETATM    2  C   UNL     1     -46.411  57.342 -58.449  1.00  0.00     0.035 A 
HETATM    3  N   UNL     1     -46.754  56.532 -59.508  1.00  0.00    -0.280 N 
HETATM    4  H   UNL     1     -47.639  56.065 -59.677  1.00  0.00     0.189 HD
HETATM    5  N   UNL     1     -45.772  56.378 -60.418  1.00  0.00    -0.148 NA
HETATM    6  C   UNL     1     -44.775  57.069 -59.879  1.00  0.00     0.199 A 
HETATM    7  C   UNL     1     -45.092  57.690 -58.666  1.00  0.00     0.034 A 
HETATM    8  C   UNL     1     -44.083  58.526 -57.964  1.00  0.00     0.108 A 
HETATM    9  C   UNL     1     -42.791  58.626 -58.772  1.00  0.00     0.081 A 
HETATM   10  C   UNL     1     -41.783  59.500 -58.266  1.00  0.00     0.100 C 
HETATM   11  N   UNL     1     -40.985  60.246 -57.874  1.00  0.00    -0.191 NA
HETATM   12  C   UNL     1     -42.600  57.964 -59.943  1.00  0.00     0.140 A 
HETATM   13  O   UNL     1     -43.589  57.149 -60.509  1.00  0.00    -0.277 OA
ENDROOT
BRANCH   8  14
HETATM   14  C   UNL     1     -43.860  57.979 -56.556  1.00  0.00    -0.010 A 
HETATM   15  C   UNL     1     -44.276  58.608 -55.371  1.00  0.00     0.076 A 
HETATM   16  C   UNL     1     -44.071  58.006 -54.123  1.00  0.00     0.049 A 
HETATM   17  C   UNL     1     -43.523  56.720 -54.025  1.00  0.00    -0.023 A 
HETATM   18  C   UNL     1     -43.147  56.043 -55.202  1.00  0.00    -0.025 A 
HETATM   19  C   UNL     1     -43.355  56.085 -52.783  1.00  0.00     0.012 A 
HETATM   20  C   UNL     1     -43.305  56.684 -56.443  1.00  0.00     0.023 A 
HETATM   21  C   UNL     1     -42.631  54.739 -55.111  1.00  0.00     0.012 A 
HETATM   22  C   UNL     1     -42.485  54.115 -53.871  1.00  0.00     0.001 A 
HETATM   23  C   UNL     1     -42.842  54.789 -52.707  1.00  0.00     0.001 A 
BRANCH  15  24
HETATM   24  O   UNL     1     -44.822  59.862 -55.429  1.00  0.00    -0.355 OA
HETATM   25  C   UNL     1     -45.248  60.334 -54.152  1.00  0.00     0.210 C 
ENDBRANCH  15  24
ENDBRANCH   8  14
BRANCH  12  26
HETATM   26  N   UNL     1     -41.457  58.024 -60.713  1.00  0.00    -0.282 NA
HETATM   27  H   UNL     1     -41.518  58.599 -61.550  1.00  0.00     0.126 HD
HETATM   28  H   UNL     1     -41.075  57.097 -60.891  1.00  0.00     0.126 HD
ENDBRANCH  12  26
TORSDOF 3
ENDMDL
