MODEL 1
REMARK VINA RESULT:      -7.4      0.000      0.000
REMARK  4 active torsions:
REMARK  status: ('A' for Active; 'I' for Inactive)
REMARK    1  A    between atoms: C_2  and  C_3 
REMARK    2  A    between atoms: C_4  and  N_5 
REMARK       I    between atoms: N_5  and  C_6 
REMARK       I    between atoms: C_6  and  N_7 
REMARK    3  A    between atoms: C_8  and  C_9 
REMARK    4  A    between atoms: C_21  and  C_22 
ROOT
HETATM    1  N   UNL     1     -42.991  56.651 -55.758  1.00  0.00    -0.308 N 
HETATM    2  C   UNL     1     -42.503  57.779 -56.383  1.00  0.00     0.323 C 
HETATM    3  N   UNL     1     -42.741  57.824 -57.747  1.00  0.00    -0.325 N 
HETATM    4  C   UNL     1     -43.097  56.691 -58.604  1.00  0.00     0.126 C 
HETATM    5  C   UNL     1     -42.198  56.913 -59.831  1.00  0.00     0.032 C 
HETATM    6  C   UNL     1     -42.169  58.429 -59.965  1.00  0.00     0.022 C 
HETATM    7  C   UNL     1     -42.090  58.878 -58.516  1.00  0.00     0.128 C 
HETATM    8  O   UNL     1     -41.904  58.684 -55.808  1.00  0.00    -0.247 OA
HETATM    9  H   UNL     1     -43.932  56.444 -56.055  1.00  0.00     0.170 HD
ENDROOT
BRANCH   1  10
HETATM   10  C   UNL     1     -42.675  56.348 -54.407  1.00  0.00     0.049 A 
HETATM   11  C   UNL     1     -43.542  56.806 -53.385  1.00  0.00    -0.031 A 
HETATM   12  C   UNL     1     -43.242  56.518 -52.043  1.00  0.00     0.009 A 
HETATM   13  C   UNL     1     -42.107  55.794 -51.706  1.00  0.00     0.001 A 
HETATM   14  C   UNL     1     -41.269  55.322 -52.710  1.00  0.00     0.009 A 
HETATM   15  C   UNL     1     -41.543  55.562 -54.073  1.00  0.00    -0.031 A 
BRANCH  11  16
HETATM   16  C   UNL     1     -44.776  57.643 -53.651  1.00  0.00     0.036 C 
HETATM   17  C   UNL     1     -44.558  59.107 -53.302  1.00  0.00     0.010 C 
ENDBRANCH  11  16
BRANCH  15  18
HETATM   18  C   UNL     1     -40.586  54.926 -55.066  1.00  0.00     0.036 C 
HETATM   19  C   UNL     1     -40.211  53.474 -54.790  1.00  0.00     0.010 C 
ENDBRANCH  15  18
ENDBRANCH   1  10
BRANCH   4  20
HETATM   20  C   UNL     1     -44.570  56.672 -58.954  1.00  0.00     0.014 A 
HETATM   21  C   UNL     1     -45.609  57.627 -58.705  1.00  0.00     0.061 A 
HETATM   22  C   UNL     1     -45.555  58.945 -58.022  1.00  0.00     0.073 C 
HETATM   23  N   UNL     1     -46.788  57.221 -59.192  1.00  0.00    -0.179 NA
HETATM   24  N   UNL     1     -46.527  56.047 -59.764  1.00  0.00    -0.282 N 
HETATM   25  H   UNL     1     -47.288  55.562 -60.230  1.00  0.00     0.189 HD
HETATM   26  C   UNL     1     -45.228  55.651 -59.635  1.00  0.00     0.034 A 
HETATM   27  C   UNL     1     -44.765  54.364 -60.208  1.00  0.00     0.070 C 
ENDBRANCH   4  20
TORSDOF 4
ENDMDL
MODEL 2
REMARK VINA RESULT:      -7.3      0.168      2.704
REMARK  4 active torsions:
REMARK  status: ('A' for Active; 'I' for Inactive)
REMARK    1  A    between atoms: C_2  and  C_3 
REMARK    2  A    between atoms: C_4  and  N_5 
REMARK       I    between atoms: N_5  and  C_6 
REMARK       I    between atoms: C_6  and  N_7 
REMARK    3  A    between atoms: C_8  and  C_9 
REMARK    4  A    between atoms: C_21  and  C_22 
ROOT
HETATM    1  N   UNL     1     -43.004  56.619 -55.631  1.00  0.00    -0.308 N 
HETATM    2  C   UNL     1     -42.495  57.752 -56.229  1.00  0.00     0.323 C 
HETATM    3  N   UNL     1     -42.717  57.826 -57.595  1.00  0.00    -0.325 N 
HETATM    4  C   UNL     1     -43.080  56.714 -58.476  1.00  0.00     0.126 C 
HETATM    5  C   UNL     1     -42.165  56.947 -59.690  1.00  0.00     0.032 C 
HETATM    6  C   UNL     1     -42.113  58.465 -59.795  1.00  0.00     0.022 C 
HETATM    7  C   UNL     1     -42.044  58.885 -58.336  1.00  0.00     0.128 C 
HETATM    8  O   UNL     1     -41.889  58.638 -55.631  1.00  0.00    -0.247 OA
HETATM    9  H   UNL     1     -43.945  56.431 -55.942  1.00  0.00     0.170 HD
ENDROOT
BRANCH   1  10
HETATM   10  C   UNL     1     -42.707  56.286 -54.283  1.00  0.00     0.049 A 
HETATM   11  C   UNL     1     -41.549  55.516 -54.011  1.00  0.00    -0.031 A 
HETATM   12  C   UNL     1     -41.243  55.174 -52.682  1.00  0.00     0.009 A 
HETATM   13  C   UNL     1     -42.061  55.578 -51.635  1.00  0.00     0.001 A 
HETATM   14  C   UNL     1     -43.182  56.355 -51.900  1.00  0.00     0.009 A 
HETATM   15  C   UNL     1     -43.516  56.747 -53.214  1.00  0.00    -0.031 A 
BRANCH  11  16
HETATM   16  C   UNL     1     -40.625  54.989 -55.088  1.00  0.00     0.036 C 
HETATM   17  C   UNL     1     -40.235  53.539 -54.846  1.00  0.00     0.010 C 
ENDBRANCH  11  16
BRANCH  15  18
HETATM   18  C   UNL     1     -44.725  57.656 -53.351  1.00  0.00     0.036 C 
HETATM   19  C   UNL     1     -44.453  59.149 -53.203  1.00  0.00     0.010 C 
ENDBRANCH  15  18
ENDBRANCH   1  10
BRANCH   4  20
HETATM   20  C   UNL     1     -44.548  56.722 -58.842  1.00  0.00     0.014 A 
HETATM   21  C   UNL     1     -45.589  57.661 -58.540  1.00  0.00     0.061 A 
HETATM   22  C   UNL     1     -45.540  58.930 -57.769  1.00  0.00     0.073 C 
HETATM   23  N   UNL     1     -46.763  57.291 -59.065  1.00  0.00    -0.179 NA
HETATM   24  N   UNL     1     -46.499  56.157 -59.712  1.00  0.00    -0.282 N 
HETATM   25  H   UNL     1     -47.255  55.707 -60.217  1.00  0.00     0.189 HD
HETATM   26  C   UNL     1     -45.202  55.751 -59.597  1.00  0.00     0.034 A 
HETATM   27  C   UNL     1     -44.734  54.504 -60.251  1.00  0.00     0.070 C 
ENDBRANCH   4  20
TORSDOF 4
ENDMDL
MODEL 3
REMARK VINA RESULT:      -7.1      2.616      4.818
REMARK  4 active torsions:
REMARK  status: ('A' for Active; 'I' for Inactive)
REMARK    1  A    between atoms: C_2  and  C_3 
REMARK    2  A    between atoms: C_4  and  N_5 
REMARK       I    between atoms: N_5  and  C_6 
REMARK       I    between atoms: C_6  and  N_7 
REMARK    3  A    between atoms: C_8  and  C_9 
REMARK    4  A    between atoms: C_21  and  C_22 
ROOT
HETATM    1  N   UNL     1     -41.859  55.853 -53.122  1.00  0.00    -0.308 N 
HETATM    2  C   UNL     1     -43.193  56.188 -53.031  1.00  0.00     0.323 C 
HETATM    3  N   UNL     1     -43.640  57.031 -54.036  1.00  0.00    -0.325 N 
HETATM    4  C   UNL     1     -42.805  57.856 -54.911  1.00  0.00     0.126 C 
HETATM    5  C   UNL     1     -43.560  59.195 -54.916  1.00  0.00     0.032 C 
HETATM    6  C   UNL     1     -45.020  58.766 -54.870  1.00  0.00     0.022 C 
HETATM    7  C   UNL     1     -44.979  57.592 -53.907  1.00  0.00     0.128 C 
HETATM    8  O   UNL     1     -43.948  55.791 -52.147  1.00  0.00    -0.247 OA
HETATM    9  H   UNL     1     -41.607  55.597 -54.065  1.00  0.00     0.170 HD
ENDROOT
BRANCH   1  10
HETATM   10  C   UNL     1     -41.189  55.158 -52.081  1.00  0.00     0.049 A 
HETATM   11  C   UNL     1     -40.746  53.834 -52.320  1.00  0.00    -0.031 A 
HETATM   12  C   UNL     1     -40.085  53.131 -51.298  1.00  0.00     0.009 A 
HETATM   13  C   UNL     1     -39.863  53.715 -50.058  1.00  0.00     0.001 A 
HETATM   14  C   UNL     1     -40.275  55.023 -49.832  1.00  0.00     0.009 A 
HETATM   15  C   UNL     1     -40.918  55.779 -50.835  1.00  0.00    -0.031 A 
BRANCH  11  16
HETATM   16  C   UNL     1     -40.984  53.096 -53.620  1.00  0.00     0.036 C 
HETATM   17  C   UNL     1     -39.925  52.035 -53.877  1.00  0.00     0.010 C 
ENDBRANCH  11  16
BRANCH  15  18
HETATM   18  C   UNL     1     -41.247  57.218 -50.476  1.00  0.00     0.036 C 
HETATM   19  C   UNL     1     -40.263  58.269 -50.979  1.00  0.00     0.010 C 
ENDBRANCH  15  18
ENDBRANCH   1  10
BRANCH   4  20
HETATM   20  C   UNL     1     -42.658  57.264 -56.296  1.00  0.00     0.014 A 
HETATM   21  C   UNL     1     -42.843  55.925 -56.773  1.00  0.00     0.061 A 
HETATM   22  C   UNL     1     -43.245  54.695 -56.041  1.00  0.00     0.073 C 
HETATM   23  N   UNL     1     -42.613  55.825 -58.087  1.00  0.00    -0.179 NA
HETATM   24  N   UNL     1     -42.309  57.064 -58.469  1.00  0.00    -0.282 N 
HETATM   25  H   UNL     1     -42.120  57.229 -59.452  1.00  0.00     0.189 HD
HETATM   26  C   UNL     1     -42.294  57.964 -57.444  1.00  0.00     0.034 A 
HETATM   27  C   UNL     1     -41.968  59.391 -57.689  1.00  0.00     0.070 C 
ENDBRANCH   4  20
TORSDOF 4
ENDMDL
MODEL 4
REMARK VINA RESULT:      -7.1      3.618      6.088
REMARK  4 active torsions:
REMARK  status: ('A' for Active; 'I' for Inactive)
REMARK    1  A    between atoms: C_2  and  C_3 
REMARK    2  A    between atoms: C_4  and  N_5 
REMARK       I    between atoms: N_5  and  C_6 
REMARK       I    between atoms: C_6  and  N_7 
REMARK    3  A    between atoms: C_8  and  C_9 
REMARK    4  A    between atoms: C_21  and  C_22 
ROOT
HETATM    1  N   UNL     1     -41.808  55.340 -52.332  1.00  0.00    -0.308 N 
HETATM    2  C   UNL     1     -43.020  55.493 -51.693  1.00  0.00     0.323 C 
HETATM    3  N   UNL     1     -43.576  56.756 -51.815  1.00  0.00    -0.325 N 
HETATM    4  C   UNL     1     -42.872  57.979 -52.207  1.00  0.00     0.126 C 
HETATM    5  C   UNL     1     -43.410  59.005 -51.195  1.00  0.00     0.032 C 
HETATM    6  C   UNL     1     -44.861  58.578 -51.014  1.00  0.00     0.022 C 
HETATM    7  C   UNL     1     -44.751  57.063 -51.009  1.00  0.00     0.128 C 
HETATM    8  O   UNL     1     -43.585  54.605 -51.059  1.00  0.00    -0.247 OA
HETATM    9  H   UNL     1     -41.832  55.730 -53.262  1.00  0.00     0.170 HD
ENDROOT
BRANCH   1  10
HETATM   10  C   UNL     1     -41.009  54.180 -52.155  1.00  0.00     0.049 A 
HETATM   11  C   UNL     1     -40.902  53.257 -53.225  1.00  0.00    -0.031 A 
HETATM   12  C   UNL     1     -40.118  52.102 -53.064  1.00  0.00     0.009 A 
HETATM   13  C   UNL     1     -39.452  51.852 -51.873  1.00  0.00     0.001 A 
HETATM   14  C   UNL     1     -39.536  52.770 -50.832  1.00  0.00     0.009 A 
HETATM   15  C   UNL     1     -40.288  53.957 -50.955  1.00  0.00    -0.031 A 
BRANCH  11  16
HETATM   16  C   UNL     1     -41.629  53.419 -54.543  1.00  0.00     0.036 C 
HETATM   17  C   UNL     1     -40.881  54.335 -55.499  1.00  0.00     0.010 C 
ENDBRANCH  11  16
BRANCH  15  18
HETATM   18  C   UNL     1     -40.234  54.905 -49.770  1.00  0.00     0.036 C 
HETATM   19  C   UNL     1     -40.777  54.357 -48.455  1.00  0.00     0.010 C 
ENDBRANCH  15  18
ENDBRANCH   1  10
BRANCH   4  20
HETATM   20  C   UNL     1     -43.150  58.372 -53.642  1.00  0.00     0.014 A 
HETATM   21  C   UNL     1     -43.691  57.621 -54.736  1.00  0.00     0.061 A 
HETATM   22  C   UNL     1     -44.153  56.210 -54.793  1.00  0.00     0.073 C 
HETATM   23  N   UNL     1     -43.780  58.355 -55.851  1.00  0.00    -0.179 NA
HETATM   24  N   UNL     1     -43.333  59.559 -55.496  1.00  0.00    -0.282 N 
HETATM   25  H   UNL     1     -43.336  60.296 -56.194  1.00  0.00     0.189 HD
HETATM   26  C   UNL     1     -42.918  59.628 -54.198  1.00  0.00     0.034 A 
HETATM   27  C   UNL     1     -42.385  60.893 -53.637  1.00  0.00     0.070 C 
ENDBRANCH   4  20
TORSDOF 4
ENDMDL
MODEL 5
REMARK VINA RESULT:      -6.9      2.625      4.223
REMARK  4 active torsions:
REMARK  status: ('A' for Active; 'I' for Inactive)
REMARK    1  A    between atoms: C_2  and  C_3 
REMARK    2  A    between atoms: C_4  and  N_5 
REMARK       I    between atoms: N_5  and  C_6 
REMARK       I    between atoms: C_6  and  N_7 
REMARK    3  A    between atoms: C_8  and  C_9 
REMARK    4  A    between atoms: C_21  and  C_22 
ROOT
HETATM    1  N   UNL     1     -41.874  55.882 -53.205  1.00  0.00    -0.308 N 
HETATM    2  C   UNL     1     -43.227  56.142 -53.149  1.00  0.00     0.323 C 
HETATM    3  N   UNL     1     -43.685  57.000 -54.136  1.00  0.00    -0.325 N 
HETATM    4  C   UNL     1     -42.867  57.901 -54.950  1.00  0.00     0.126 C 
HETATM    5  C   UNL     1     -43.692  59.199 -54.931  1.00  0.00     0.032 C 
HETATM    6  C   UNL     1     -45.127  58.692 -54.952  1.00  0.00     0.022 C 
HETATM    7  C   UNL     1     -45.056  57.485 -54.033  1.00  0.00     0.128 C 
HETATM    8  O   UNL     1     -43.988  55.673 -52.307  1.00  0.00    -0.247 OA
HETATM    9  H   UNL     1     -41.578  55.677 -54.147  1.00  0.00     0.170 HD
ENDROOT
BRANCH   1  10
HETATM   10  C   UNL     1     -41.203  55.182 -52.168  1.00  0.00     0.049 A 
HETATM   11  C   UNL     1     -40.994  55.837 -50.929  1.00  0.00    -0.031 A 
HETATM   12  C   UNL     1     -40.327  55.160 -49.893  1.00  0.00     0.009 A 
HETATM   13  C   UNL     1     -39.869  53.862 -50.069  1.00  0.00     0.001 A 
HETATM   14  C   UNL     1     -40.097  53.210 -51.275  1.00  0.00     0.009 A 
HETATM   15  C   UNL     1     -40.785  53.838 -52.335  1.00  0.00    -0.031 A 
BRANCH  11  16
HETATM   16  C   UNL     1     -41.413  57.266 -50.659  1.00  0.00     0.036 C 
HETATM   17  C   UNL     1     -40.292  58.254 -50.946  1.00  0.00     0.010 C 
ENDBRANCH  11  16
BRANCH  15  18
HETATM   18  C   UNL     1     -41.029  52.985 -53.568  1.00  0.00     0.036 C 
HETATM   19  C   UNL     1     -39.930  51.986 -53.912  1.00  0.00     0.010 C 
ENDBRANCH  15  18
ENDBRANCH   1  10
BRANCH   4  20
HETATM   20  C   UNL     1     -42.642  57.373 -56.351  1.00  0.00     0.014 A 
HETATM   21  C   UNL     1     -42.776  56.052 -56.891  1.00  0.00     0.061 A 
HETATM   22  C   UNL     1     -43.185  54.784 -56.232  1.00  0.00     0.073 C 
HETATM   23  N   UNL     1     -42.483  56.013 -58.196  1.00  0.00    -0.179 NA
HETATM   24  N   UNL     1     -42.188  57.274 -58.510  1.00  0.00    -0.282 N 
HETATM   25  H   UNL     1     -41.957  57.485 -59.476  1.00  0.00     0.189 HD
HETATM   26  C   UNL     1     -42.240  58.129 -57.449  1.00  0.00     0.034 A 
HETATM   27  C   UNL     1     -41.934  59.571 -57.618  1.00  0.00     0.070 C 
ENDBRANCH   4  20
TORSDOF 4
ENDMDL
MODEL 6
REMARK VINA RESULT:      -6.6      2.733      4.432
REMARK  4 active torsions:
REMARK  status: ('A' for Active; 'I' for Inactive)
REMARK    1  A    between atoms: C_2  and  C_3 
REMARK    2  A    between atoms: C_4  and  N_5 
REMARK       I    between atoms: N_5  and  C_6 
REMARK       I    between atoms: C_6  and  N_7 
REMARK    3  A    between atoms: C_8  and  C_9 
REMARK    4  A    between atoms: C_21  and  C_22 
ROOT
HETATM    1  N   UNL     1     -41.566  54.975 -53.408  1.00  0.00    -0.308 N 
HETATM    2  C   UNL     1     -42.886  55.286 -53.162  1.00  0.00     0.323 C 
HETATM    3  N   UNL     1     -43.381  56.328 -53.931  1.00  0.00    -0.325 N 
HETATM    4  C   UNL     1     -42.588  57.320 -54.660  1.00  0.00     0.126 C 
HETATM    5  C   UNL     1     -43.319  58.631 -54.328  1.00  0.00     0.032 C 
HETATM    6  C   UNL     1     -44.781  58.206 -54.281  1.00  0.00     0.022 C 
HETATM    7  C   UNL     1     -44.700  56.852 -53.598  1.00  0.00     0.128 C 
HETATM    8  O   UNL     1     -43.591  54.711 -52.337  1.00  0.00    -0.247 OA
HETATM    9  H   UNL     1     -41.378  54.928 -54.398  1.00  0.00     0.170 HD
ENDROOT
BRANCH   1  10
HETATM   10  C   UNL     1     -40.845  54.070 -52.586  1.00  0.00     0.049 A 
HETATM   11  C   UNL     1     -40.514  54.463 -51.266  1.00  0.00    -0.031 A 
HETATM   12  C   UNL     1     -39.796  53.581 -50.441  1.00  0.00     0.009 A 
HETATM   13  C   UNL     1     -39.405  52.331 -50.903  1.00  0.00     0.001 A 
HETATM   14  C   UNL     1     -39.751  51.935 -52.189  1.00  0.00     0.009 A 
HETATM   15  C   UNL     1     -40.494  52.775 -53.045  1.00  0.00    -0.031 A 
BRANCH  11  16
HETATM   16  C   UNL     1     -40.854  55.822 -50.690  1.00  0.00     0.036 C 
HETATM   17  C   UNL     1     -41.327  55.728 -49.247  1.00  0.00     0.010 C 
ENDBRANCH  11  16
BRANCH  15  18
HETATM   18  C   UNL     1     -40.867  52.187 -54.395  1.00  0.00     0.036 C 
HETATM   19  C   UNL     1     -40.474  50.731 -54.617  1.00  0.00     0.010 C 
ENDBRANCH  15  18
ENDBRANCH   1  10
BRANCH   4  20
HETATM   20  C   UNL     1     -42.538  57.040 -56.147  1.00  0.00     0.014 A 
HETATM   21  C   UNL     1     -42.245  57.898 -57.257  1.00  0.00     0.061 A 
HETATM   22  C   UNL     1     -41.895  59.342 -57.285  1.00  0.00     0.073 C 
HETATM   23  N   UNL     1     -42.303  57.244 -58.423  1.00  0.00    -0.179 NA
HETATM   24  N   UNL     1     -42.600  55.989 -58.089  1.00  0.00    -0.282 N 
HETATM   25  H   UNL     1     -42.669  55.300 -58.831  1.00  0.00     0.189 HD
HETATM   26  C   UNL     1     -42.778  55.807 -56.749  1.00  0.00     0.034 A 
HETATM   27  C   UNL     1     -43.121  54.472 -56.202  1.00  0.00     0.070 C 
ENDBRANCH   4  20
TORSDOF 4
ENDMDL
MODEL 7
REMARK VINA RESULT:      -6.5      3.783      5.754
REMARK  4 active torsions:
REMARK  status: ('A' for Active; 'I' for Inactive)
REMARK    1  A    between atoms: C_2  and  C_3 
REMARK    2  A    between atoms: C_4  and  N_5 
REMARK       I    between atoms: N_5  and  C_6 
REMARK       I    between atoms: C_6  and  N_7 
REMARK    3  A    between atoms: C_8  and  C_9 
REMARK    4  A    between atoms: C_21  and  C_22 
ROOT
HETATM    1  N   UNL     1     -42.112  56.086 -53.091  1.00  0.00    -0.308 N 
HETATM    2  C   UNL     1     -41.460  57.285 -53.280  1.00  0.00     0.323 C 
HETATM    3  N   UNL     1     -42.300  58.376 -53.429  1.00  0.00    -0.325 N 
HETATM    4  C   UNL     1     -43.725  58.334 -53.766  1.00  0.00     0.126 C 
HETATM    5  C   UNL     1     -43.844  59.446 -54.821  1.00  0.00     0.032 C 
HETATM    6  C   UNL     1     -42.860  60.496 -54.325  1.00  0.00     0.022 C 
HETATM    7  C   UNL     1     -41.704  59.644 -53.830  1.00  0.00     0.128 C 
HETATM    8  O   UNL     1     -40.238  57.410 -53.321  1.00  0.00    -0.247 OA
HETATM    9  H   UNL     1     -42.854  56.174 -52.414  1.00  0.00     0.170 HD
ENDROOT
BRANCH   1  10
HETATM   10  C   UNL     1     -41.421  54.846 -53.111  1.00  0.00     0.049 A 
HETATM   11  C   UNL     1     -41.266  54.171 -54.347  1.00  0.00    -0.031 A 
HETATM   12  C   UNL     1     -40.588  52.941 -54.383  1.00  0.00     0.009 A 
HETATM   13  C   UNL     1     -40.072  52.377 -53.224  1.00  0.00     0.001 A 
HETATM   14  C   UNL     1     -40.202  53.050 -52.015  1.00  0.00     0.009 A 
HETATM   15  C   UNL     1     -40.850  54.301 -51.933  1.00  0.00    -0.031 A 
BRANCH  11  16
HETATM   16  C   UNL     1     -41.835  54.682 -55.654  1.00  0.00     0.036 C 
HETATM   17  C   UNL     1     -43.255  54.192 -55.888  1.00  0.00     0.010 C 
ENDBRANCH  11  16
BRANCH  15  18
HETATM   18  C   UNL     1     -40.855  54.959 -50.564  1.00  0.00     0.036 C 
HETATM   19  C   UNL     1     -39.881  54.379 -49.545  1.00  0.00     0.010 C 
ENDBRANCH  15  18
ENDBRANCH   1  10
BRANCH   4  20
HETATM   20  C   UNL     1     -44.611  58.572 -52.563  1.00  0.00     0.014 A 
HETATM   21  C   UNL     1     -44.776  57.824 -51.352  1.00  0.00     0.061 A 
HETATM   22  C   UNL     1     -44.115  56.571 -50.903  1.00  0.00     0.073 C 
HETATM   23  N   UNL     1     -45.669  58.390 -50.532  1.00  0.00    -0.179 NA
HETATM   24  N   UNL     1     -46.062  59.490 -51.173  1.00  0.00    -0.282 N 
HETATM   25  H   UNL     1     -46.732  60.098 -50.712  1.00  0.00     0.189 HD
HETATM   26  C   UNL     1     -45.487  59.643 -52.400  1.00  0.00     0.034 A 
HETATM   27  C   UNL     1     -45.817  60.811 -53.254  1.00  0.00     0.070 C 
ENDBRANCH   4  20
TORSDOF 4
ENDMDL
MODEL 8
REMARK VINA RESULT:      -6.4      1.997      3.997
REMARK  4 active torsions:
REMARK  status: ('A' for Active; 'I' for Inactive)
REMARK    1  A    between atoms: C_2  and  C_3 
REMARK    2  A    between atoms: C_4  and  N_5 
REMARK       I    between atoms: N_5  and  C_6 
REMARK       I    between atoms: C_6  and  N_7 
REMARK    3  A    between atoms: C_8  and  C_9 
REMARK    4  A    between atoms: C_21  and  C_22 
ROOT
HETATM    1  N   UNL     1     -42.511  56.995 -54.964  1.00  0.00    -0.308 N 
HETATM    2  C   UNL     1     -43.866  57.073 -55.209  1.00  0.00     0.323 C 
HETATM    3  N   UNL     1     -44.197  57.731 -56.383  1.00  0.00    -0.325 N 
HETATM    4  C   UNL     1     -43.330  58.627 -57.150  1.00  0.00     0.126 C 
HETATM    5  C   UNL     1     -44.277  59.792 -57.483  1.00  0.00     0.032 C 
HETATM    6  C   UNL     1     -45.613  59.095 -57.704  1.00  0.00     0.022 C 
HETATM    7  C   UNL     1     -45.604  58.033 -56.619  1.00  0.00     0.128 C 
HETATM    8  O   UNL     1     -44.731  56.612 -54.469  1.00  0.00    -0.247 OA
HETATM    9  H   UNL     1     -42.004  56.717 -55.791  1.00  0.00     0.170 HD
ENDROOT
BRANCH   1  10
HETATM   10  C   UNL     1     -42.000  56.528 -53.725  1.00  0.00     0.049 A 
HETATM   11  C   UNL     1     -41.546  55.189 -53.636  1.00  0.00    -0.031 A 
HETATM   12  C   UNL     1     -41.041  54.710 -52.414  1.00  0.00     0.009 A 
HETATM   13  C   UNL     1     -40.984  55.530 -51.296  1.00  0.00     0.001 A 
HETATM   14  C   UNL     1     -41.406  56.851 -51.390  1.00  0.00     0.009 A 
HETATM   15  C   UNL     1     -41.896  57.386 -52.600  1.00  0.00    -0.031 A 
BRANCH  11  16
HETATM   16  C   UNL     1     -41.612  54.207 -54.786  1.00  0.00     0.036 C 
HETATM   17  C   UNL     1     -41.325  52.782 -54.337  1.00  0.00     0.010 C 
ENDBRANCH  11  16
BRANCH  15  18
HETATM   18  C   UNL     1     -42.252  58.862 -52.580  1.00  0.00     0.036 C 
HETATM   19  C   UNL     1     -41.654  59.674 -51.437  1.00  0.00     0.010 C 
ENDBRANCH  15  18
ENDBRANCH   1  10
BRANCH   4  20
HETATM   20  C   UNL     1     -42.761  57.965 -58.386  1.00  0.00     0.014 A 
HETATM   21  C   UNL     1     -42.765  56.594 -58.806  1.00  0.00     0.061 A 
HETATM   22  C   UNL     1     -43.340  55.392 -58.147  1.00  0.00     0.073 C 
HETATM   23  N   UNL     1     -42.150  56.430 -59.982  1.00  0.00    -0.179 NA
HETATM   24  N   UNL     1     -41.773  57.657 -60.337  1.00  0.00    -0.282 N 
HETATM   25  H   UNL     1     -41.302  57.775 -61.229  1.00  0.00     0.189 HD
HETATM   26  C   UNL     1     -42.086  58.614 -59.416  1.00  0.00     0.034 A 
HETATM   27  C   UNL     1     -41.735  60.036 -59.648  1.00  0.00     0.070 C 
ENDBRANCH   4  20
TORSDOF 4
ENDMDL
MODEL 9
REMARK VINA RESULT:      -6.4      3.785      5.754
REMARK  4 active torsions:
REMARK  status: ('A' for Active; 'I' for Inactive)
REMARK    1  A    between atoms: C_2  and  C_3 
REMARK    2  A    between atoms: C_4  and  N_5 
REMARK       I    between atoms: N_5  and  C_6 
REMARK       I    between atoms: C_6  and  N_7 
REMARK    3  A    between atoms: C_8  and  C_9 
REMARK    4  A    between atoms: C_21  and  C_22 
ROOT
HETATM    1  N   UNL     1     -42.114  56.141 -53.104  1.00  0.00    -0.308 N 
HETATM    2  C   UNL     1     -41.464  57.347 -53.250  1.00  0.00     0.323 C 
HETATM    3  N   UNL     1     -42.308  58.440 -53.371  1.00  0.00    -0.325 N 
HETATM    4  C   UNL     1     -43.729  58.404 -53.720  1.00  0.00     0.126 C 
HETATM    5  C   UNL     1     -43.845  59.548 -54.741  1.00  0.00     0.032 C 
HETATM    6  C   UNL     1     -42.868  60.585 -54.205  1.00  0.00     0.022 C 
HETATM    7  C   UNL     1     -41.713  59.722 -53.728  1.00  0.00     0.128 C 
HETATM    8  O   UNL     1     -40.243  57.477 -53.277  1.00  0.00    -0.247 OA
HETATM    9  H   UNL     1     -42.862  56.205 -52.429  1.00  0.00     0.170 HD
ENDROOT
BRANCH   1  10
HETATM   10  C   UNL     1     -41.419  54.904 -53.157  1.00  0.00     0.049 A 
HETATM   11  C   UNL     1     -40.938  54.340 -51.950  1.00  0.00    -0.031 A 
HETATM   12  C   UNL     1     -40.243  53.119 -51.986  1.00  0.00     0.009 A 
HETATM   13  C   UNL     1     -40.021  52.460 -53.187  1.00  0.00     0.001 A 
HETATM   14  C   UNL     1     -40.515  53.000 -54.369  1.00  0.00     0.009 A 
HETATM   15  C   UNL     1     -41.241  54.210 -54.381  1.00  0.00    -0.031 A 
BRANCH  11  16
HETATM   16  C   UNL     1     -41.089  55.007 -50.599  1.00  0.00     0.036 C 
HETATM   17  C   UNL     1     -40.036  54.534 -49.608  1.00  0.00     0.010 C 
ENDBRANCH  11  16
BRANCH  15  18
HETATM   18  C   UNL     1     -41.786  54.646 -55.729  1.00  0.00     0.036 C 
HETATM   19  C   UNL     1     -43.263  54.358 -55.974  1.00  0.00     0.010 C 
ENDBRANCH  15  18
ENDBRANCH   1  10
BRANCH   4  20
HETATM   20  C   UNL     1     -44.626  58.602 -52.517  1.00  0.00     0.014 A 
HETATM   21  C   UNL     1     -44.794  57.817 -51.329  1.00  0.00     0.061 A 
HETATM   22  C   UNL     1     -44.128  56.556 -50.912  1.00  0.00     0.073 C 
HETATM   23  N   UNL     1     -45.696  58.354 -50.499  1.00  0.00    -0.179 NA
HETATM   24  N   UNL     1     -46.092  59.469 -51.110  1.00  0.00    -0.282 N 
HETATM   25  H   UNL     1     -46.769  60.060 -50.637  1.00  0.00     0.189 HD
HETATM   26  C   UNL     1     -45.510  59.661 -52.329  1.00  0.00     0.034 A 
HETATM   27  C   UNL     1     -45.841  60.851 -53.150  1.00  0.00     0.070 C 
ENDBRANCH   4  20
TORSDOF 4
ENDMDL
MODEL 10
REMARK VINA RESULT:      -6.3      1.907      3.116
REMARK  4 active torsions:
REMARK  status: ('A' for Active; 'I' for Inactive)
REMARK    1  A    between atoms: C_2  and  C_3 
REMARK    2  A    between atoms: C_4  and  N_5 
REMARK       I    between atoms: N_5  and  C_6 
REMARK       I    between atoms: C_6  and  N_7 
REMARK    3  A    between atoms: C_8  and  C_9 
REMARK    4  A    between atoms: C_21  and  C_22 
ROOT
HETATM    1  N   UNL     1     -42.643  57.225 -55.152  1.00  0.00    -0.308 N 
HETATM    2  C   UNL     1     -43.991  57.279 -55.433  1.00  0.00     0.323 C 
HETATM    3  N   UNL     1     -44.301  57.907 -56.628  1.00  0.00    -0.325 N 
HETATM    4  C   UNL     1     -43.427  58.800 -57.392  1.00  0.00     0.126 C 
HETATM    5  C   UNL     1     -44.380  59.944 -57.774  1.00  0.00     0.032 C 
HETATM    6  C   UNL     1     -45.701  59.224 -58.014  1.00  0.00     0.022 C 
HETATM    7  C   UNL     1     -45.705  58.185 -56.906  1.00  0.00     0.128 C 
HETATM    8  O   UNL     1     -44.869  56.822 -54.705  1.00  0.00    -0.247 OA
HETATM    9  H   UNL     1     -42.111  56.937 -55.960  1.00  0.00     0.170 HD
ENDROOT
BRANCH   1  10
HETATM   10  C   UNL     1     -42.157  56.792 -53.890  1.00  0.00     0.049 A 
HETATM   11  C   UNL     1     -42.076  57.730 -52.832  1.00  0.00    -0.031 A 
HETATM   12  C   UNL     1     -41.593  57.318 -51.578  1.00  0.00     0.009 A 
HETATM   13  C   UNL     1     -41.193  56.006 -51.364  1.00  0.00     0.001 A 
HETATM   14  C   UNL     1     -41.297  55.079 -52.394  1.00  0.00     0.009 A 
HETATM   15  C   UNL     1     -41.800  55.438 -53.663  1.00  0.00    -0.031 A 
BRANCH  11  16
HETATM   16  C   UNL     1     -42.442  59.191 -52.983  1.00  0.00     0.036 C 
HETATM   17  C   UNL     1     -43.735  59.533 -52.258  1.00  0.00     0.010 C 
ENDBRANCH  11  16
BRANCH  15  18
HETATM   18  C   UNL     1     -41.928  54.310 -54.672  1.00  0.00     0.036 C 
HETATM   19  C   UNL     1     -41.020  53.107 -54.442  1.00  0.00     0.010 C 
ENDBRANCH  15  18
ENDBRANCH   1  10
BRANCH   4  20
HETATM   20  C   UNL     1     -42.818  58.119 -58.598  1.00  0.00     0.014 A 
HETATM   21  C   UNL     1     -42.773  56.738 -58.978  1.00  0.00     0.061 A 
HETATM   22  C   UNL     1     -43.322  55.538 -58.294  1.00  0.00     0.073 C 
HETATM   23  N   UNL     1     -42.133  56.558 -60.139  1.00  0.00    -0.179 NA
HETATM   24  N   UNL     1     -41.788  57.786 -60.525  1.00  0.00    -0.282 N 
HETATM   25  H   UNL     1     -41.306  57.892 -61.412  1.00  0.00     0.189 HD
HETATM   26  C   UNL     1     -42.145  58.759 -59.637  1.00  0.00     0.034 A 
HETATM   27  C   UNL     1     -41.833  60.184 -59.905  1.00  0.00     0.070 C 
ENDBRANCH   4  20
TORSDOF 4
ENDMDL
