MODEL 1
REMARK VINA RESULT:      -8.8      0.000      0.000
REMARK  5 active torsions:
REMARK  status: ('A' for Active; 'I' for Inactive)
REMARK    1  A    between atoms: C_4  and  N_5 
REMARK       I    between atoms: N_5  and  C_6 
REMARK       I    between atoms: C_6  and  N_7 
REMARK    2  A    between atoms: N_7  and  C_8 
REMARK    3  A    between atoms: C_10  and  C_11 
REMARK       I    between atoms: C_11  and  N_12 
REMARK    4  A    between atoms: N_12  and  C_13 
REMARK    5  A    between atoms: C_13  and  C_14 
ROOT
HETATM    1  C   UNL     1     -43.155  56.396 -56.209  1.00  0.00     0.175 A 
HETATM    2  S   UNL     1     -42.582  57.912 -56.726  1.00  0.00    -0.044 SA
HETATM    3  C   UNL     1     -42.738  57.421 -58.366  1.00  0.00     0.100 A 
HETATM    4  C   UNL     1     -43.214  56.118 -58.405  1.00  0.00     0.056 A 
HETATM    5  C   UNL     1     -43.484  55.293 -59.614  1.00  0.00     0.072 C 
HETATM    6  N   UNL     1     -43.465  55.554 -57.163  1.00  0.00    -0.228 NA
ENDROOT
BRANCH   1   7
HETATM    7  N   UNL     1     -43.342  56.062 -54.898  1.00  0.00    -0.287 N 
HETATM    8  C   UNL     1     -42.723  55.203 -54.044  1.00  0.00     0.326 C 
HETATM    9  N   UNL     1     -41.832  54.309 -54.563  1.00  0.00    -0.309 N 
HETATM   10  O   UNL     1     -43.052  55.270 -52.861  1.00  0.00    -0.247 OA
HETATM   11  H   UNL     1     -41.809  54.252 -55.569  1.00  0.00     0.170 HD
HETATM   12  H   UNL     1     -44.082  56.592 -54.456  1.00  0.00     0.172 HD
BRANCH   9  13
HETATM   13  C   UNL     1     -41.056  53.355 -53.872  1.00  0.00     0.036 A 
HETATM   14  C   UNL     1     -40.667  52.125 -54.409  1.00  0.00     0.036 A 
HETATM   15  C   UNL     1     -39.887  51.225 -53.665  1.00  0.00    -0.060 A 
HETATM   16  C   UNL     1     -39.506  49.897 -54.252  1.00  0.00     0.048 C 
HETATM   17  C   UNL     1     -39.521  51.556 -52.357  1.00  0.00     0.007 A 
HETATM   18  C   UNL     1     -39.910  52.776 -51.809  1.00  0.00     0.003 A 
HETATM   19  C   UNL     1     -40.674  53.670 -52.562  1.00  0.00     0.029 A 
ENDBRANCH   9  13
ENDBRANCH   1   7
BRANCH   3  20
HETATM   20  C   UNL     1     -42.393  58.276 -59.489  1.00  0.00     0.260 C 
HETATM   21  N   UNL     1     -43.041  59.491 -59.550  1.00  0.00    -0.352 N 
HETATM   22  H   UNL     1     -43.655  59.756 -58.793  1.00  0.00     0.163 HD
HETATM   23  O   UNL     1     -41.577  57.943 -60.345  1.00  0.00    -0.267 OA
BRANCH  21  24
HETATM   24  C   UNL     1     -42.765  60.461 -60.587  1.00  0.00     0.161 C 
BRANCH  24  25
HETATM   25  C   UNL     1     -41.618  61.399 -60.283  1.00  0.00    -0.040 A 
HETATM   26  C   UNL     1     -41.112  61.620 -58.993  1.00  0.00     0.010 A 
HETATM   27  C   UNL     1     -40.049  62.506 -58.785  1.00  0.00     0.024 A 
HETATM   28  C   UNL     1     -39.488  63.186 -59.863  1.00  0.00     0.034 A 
HETATM   29 CL   UNL     1     -38.185  64.278 -59.604  1.00  0.00    -0.084 Cl
HETATM   30  C   UNL     1     -39.980  62.987 -61.149  1.00  0.00     0.024 A 
HETATM   31  C   UNL     1     -41.037  62.098 -61.356  1.00  0.00     0.010 A 
ENDBRANCH  24  25
ENDBRANCH  21  24
ENDBRANCH   3  20
TORSDOF 5
ENDMDL
MODEL 2
REMARK VINA RESULT:      -8.8      4.484      9.407
REMARK  5 active torsions:
REMARK  status: ('A' for Active; 'I' for Inactive)
REMARK    1  A    between atoms: C_4  and  N_5 
REMARK       I    between atoms: N_5  and  C_6 
REMARK       I    between atoms: C_6  and  N_7 
REMARK    2  A    between atoms: N_7  and  C_8 
REMARK    3  A    between atoms: C_10  and  C_11 
REMARK       I    between atoms: C_11  and  N_12 
REMARK    4  A    between atoms: N_12  and  C_13 
REMARK    5  A    between atoms: C_13  and  C_14 
ROOT
HETATM    1  C   UNL     1     -43.644  58.857 -54.927  1.00  0.00     0.175 A 
HETATM    2  S   UNL     1     -42.164  58.080 -54.612  1.00  0.00    -0.044 SA
HETATM    3  C   UNL     1     -42.707  57.667 -53.034  1.00  0.00     0.100 A 
HETATM    4  C   UNL     1     -43.990  58.164 -52.853  1.00  0.00     0.056 A 
HETATM    5  C   UNL     1     -44.836  58.050 -51.633  1.00  0.00     0.072 C 
HETATM    6  N   UNL     1     -44.518  58.825 -53.952  1.00  0.00    -0.228 NA
ENDROOT
BRANCH   1   7
HETATM    7  N   UNL     1     -43.956  59.441 -56.121  1.00  0.00    -0.287 N 
HETATM    8  C   UNL     1     -44.360  58.964 -57.330  1.00  0.00     0.326 C 
HETATM    9  N   UNL     1     -44.294  57.619 -57.546  1.00  0.00    -0.309 N 
HETATM   10  O   UNL     1     -44.715  59.800 -58.160  1.00  0.00    -0.247 OA
HETATM   11  H   UNL     1     -43.807  57.088 -56.841  1.00  0.00     0.170 HD
HETATM   12  H   UNL     1     -43.906  60.452 -56.093  1.00  0.00     0.172 HD
BRANCH   9  13
HETATM   13  C   UNL     1     -44.686  56.904 -58.698  1.00  0.00     0.036 A 
HETATM   14  C   UNL     1     -45.912  57.075 -59.345  1.00  0.00     0.036 A 
HETATM   15  C   UNL     1     -46.235  56.333 -60.492  1.00  0.00    -0.060 A 
HETATM   16  C   UNL     1     -47.570  56.512 -61.153  1.00  0.00     0.048 C 
HETATM   17  C   UNL     1     -45.324  55.387 -60.974  1.00  0.00     0.007 A 
HETATM   18  C   UNL     1     -44.102  55.203 -60.332  1.00  0.00     0.003 A 
HETATM   19  C   UNL     1     -43.784  55.957 -59.200  1.00  0.00     0.029 A 
ENDBRANCH   9  13
ENDBRANCH   1   7
BRANCH   3  20
HETATM   20  C   UNL     1     -41.896  56.929 -52.082  1.00  0.00     0.260 C 
HETATM   21  N   UNL     1     -41.880  55.558 -52.230  1.00  0.00    -0.352 N 
HETATM   22  H   UNL     1     -42.360  55.146 -53.018  1.00  0.00     0.163 HD
HETATM   23  O   UNL     1     -41.262  57.481 -51.186  1.00  0.00    -0.267 OA
BRANCH  21  24
HETATM   24  C   UNL     1     -41.082  54.700 -51.382  1.00  0.00     0.161 C 
BRANCH  24  25
HETATM   25  C   UNL     1     -40.588  53.436 -52.051  1.00  0.00    -0.040 A 
HETATM   26  C   UNL     1     -39.912  52.409 -51.375  1.00  0.00     0.010 A 
HETATM   27  C   UNL     1     -39.481  51.268 -52.060  1.00  0.00     0.024 A 
HETATM   28  C   UNL     1     -39.712  51.146 -53.428  1.00  0.00     0.034 A 
HETATM   29 CL   UNL     1     -39.176  49.744 -54.268  1.00  0.00    -0.084 Cl
HETATM   30  C   UNL     1     -40.373  52.157 -54.119  1.00  0.00     0.024 A 
HETATM   31  C   UNL     1     -40.809  53.293 -53.433  1.00  0.00     0.010 A 
ENDBRANCH  24  25
ENDBRANCH  21  24
ENDBRANCH   3  20
TORSDOF 5
ENDMDL
MODEL 3
REMARK VINA RESULT:      -8.7      6.896     10.737
REMARK  5 active torsions:
REMARK  status: ('A' for Active; 'I' for Inactive)
REMARK    1  A    between atoms: C_4  and  N_5 
REMARK       I    between atoms: N_5  and  C_6 
REMARK       I    between atoms: C_6  and  N_7 
REMARK    2  A    between atoms: N_7  and  C_8 
REMARK    3  A    between atoms: C_10  and  C_11 
REMARK       I    between atoms: C_11  and  N_12 
REMARK    4  A    between atoms: N_12  and  C_13 
REMARK    5  A    between atoms: C_13  and  C_14 
ROOT
HETATM    1  C   UNL     1     -42.236  59.630 -51.497  1.00  0.00     0.175 A 
HETATM    2  S   UNL     1     -42.621  58.928 -52.997  1.00  0.00    -0.044 SA
HETATM    3  C   UNL     1     -42.138  57.386 -52.409  1.00  0.00     0.100 A 
HETATM    4  C   UNL     1     -41.706  57.518 -51.097  1.00  0.00     0.056 A 
HETATM    5  C   UNL     1     -41.189  56.443 -50.206  1.00  0.00     0.072 C 
HETATM    6  N   UNL     1     -41.787  58.805 -50.585  1.00  0.00    -0.228 NA
ENDROOT
BRANCH   1   7
HETATM    7  N   UNL     1     -42.420  60.952 -51.208  1.00  0.00    -0.287 N 
HETATM    8  C   UNL     1     -43.184  61.625 -50.306  1.00  0.00     0.326 C 
HETATM    9  N   UNL     1     -44.139  60.929 -49.624  1.00  0.00    -0.309 N 
HETATM   10  O   UNL     1     -42.982  62.835 -50.208  1.00  0.00    -0.247 OA
HETATM   11  H   UNL     1     -44.308  59.990 -49.948  1.00  0.00     0.170 HD
HETATM   12  H   UNL     1     -41.837  61.564 -51.765  1.00  0.00     0.172 HD
BRANCH   9  13
HETATM   13  C   UNL     1     -45.016  61.407 -48.627  1.00  0.00     0.036 A 
HETATM   14  C   UNL     1     -46.131  62.209 -48.885  1.00  0.00     0.036 A 
HETATM   15  C   UNL     1     -46.966  62.643 -47.843  1.00  0.00    -0.060 A 
HETATM   16  C   UNL     1     -48.141  63.529 -48.141  1.00  0.00     0.048 C 
HETATM   17  C   UNL     1     -46.657  62.291 -46.526  1.00  0.00     0.007 A 
HETATM   18  C   UNL     1     -45.543  61.498 -46.257  1.00  0.00     0.003 A 
HETATM   19  C   UNL     1     -44.727  61.059 -47.301  1.00  0.00     0.029 A 
ENDBRANCH   9  13
ENDBRANCH   1   7
BRANCH   3  20
HETATM   20  C   UNL     1     -42.184  56.177 -53.214  1.00  0.00     0.260 C 
HETATM   21  N   UNL     1     -40.969  55.691 -53.650  1.00  0.00    -0.352 N 
HETATM   22  H   UNL     1     -40.122  56.142 -53.338  1.00  0.00     0.163 HD
HETATM   23  O   UNL     1     -43.237  55.616 -53.502  1.00  0.00    -0.267 OA
BRANCH  21  24
HETATM   24  C   UNL     1     -40.860  54.473 -54.422  1.00  0.00     0.161 C 
BRANCH  24  25
HETATM   25  C   UNL     1     -40.434  53.259 -53.627  1.00  0.00    -0.040 A 
HETATM   26  C   UNL     1     -40.131  52.016 -54.202  1.00  0.00     0.010 A 
HETATM   27  C   UNL     1     -39.747  50.934 -53.402  1.00  0.00     0.024 A 
HETATM   28  C   UNL     1     -39.670  51.082 -52.020  1.00  0.00     0.034 A 
HETATM   29 CL   UNL     1     -39.201  49.749 -51.039  1.00  0.00    -0.084 Cl
HETATM   30  C   UNL     1     -39.974  52.304 -51.428  1.00  0.00     0.024 A 
HETATM   31  C   UNL     1     -40.352  53.385 -52.228  1.00  0.00     0.010 A 
ENDBRANCH  24  25
ENDBRANCH  21  24
ENDBRANCH   3  20
TORSDOF 5
ENDMDL
MODEL 4
REMARK VINA RESULT:      -8.6      4.187      9.862
REMARK  5 active torsions:
REMARK  status: ('A' for Active; 'I' for Inactive)
REMARK    1  A    between atoms: C_4  and  N_5 
REMARK       I    between atoms: N_5  and  C_6 
REMARK       I    between atoms: C_6  and  N_7 
REMARK    2  A    between atoms: N_7  and  C_8 
REMARK    3  A    between atoms: C_10  and  C_11 
REMARK       I    between atoms: C_11  and  N_12 
REMARK    4  A    between atoms: N_12  and  C_13 
REMARK    5  A    between atoms: C_13  and  C_14 
ROOT
HETATM    1  C   UNL     1     -42.410  59.417 -53.380  1.00  0.00     0.175 A 
HETATM    2  S   UNL     1     -42.833  57.818 -52.988  1.00  0.00    -0.044 SA
HETATM    3  C   UNL     1     -41.566  57.758 -51.828  1.00  0.00     0.100 A 
HETATM    4  C   UNL     1     -40.896  58.973 -51.826  1.00  0.00     0.056 A 
HETATM    5  C   UNL     1     -39.727  59.356 -50.989  1.00  0.00     0.072 C 
HETATM    6  N   UNL     1     -41.404  59.917 -52.706  1.00  0.00    -0.228 NA
ENDROOT
BRANCH   1   7
HETATM    7  N   UNL     1     -43.083  60.179 -54.292  1.00  0.00    -0.287 N 
HETATM    8  C   UNL     1     -43.138  60.196 -55.652  1.00  0.00     0.326 C 
HETATM    9  N   UNL     1     -42.225  59.454 -56.343  1.00  0.00    -0.309 N 
HETATM   10  O   UNL     1     -43.990  60.925 -56.159  1.00  0.00    -0.247 OA
HETATM   11  H   UNL     1     -41.478  59.060 -55.793  1.00  0.00     0.170 HD
HETATM   12  H   UNL     1     -43.699  60.858 -53.864  1.00  0.00     0.172 HD
BRANCH   9  13
HETATM   13  C   UNL     1     -42.114  59.295 -57.741  1.00  0.00     0.036 A 
HETATM   14  C   UNL     1     -41.972  60.356 -58.639  1.00  0.00     0.036 A 
HETATM   15  C   UNL     1     -41.861  60.124 -60.020  1.00  0.00    -0.060 A 
HETATM   16  C   UNL     1     -41.739  61.280 -60.969  1.00  0.00     0.048 C 
HETATM   17  C   UNL     1     -41.923  58.813 -60.501  1.00  0.00     0.007 A 
HETATM   18  C   UNL     1     -42.073  57.749 -59.614  1.00  0.00     0.003 A 
HETATM   19  C   UNL     1     -42.168  57.989 -58.242  1.00  0.00     0.029 A 
ENDBRANCH   9  13
ENDBRANCH   1   7
BRANCH   3  20
HETATM   20  C   UNL     1     -41.281  56.584 -51.020  1.00  0.00     0.260 C 
HETATM   21  N   UNL     1     -40.996  55.425 -51.712  1.00  0.00    -0.352 N 
HETATM   22  H   UNL     1     -40.927  55.461 -52.718  1.00  0.00     0.163 HD
HETATM   23  O   UNL     1     -41.298  56.607 -49.793  1.00  0.00    -0.267 OA
BRANCH  21  24
HETATM   24  C   UNL     1     -40.651  54.191 -51.039  1.00  0.00     0.161 C 
BRANCH  24  25
HETATM   25  C   UNL     1     -40.391  53.022 -51.962  1.00  0.00    -0.040 A 
HETATM   26  C   UNL     1     -39.828  51.807 -51.543  1.00  0.00     0.010 A 
HETATM   27  C   UNL     1     -39.613  50.768 -52.455  1.00  0.00     0.024 A 
HETATM   28  C   UNL     1     -39.951  50.936 -53.795  1.00  0.00     0.034 A 
HETATM   29 CL   UNL     1     -39.681  49.658 -54.915  1.00  0.00    -0.084 Cl
HETATM   30  C   UNL     1     -40.503  52.135 -54.234  1.00  0.00     0.024 A 
HETATM   31  C   UNL     1     -40.723  53.170 -53.321  1.00  0.00     0.010 A 
ENDBRANCH  24  25
ENDBRANCH  21  24
ENDBRANCH   3  20
TORSDOF 5
ENDMDL
MODEL 5
REMARK VINA RESULT:      -8.5      6.299      8.531
REMARK  5 active torsions:
REMARK  status: ('A' for Active; 'I' for Inactive)
REMARK    1  A    between atoms: C_4  and  N_5 
REMARK       I    between atoms: N_5  and  C_6 
REMARK       I    between atoms: C_6  and  N_7 
REMARK    2  A    between atoms: N_7  and  C_8 
REMARK    3  A    between atoms: C_10  and  C_11 
REMARK       I    between atoms: C_11  and  N_12 
REMARK    4  A    between atoms: N_12  and  C_13 
REMARK    5  A    between atoms: C_13  and  C_14 
ROOT
HETATM    1  C   UNL     1     -41.732  57.214 -53.095  1.00  0.00     0.175 A 
HETATM    2  S   UNL     1     -43.430  57.216 -53.003  1.00  0.00    -0.044 SA
HETATM    3  C   UNL     1     -43.368  58.362 -51.724  1.00  0.00     0.100 A 
HETATM    4  C   UNL     1     -42.041  58.661 -51.448  1.00  0.00     0.056 A 
HETATM    5  C   UNL     1     -41.525  59.594 -50.409  1.00  0.00     0.072 C 
HETATM    6  N   UNL     1     -41.119  58.010 -52.255  1.00  0.00    -0.228 NA
ENDROOT
BRANCH   1   7
HETATM    7  N   UNL     1     -41.021  56.485 -54.006  1.00  0.00    -0.287 N 
HETATM    8  C   UNL     1     -40.586  55.197 -54.053  1.00  0.00     0.326 C 
HETATM    9  N   UNL     1     -40.671  54.446 -52.917  1.00  0.00    -0.309 N 
HETATM   10  O   UNL     1     -40.101  54.818 -55.118  1.00  0.00    -0.247 OA
HETATM   11  H   UNL     1     -40.916  54.951 -52.079  1.00  0.00     0.170 HD
HETATM   12  H   UNL     1     -40.796  57.008 -54.843  1.00  0.00     0.172 HD
BRANCH   9  13
HETATM   13  C   UNL     1     -40.316  53.092 -52.741  1.00  0.00     0.036 A 
HETATM   14  C   UNL     1     -40.224  52.166 -53.784  1.00  0.00     0.036 A 
HETATM   15  C   UNL     1     -39.858  50.833 -53.537  1.00  0.00    -0.060 A 
HETATM   16  C   UNL     1     -39.794  49.849 -54.669  1.00  0.00     0.048 C 
HETATM   17  C   UNL     1     -39.611  50.423 -52.223  1.00  0.00     0.007 A 
HETATM   18  C   UNL     1     -39.708  51.336 -51.176  1.00  0.00     0.003 A 
HETATM   19  C   UNL     1     -40.059  52.663 -51.433  1.00  0.00     0.029 A 
ENDBRANCH   9  13
ENDBRANCH   1   7
BRANCH   3  20
HETATM   20  C   UNL     1     -44.553  58.884 -51.065  1.00  0.00     0.260 C 
HETATM   21  N   UNL     1     -44.618  60.255 -50.926  1.00  0.00    -0.352 N 
HETATM   22  H   UNL     1     -43.894  60.822 -51.342  1.00  0.00     0.163 HD
HETATM   23  O   UNL     1     -45.449  58.156 -50.645  1.00  0.00    -0.267 OA
BRANCH  21  24
HETATM   24  C   UNL     1     -45.758  60.915 -50.330  1.00  0.00     0.161 C 
BRANCH  24  25
HETATM   25  C   UNL     1     -45.543  61.383 -48.907  1.00  0.00    -0.040 A 
HETATM   26  C   UNL     1     -45.586  60.533 -47.792  1.00  0.00     0.010 A 
HETATM   27  C   UNL     1     -45.381  61.037 -46.503  1.00  0.00     0.024 A 
HETATM   28  C   UNL     1     -45.137  62.395 -46.316  1.00  0.00     0.034 A 
HETATM   29 CL   UNL     1     -44.889  63.011 -44.729  1.00  0.00    -0.084 Cl
HETATM   30  C   UNL     1     -45.097  63.256 -47.407  1.00  0.00     0.024 A 
HETATM   31  C   UNL     1     -45.297  62.751 -48.695  1.00  0.00     0.010 A 
ENDBRANCH  24  25
ENDBRANCH  21  24
ENDBRANCH   3  20
TORSDOF 5
ENDMDL
MODEL 6
REMARK VINA RESULT:      -8.5      4.267      5.529
REMARK  5 active torsions:
REMARK  status: ('A' for Active; 'I' for Inactive)
REMARK    1  A    between atoms: C_4  and  N_5 
REMARK       I    between atoms: N_5  and  C_6 
REMARK       I    between atoms: C_6  and  N_7 
REMARK    2  A    between atoms: N_7  and  C_8 
REMARK    3  A    between atoms: C_10  and  C_11 
REMARK       I    between atoms: C_11  and  N_12 
REMARK    4  A    between atoms: N_12  and  C_13 
REMARK    5  A    between atoms: C_13  and  C_14 
ROOT
HETATM    1  C   UNL     1     -41.598  56.688 -51.436  1.00  0.00     0.175 A 
HETATM    2  S   UNL     1     -40.966  57.273 -52.903  1.00  0.00    -0.044 SA
HETATM    3  C   UNL     1     -42.475  58.010 -53.268  1.00  0.00     0.100 A 
HETATM    4  C   UNL     1     -43.368  57.749 -52.238  1.00  0.00     0.056 A 
HETATM    5  C   UNL     1     -44.788  58.184 -52.145  1.00  0.00     0.072 C 
HETATM    6  N   UNL     1     -42.844  57.008 -51.190  1.00  0.00    -0.228 NA
ENDROOT
BRANCH   1   7
HETATM    7  N   UNL     1     -40.871  55.974 -50.527  1.00  0.00    -0.287 N 
HETATM    8  C   UNL     1     -40.365  54.711 -50.504  1.00  0.00     0.326 C 
HETATM    9  N   UNL     1     -40.772  53.836 -51.469  1.00  0.00    -0.309 N 
HETATM   10  O   UNL     1     -39.604  54.440 -49.575  1.00  0.00    -0.247 OA
HETATM   11  H   UNL     1     -41.536  54.149 -52.046  1.00  0.00     0.170 HD
HETATM   12  H   UNL     1     -40.628  56.511 -49.704  1.00  0.00     0.172 HD
BRANCH   9  13
HETATM   13  C   UNL     1     -40.359  52.501 -51.660  1.00  0.00     0.036 A 
HETATM   14  C   UNL     1     -40.068  51.943 -52.908  1.00  0.00     0.036 A 
HETATM   15  C   UNL     1     -39.656  50.605 -53.024  1.00  0.00    -0.060 A 
HETATM   16  C   UNL     1     -39.378  50.019 -54.377  1.00  0.00     0.048 C 
HETATM   17  C   UNL     1     -39.566  49.815 -51.874  1.00  0.00     0.007 A 
HETATM   18  C   UNL     1     -39.861  50.359 -50.626  1.00  0.00     0.003 A 
HETATM   19  C   UNL     1     -40.256  51.694 -50.520  1.00  0.00     0.029 A 
ENDBRANCH   9  13
ENDBRANCH   1   7
BRANCH   3  20
HETATM   20  C   UNL     1     -42.719  58.760 -54.488  1.00  0.00     0.260 C 
HETATM   21  N   UNL     1     -43.134  58.027 -55.581  1.00  0.00    -0.352 N 
HETATM   22  H   UNL     1     -43.316  57.041 -55.466  1.00  0.00     0.163 HD
HETATM   23  O   UNL     1     -42.561  59.976 -54.559  1.00  0.00    -0.267 OA
BRANCH  21  24
HETATM   24  C   UNL     1     -43.456  58.647 -56.847  1.00  0.00     0.161 C 
BRANCH  24  25
HETATM   25  C   UNL     1     -43.796  57.675 -57.955  1.00  0.00    -0.040 A 
HETATM   26  C   UNL     1     -42.901  56.715 -58.453  1.00  0.00     0.010 A 
HETATM   27  C   UNL     1     -43.284  55.849 -59.484  1.00  0.00     0.024 A 
HETATM   28  C   UNL     1     -44.561  55.940 -60.032  1.00  0.00     0.034 A 
HETATM   29 CL   UNL     1     -45.026  54.877 -61.302  1.00  0.00    -0.084 Cl
HETATM   30  C   UNL     1     -45.461  56.890 -59.559  1.00  0.00     0.024 A 
HETATM   31  C   UNL     1     -45.079  57.750 -58.526  1.00  0.00     0.010 A 
ENDBRANCH  24  25
ENDBRANCH  21  24
ENDBRANCH   3  20
TORSDOF 5
ENDMDL
MODEL 7
REMARK VINA RESULT:      -8.4      6.544     10.396
REMARK  5 active torsions:
REMARK  status: ('A' for Active; 'I' for Inactive)
REMARK    1  A    between atoms: C_4  and  N_5 
REMARK       I    between atoms: N_5  and  C_6 
REMARK       I    between atoms: C_6  and  N_7 
REMARK    2  A    between atoms: N_7  and  C_8 
REMARK    3  A    between atoms: C_10  and  C_11 
REMARK       I    between atoms: C_11  and  N_12 
REMARK    4  A    between atoms: N_12  and  C_13 
REMARK    5  A    between atoms: C_13  and  C_14 
ROOT
HETATM    1  C   UNL     1     -44.971  58.358 -52.478  1.00  0.00     0.175 A 
HETATM    2  S   UNL     1     -44.582  57.620 -53.960  1.00  0.00    -0.044 SA
HETATM    3  C   UNL     1     -43.634  56.447 -53.136  1.00  0.00     0.100 A 
HETATM    4  C   UNL     1     -43.675  56.708 -51.773  1.00  0.00     0.056 A 
HETATM    5  C   UNL     1     -42.988  55.952 -50.690  1.00  0.00     0.072 C 
HETATM    6  N   UNL     1     -44.459  57.793 -51.413  1.00  0.00    -0.228 NA
ENDROOT
BRANCH   1   7
HETATM    7  N   UNL     1     -45.800  59.438 -52.362  1.00  0.00    -0.287 N 
HETATM    8  C   UNL     1     -45.850  60.504 -51.518  1.00  0.00     0.326 C 
HETATM    9  N   UNL     1     -45.058  60.485 -50.407  1.00  0.00    -0.309 N 
HETATM   10  O   UNL     1     -46.651  61.394 -51.803  1.00  0.00    -0.247 OA
HETATM   11  H   UNL     1     -44.598  59.609 -50.215  1.00  0.00     0.170 HD
HETATM   12  H   UNL     1     -46.513  59.469 -53.079  1.00  0.00     0.172 HD
BRANCH   9  13
HETATM   13  C   UNL     1     -44.922  61.484 -49.420  1.00  0.00     0.036 A 
HETATM   14  C   UNL     1     -45.344  61.338 -48.096  1.00  0.00     0.036 A 
HETATM   15  C   UNL     1     -45.171  62.373 -47.163  1.00  0.00    -0.060 A 
HETATM   16  C   UNL     1     -45.659  62.205 -45.754  1.00  0.00     0.048 C 
HETATM   17  C   UNL     1     -44.594  63.578 -47.577  1.00  0.00     0.007 A 
HETATM   18  C   UNL     1     -44.177  63.737 -48.897  1.00  0.00     0.003 A 
HETATM   19  C   UNL     1     -44.340  62.696 -49.813  1.00  0.00     0.029 A 
ENDBRANCH   9  13
ENDBRANCH   1   7
BRANCH   3  20
HETATM   20  C   UNL     1     -42.914  55.384 -53.817  1.00  0.00     0.260 C 
HETATM   21  N   UNL     1     -41.538  55.475 -53.801  1.00  0.00    -0.352 N 
HETATM   22  H   UNL     1     -41.103  56.214 -53.268  1.00  0.00     0.163 HD
HETATM   23  O   UNL     1     -43.486  54.458 -54.386  1.00  0.00    -0.267 OA
BRANCH  21  24
HETATM   24  C   UNL     1     -40.692  54.466 -54.401  1.00  0.00     0.161 C 
BRANCH  24  25
HETATM   25  C   UNL     1     -40.341  53.314 -53.486  1.00  0.00    -0.040 A 
HETATM   26  C   UNL     1     -40.293  53.414 -52.088  1.00  0.00     0.010 A 
HETATM   27  C   UNL     1     -39.956  52.305 -51.304  1.00  0.00     0.024 A 
HETATM   28  C   UNL     1     -39.657  51.088 -51.910  1.00  0.00     0.034 A 
HETATM   29 CL   UNL     1     -39.239  49.728 -50.944  1.00  0.00    -0.084 Cl
HETATM   30  C   UNL     1     -39.690  50.969 -53.296  1.00  0.00     0.024 A 
HETATM   31  C   UNL     1     -40.033  52.075 -54.078  1.00  0.00     0.010 A 
ENDBRANCH  24  25
ENDBRANCH  21  24
ENDBRANCH   3  20
TORSDOF 5
ENDMDL
MODEL 8
REMARK VINA RESULT:      -8.4      3.704     10.106
REMARK  5 active torsions:
REMARK  status: ('A' for Active; 'I' for Inactive)
REMARK    1  A    between atoms: C_4  and  N_5 
REMARK       I    between atoms: N_5  and  C_6 
REMARK       I    between atoms: C_6  and  N_7 
REMARK    2  A    between atoms: N_7  and  C_8 
REMARK    3  A    between atoms: C_10  and  C_11 
REMARK       I    between atoms: C_11  and  N_12 
REMARK    4  A    between atoms: N_12  and  C_13 
REMARK    5  A    between atoms: C_13  and  C_14 
ROOT
HETATM    1  C   UNL     1     -42.956  59.876 -55.070  1.00  0.00     0.175 A 
HETATM    2  S   UNL     1     -43.027  59.364 -53.450  1.00  0.00    -0.044 SA
HETATM    3  C   UNL     1     -42.740  57.742 -53.941  1.00  0.00     0.100 A 
HETATM    4  C   UNL     1     -42.617  57.703 -55.323  1.00  0.00     0.056 A 
HETATM    5  C   UNL     1     -42.377  56.505 -56.172  1.00  0.00     0.072 C 
HETATM    6  N   UNL     1     -42.724  58.935 -55.950  1.00  0.00    -0.228 NA
ENDROOT
BRANCH   1   7
HETATM    7  N   UNL     1     -43.077  61.180 -55.460  1.00  0.00    -0.287 N 
HETATM    8  C   UNL     1     -42.635  61.889 -56.533  1.00  0.00     0.326 C 
HETATM    9  N   UNL     1     -41.715  61.307 -57.356  1.00  0.00    -0.309 N 
HETATM   10  O   UNL     1     -43.070  63.034 -56.653  1.00  0.00    -0.247 OA
HETATM   11  H   UNL     1     -41.318  60.443 -57.023  1.00  0.00     0.170 HD
HETATM   12  H   UNL     1     -43.646  61.731 -54.830  1.00  0.00     0.172 HD
BRANCH   9  13
HETATM   13  C   UNL     1     -41.146  61.836 -58.534  1.00  0.00     0.036 A 
HETATM   14  C   UNL     1     -40.079  62.738 -58.550  1.00  0.00     0.036 A 
HETATM   15  C   UNL     1     -39.557  63.219 -59.762  1.00  0.00    -0.060 A 
HETATM   16  C   UNL     1     -38.430  64.211 -59.754  1.00  0.00     0.048 C 
HETATM   17  C   UNL     1     -40.135  62.810 -60.967  1.00  0.00     0.007 A 
HETATM   18  C   UNL     1     -41.204  61.917 -60.962  1.00  0.00     0.003 A 
HETATM   19  C   UNL     1     -41.707  61.433 -59.752  1.00  0.00     0.029 A 
ENDBRANCH   9  13
ENDBRANCH   1   7
BRANCH   3  20
HETATM   20  C   UNL     1     -42.667  56.630 -53.009  1.00  0.00     0.260 C 
HETATM   21  N   UNL     1     -41.410  56.108 -52.783  1.00  0.00    -0.352 N 
HETATM   22  H   UNL     1     -40.611  56.557 -53.206  1.00  0.00     0.163 HD
HETATM   23  O   UNL     1     -43.660  56.167 -52.454  1.00  0.00    -0.267 OA
BRANCH  21  24
HETATM   24  C   UNL     1     -41.181  55.028 -51.848  1.00  0.00     0.161 C 
BRANCH  24  25
HETATM   25  C   UNL     1     -40.735  53.730 -52.482  1.00  0.00    -0.040 A 
HETATM   26  C   UNL     1     -41.001  53.380 -53.814  1.00  0.00     0.010 A 
HETATM   27  C   UNL     1     -40.560  52.158 -54.333  1.00  0.00     0.024 A 
HETATM   28  C   UNL     1     -39.856  51.270 -53.523  1.00  0.00     0.034 A 
HETATM   29 CL   UNL     1     -39.318  49.767 -54.163  1.00  0.00    -0.084 Cl
HETATM   30  C   UNL     1     -39.588  51.594 -52.197  1.00  0.00     0.024 A 
HETATM   31  C   UNL     1     -40.024  52.817 -51.681  1.00  0.00     0.010 A 
ENDBRANCH  24  25
ENDBRANCH  21  24
ENDBRANCH   3  20
TORSDOF 5
ENDMDL
MODEL 9
REMARK VINA RESULT:      -8.4     17.119     19.976
REMARK  5 active torsions:
REMARK  status: ('A' for Active; 'I' for Inactive)
REMARK    1  A    between atoms: C_4  and  N_5 
REMARK       I    between atoms: N_5  and  C_6 
REMARK       I    between atoms: C_6  and  N_7 
REMARK    2  A    between atoms: N_7  and  C_8 
REMARK    3  A    between atoms: C_10  and  C_11 
REMARK       I    between atoms: C_11  and  N_12 
REMARK    4  A    between atoms: N_12  and  C_13 
REMARK    5  A    between atoms: C_13  and  C_14 
ROOT
HETATM    1  C   UNL     1     -35.906  41.971 -57.188  1.00  0.00     0.175 A 
HETATM    2  S   UNL     1     -36.810  42.137 -55.758  1.00  0.00    -0.044 SA
HETATM    3  C   UNL     1     -35.497  41.511 -54.844  1.00  0.00     0.100 A 
HETATM    4  C   UNL     1     -34.451  41.208 -55.704  1.00  0.00     0.056 A 
HETATM    5  C   UNL     1     -33.126  40.632 -55.344  1.00  0.00     0.072 C 
HETATM    6  N   UNL     1     -34.695  41.495 -57.038  1.00  0.00    -0.228 NA
ENDROOT
BRANCH   1   7
HETATM    7  N   UNL     1     -36.358  42.346 -58.421  1.00  0.00    -0.287 N 
HETATM    8  C   UNL     1     -37.039  41.709 -59.412  1.00  0.00     0.326 C 
HETATM    9  N   UNL     1     -37.186  40.355 -59.325  1.00  0.00    -0.309 N 
HETATM   10  O   UNL     1     -37.434  42.407 -60.345  1.00  0.00    -0.247 OA
HETATM   11  H   UNL     1     -36.648  39.904 -58.601  1.00  0.00     0.170 HD
HETATM   12  H   UNL     1     -36.176  43.319 -58.631  1.00  0.00     0.172 HD
BRANCH   9  13
HETATM   13  C   UNL     1     -37.875  39.498 -60.209  1.00  0.00     0.036 A 
HETATM   14  C   UNL     1     -39.086  38.870 -59.905  1.00  0.00     0.036 A 
HETATM   15  C   UNL     1     -39.720  38.033 -60.838  1.00  0.00    -0.060 A 
HETATM   16  C   UNL     1     -41.005  37.345 -60.478  1.00  0.00     0.048 C 
HETATM   17  C   UNL     1     -39.112  37.802 -62.075  1.00  0.00     0.007 A 
HETATM   18  C   UNL     1     -37.901  38.417 -62.385  1.00  0.00     0.003 A 
HETATM   19  C   UNL     1     -37.285  39.260 -61.457  1.00  0.00     0.029 A 
ENDBRANCH   9  13
ENDBRANCH   1   7
BRANCH   3  20
HETATM   20  C   UNL     1     -35.543  41.334 -53.402  1.00  0.00     0.260 C 
HETATM   21  N   UNL     1     -34.585  42.011 -52.675  1.00  0.00    -0.352 N 
HETATM   22  H   UNL     1     -33.960  42.640 -53.158  1.00  0.00     0.163 HD
HETATM   23  O   UNL     1     -36.376  40.620 -52.851  1.00  0.00    -0.267 OA
BRANCH  21  24
HETATM   24  C   UNL     1     -34.538  41.964 -51.231  1.00  0.00     0.161 C 
BRANCH  24  25
HETATM   25  C   UNL     1     -33.919  40.707 -50.662  1.00  0.00    -0.040 A 
HETATM   26  C   UNL     1     -32.561  40.380 -50.787  1.00  0.00     0.010 A 
HETATM   27  C   UNL     1     -32.058  39.196 -50.237  1.00  0.00     0.024 A 
HETATM   28  C   UNL     1     -32.909  38.324 -49.563  1.00  0.00     0.034 A 
HETATM   29 CL   UNL     1     -32.288  36.867 -48.891  1.00  0.00    -0.084 Cl
HETATM   30  C   UNL     1     -34.261  38.625 -49.433  1.00  0.00     0.024 A 
HETATM   31  C   UNL     1     -34.761  39.811 -49.978  1.00  0.00     0.010 A 
ENDBRANCH  24  25
ENDBRANCH  21  24
ENDBRANCH   3  20
TORSDOF 5
ENDMDL
MODEL 10
REMARK VINA RESULT:      -8.3      3.434      9.763
REMARK  5 active torsions:
REMARK  status: ('A' for Active; 'I' for Inactive)
REMARK    1  A    between atoms: C_4  and  N_5 
REMARK       I    between atoms: N_5  and  C_6 
REMARK       I    between atoms: C_6  and  N_7 
REMARK    2  A    between atoms: N_7  and  C_8 
REMARK    3  A    between atoms: C_10  and  C_11 
REMARK       I    between atoms: C_11  and  N_12 
REMARK    4  A    between atoms: N_12  and  C_13 
REMARK    5  A    between atoms: C_13  and  C_14 
ROOT
HETATM    1  C   UNL     1     -43.141  58.697 -57.052  1.00  0.00     0.175 A 
HETATM    2  S   UNL     1     -42.667  57.820 -55.674  1.00  0.00    -0.044 SA
HETATM    3  C   UNL     1     -42.655  56.367 -56.592  1.00  0.00     0.100 A 
HETATM    4  C   UNL     1     -43.026  56.654 -57.898  1.00  0.00     0.056 A 
HETATM    5  C   UNL     1     -43.161  55.695 -59.029  1.00  0.00     0.072 C 
HETATM    6  N   UNL     1     -43.281  57.994 -58.148  1.00  0.00    -0.228 NA
ENDROOT
BRANCH   1   7
HETATM    7  N   UNL     1     -43.322  60.050 -57.065  1.00  0.00    -0.287 N 
HETATM    8  C   UNL     1     -42.780  61.069 -57.786  1.00  0.00     0.326 C 
HETATM    9  N   UNL     1     -41.686  60.803 -58.557  1.00  0.00    -0.309 N 
HETATM   10  O   UNL     1     -43.300  62.176 -57.650  1.00  0.00    -0.247 OA
HETATM   11  H   UNL     1     -41.267  59.897 -58.419  1.00  0.00     0.170 HD
HETATM   12  H   UNL     1     -44.037  60.361 -56.421  1.00  0.00     0.172 HD
BRANCH   9  13
HETATM   13  C   UNL     1     -40.985  61.686 -59.405  1.00  0.00     0.036 A 
HETATM   14  C   UNL     1     -41.236  61.821 -60.773  1.00  0.00     0.036 A 
HETATM   15  C   UNL     1     -40.502  62.727 -61.557  1.00  0.00    -0.060 A 
HETATM   16  C   UNL     1     -40.769  62.833 -63.030  1.00  0.00     0.048 C 
HETATM   17  C   UNL     1     -39.486  63.480 -60.962  1.00  0.00     0.007 A 
HETATM   18  C   UNL     1     -39.223  63.348 -59.600  1.00  0.00     0.003 A 
HETATM   19  C   UNL     1     -39.968  62.455 -58.826  1.00  0.00     0.029 A 
ENDBRANCH   9  13
ENDBRANCH   1   7
BRANCH   3  20
HETATM   20  C   UNL     1     -42.319  55.071 -56.027  1.00  0.00     0.260 C 
HETATM   21  N   UNL     1     -40.990  54.870 -55.716  1.00  0.00    -0.352 N 
HETATM   22  H   UNL     1     -40.342  55.637 -55.822  1.00  0.00     0.163 HD
HETATM   23  O   UNL     1     -43.158  54.194 -55.840  1.00  0.00    -0.267 OA
BRANCH  21  24
HETATM   24  C   UNL     1     -40.518  53.646 -55.107  1.00  0.00     0.161 C 
BRANCH  24  25
HETATM   25  C   UNL     1     -40.548  53.642 -53.595  1.00  0.00    -0.040 A 
HETATM   26  C   UNL     1     -41.000  54.722 -52.820  1.00  0.00     0.010 A 
HETATM   27  C   UNL     1     -40.995  54.649 -51.423  1.00  0.00     0.024 A 
HETATM   28  C   UNL     1     -40.532  53.501 -50.786  1.00  0.00     0.034 A 
HETATM   29 CL   UNL     1     -40.524  53.416 -49.068  1.00  0.00    -0.084 Cl
HETATM   30  C   UNL     1     -40.072  52.422 -51.535  1.00  0.00     0.024 A 
HETATM   31  C   UNL     1     -40.083  52.493 -52.930  1.00  0.00     0.010 A 
ENDBRANCH  24  25
ENDBRANCH  21  24
ENDBRANCH   3  20
TORSDOF 5
ENDMDL
