MODEL 1
REMARK VINA RESULT:      -9.8      0.000      0.000
REMARK  6 active torsions:
REMARK  status: ('A' for Active; 'I' for Inactive)
REMARK    1  A    between atoms: C_2  and  C_3 
REMARK    2  A    between atoms: C_3  and  C_4 
REMARK    3  A    between atoms: N_7  and  C_9 
REMARK    4  A    between atoms: C_9  and  C_10 
REMARK    5  A    between atoms: N_23  and  C_24 
REMARK    6  A    between atoms: C_24  and  C_25 
ROOT
HETATM    1  C   UNL     1     -43.298  57.872 -52.553  1.00  0.00     0.119 C 
HETATM    2  N   UNL     1     -41.846  57.952 -52.553  1.00  0.00    -0.324 N 
HETATM    3  C   UNL     1     -41.385  58.829 -53.515  1.00  0.00     0.326 C 
HETATM    4  O   UNL     1     -40.217  59.165 -53.578  1.00  0.00    -0.247 OA
HETATM    5  N   UNL     1     -42.419  59.197 -54.307  1.00  0.00    -0.264 N 
HETATM    6  C   UNL     1     -43.587  58.654 -53.857  1.00  0.00     0.257 C 
HETATM    7  O   UNL     1     -44.687  58.762 -54.377  1.00  0.00    -0.270 OA
HETATM    8  H   UNL     1     -41.276  57.929 -51.714  1.00  0.00     0.165 HD
ENDROOT
BRANCH   1   9
HETATM    9  C   UNL     1     -43.824  58.695 -51.351  1.00  0.00     0.037 C 
HETATM   10  C   UNL     1     -45.305  58.529 -51.035  1.00  0.00     0.008 C 
ENDBRANCH   1   9
BRANCH   1  11
HETATM   11  C   UNL     1     -43.824  56.404 -52.642  1.00  0.00     0.026 C 
HETATM   12  C   UNL     1     -43.316  55.482 -51.520  1.00  0.00     0.035 C 
HETATM   13  C   UNL     1     -41.889  54.982 -51.711  1.00  0.00     0.235 C 
HETATM   14  N   UNL     1     -41.724  54.323 -53.058  1.00  0.00    -0.067 N 
HETATM   15  H   UNL     1     -42.316  53.482 -53.055  1.00  0.00     0.280 HD
HETATM   16  C   UNL     1     -42.174  55.193 -54.211  1.00  0.00     0.235 C 
HETATM   17  C   UNL     1     -43.593  55.689 -53.990  1.00  0.00     0.035 C 
BRANCH  14  18
HETATM   18  C   UNL     1     -40.302  53.844 -53.320  1.00  0.00     0.273 C 
BRANCH  18  19
HETATM   19  C   UNL     1     -40.083  52.368 -53.127  1.00  0.00    -0.027 A 
HETATM   20  C   UNL     1     -39.821  51.830 -51.860  1.00  0.00     0.051 A 
HETATM   21  C   UNL     1     -39.597  50.459 -51.716  1.00  0.00     0.119 A 
HETATM   22  F   UNL     1     -39.344  49.968 -50.497  1.00  0.00    -0.206 F 
HETATM   23  C   UNL     1     -39.622  49.604 -52.807  1.00  0.00     0.084 A 
HETATM   24  C   UNL     1     -39.882  50.136 -54.060  1.00  0.00     0.119 A 
HETATM   25  F   UNL     1     -39.904  49.334 -55.130  1.00  0.00    -0.206 F 
HETATM   26  C   UNL     1     -40.112  51.499 -54.231  1.00  0.00     0.051 A 
ENDBRANCH  18  19
ENDBRANCH  14  18
ENDBRANCH   1  11
BRANCH   5  27
HETATM   27  C   UNL     1     -42.295  60.061 -55.459  1.00  0.00     0.175 C 
BRANCH  27  28
HETATM   28  C   UNL     1     -42.301  59.269 -56.747  1.00  0.00    -0.037 A 
HETATM   29  C   UNL     1     -42.563  57.889 -56.727  1.00  0.00     0.048 A 
HETATM   30  C   UNL     1     -42.577  57.215 -57.930  1.00  0.00     0.105 A 
HETATM   31  C   UNL     1     -42.327  57.852 -59.122  1.00  0.00     0.105 A 
HETATM   32  O   UNL     1     -42.832  55.890 -58.095  1.00  0.00    -0.323 OA
HETATM   33  O   UNL     1     -42.397  57.008 -60.186  1.00  0.00    -0.323 OA
HETATM   34  C   UNL     1     -42.042  59.198 -59.181  1.00  0.00     0.040 A 
HETATM   35  C   UNL     1     -42.812  55.787 -59.535  1.00  0.00     0.352 A 
HETATM   36  C   UNL     1     -42.027  59.911 -57.977  1.00  0.00     0.012 A 
ENDBRANCH  27  28
ENDBRANCH   5  27
TORSDOF 6
ENDMDL
MODEL 2
REMARK VINA RESULT:      -9.8      0.095      1.410
REMARK  6 active torsions:
REMARK  status: ('A' for Active; 'I' for Inactive)
REMARK    1  A    between atoms: C_2  and  C_3 
REMARK    2  A    between atoms: C_3  and  C_4 
REMARK    3  A    between atoms: N_7  and  C_9 
REMARK    4  A    between atoms: C_9  and  C_10 
REMARK    5  A    between atoms: N_23  and  C_24 
REMARK    6  A    between atoms: C_24  and  C_25 
ROOT
HETATM    1  C   UNL     1     -43.357  57.829 -52.546  1.00  0.00     0.119 C 
HETATM    2  N   UNL     1     -41.908  57.940 -52.593  1.00  0.00    -0.324 N 
HETATM    3  C   UNL     1     -41.496  58.833 -53.563  1.00  0.00     0.326 C 
HETATM    4  O   UNL     1     -40.338  59.194 -53.662  1.00  0.00    -0.247 OA
HETATM    5  N   UNL     1     -42.563  59.184 -54.319  1.00  0.00    -0.264 N 
HETATM    6  C   UNL     1     -43.704  58.614 -53.835  1.00  0.00     0.257 C 
HETATM    7  O   UNL     1     -44.823  58.701 -54.318  1.00  0.00    -0.270 OA
HETATM    8  H   UNL     1     -41.310  57.924 -51.773  1.00  0.00     0.165 HD
ENDROOT
BRANCH   1   9
HETATM    9  C   UNL     1     -43.861  58.633 -51.322  1.00  0.00     0.037 C 
HETATM   10  C   UNL     1     -45.340  58.479 -50.995  1.00  0.00     0.008 C 
ENDBRANCH   1   9
BRANCH   1  11
HETATM   11  C   UNL     1     -43.854  56.351 -52.629  1.00  0.00     0.026 C 
HETATM   12  C   UNL     1     -43.342  55.448 -51.494  1.00  0.00     0.035 C 
HETATM   13  C   UNL     1     -41.903  54.973 -51.666  1.00  0.00     0.235 C 
HETATM   14  N   UNL     1     -41.711  54.306 -53.006  1.00  0.00    -0.067 N 
HETATM   15  H   UNL     1     -42.287  53.455 -53.002  1.00  0.00     0.280 HD
HETATM   16  C   UNL     1     -42.165  55.158 -54.170  1.00  0.00     0.235 C 
HETATM   17  C   UNL     1     -43.596  55.630 -53.968  1.00  0.00     0.035 C 
BRANCH  14  18
HETATM   18  C   UNL     1     -40.278  53.852 -53.249  1.00  0.00     0.273 C 
BRANCH  18  19
HETATM   19  C   UNL     1     -40.045  52.374 -53.095  1.00  0.00    -0.027 A 
HETATM   20  C   UNL     1     -40.121  51.506 -54.193  1.00  0.00     0.051 A 
HETATM   21  C   UNL     1     -39.924  50.135 -54.015  1.00  0.00     0.119 A 
HETATM   22  F   UNL     1     -40.007  49.324 -55.076  1.00  0.00    -0.206 F 
HETATM   23  C   UNL     1     -39.656  49.599 -52.764  1.00  0.00     0.084 A 
HETATM   24  C   UNL     1     -39.579  50.458 -51.679  1.00  0.00     0.119 A 
HETATM   25  F   UNL     1     -39.330  49.966 -50.460  1.00  0.00    -0.206 F 
HETATM   26  C   UNL     1     -39.768  51.830 -51.829  1.00  0.00     0.051 A 
ENDBRANCH  18  19
ENDBRANCH  14  18
ENDBRANCH   1  11
BRANCH   5  27
HETATM   27  C   UNL     1     -42.495  60.058 -55.468  1.00  0.00     0.175 C 
BRANCH  27  28
HETATM   28  C   UNL     1     -42.410  59.271 -56.756  1.00  0.00    -0.037 A 
HETATM   29  C   UNL     1     -42.707  57.899 -56.767  1.00  0.00     0.048 A 
HETATM   30  C   UNL     1     -42.635  57.230 -57.971  1.00  0.00     0.105 A 
HETATM   31  C   UNL     1     -42.267  57.865 -59.133  1.00  0.00     0.105 A 
HETATM   32  O   UNL     1     -42.908  55.912 -58.165  1.00  0.00    -0.323 OA
HETATM   33  O   UNL     1     -42.266  57.026 -60.204  1.00  0.00    -0.323 OA
HETATM   34  C   UNL     1     -41.944  59.203 -59.159  1.00  0.00     0.040 A 
HETATM   35  C   UNL     1     -42.766  55.814 -59.598  1.00  0.00     0.352 A 
HETATM   36  C   UNL     1     -42.015  59.911 -57.955  1.00  0.00     0.012 A 
ENDBRANCH  27  28
ENDBRANCH   5  27
TORSDOF 6
ENDMDL
MODEL 3
REMARK VINA RESULT:      -9.4      1.932      2.822
REMARK  6 active torsions:
REMARK  status: ('A' for Active; 'I' for Inactive)
REMARK    1  A    between atoms: C_2  and  C_3 
REMARK    2  A    between atoms: C_3  and  C_4 
REMARK    3  A    between atoms: N_7  and  C_9 
REMARK    4  A    between atoms: C_9  and  C_10 
REMARK    5  A    between atoms: N_23  and  C_24 
REMARK    6  A    between atoms: C_24  and  C_25 
ROOT
HETATM    1  C   UNL     1     -43.549  57.506 -54.109  1.00  0.00     0.119 C 
HETATM    2  N   UNL     1     -42.342  57.515 -54.920  1.00  0.00    -0.324 N 
HETATM    3  C   UNL     1     -42.524  58.217 -56.095  1.00  0.00     0.326 C 
HETATM    4  O   UNL     1     -41.599  58.484 -56.841  1.00  0.00    -0.247 OA
HETATM    5  N   UNL     1     -43.838  58.513 -56.232  1.00  0.00    -0.264 N 
HETATM    6  C   UNL     1     -44.541  58.101 -55.138  1.00  0.00     0.257 C 
HETATM    7  O   UNL     1     -45.749  58.183 -54.975  1.00  0.00    -0.270 OA
HETATM    8  H   UNL     1     -41.404  57.589 -54.542  1.00  0.00     0.165 HD
ENDROOT
BRANCH   1   9
HETATM    9  C   UNL     1     -43.359  58.521 -52.955  1.00  0.00     0.037 C 
HETATM   10  C   UNL     1     -41.929  58.984 -52.711  1.00  0.00     0.008 C 
ENDBRANCH   1   9
BRANCH   1  11
HETATM   11  C   UNL     1     -43.975  56.068 -53.673  1.00  0.00     0.026 C 
HETATM   12  C   UNL     1     -43.540  55.685 -52.248  1.00  0.00     0.035 C 
HETATM   13  C   UNL     1     -42.074  55.289 -52.120  1.00  0.00     0.235 C 
HETATM   14  N   UNL     1     -41.724  54.193 -53.097  1.00  0.00    -0.067 N 
HETATM   15  H   UNL     1     -42.263  53.362 -52.821  1.00  0.00     0.280 HD
HETATM   16  C   UNL     1     -42.095  54.522 -54.526  1.00  0.00     0.235 C 
HETATM   17  C   UNL     1     -43.557  54.927 -54.624  1.00  0.00     0.035 C 
BRANCH  14  18
HETATM   18  C   UNL     1     -40.256  53.789 -53.043  1.00  0.00     0.273 C 
BRANCH  18  19
HETATM   19  C   UNL     1     -40.008  52.308 -52.955  1.00  0.00    -0.027 A 
HETATM   20  C   UNL     1     -40.063  51.490 -54.092  1.00  0.00     0.051 A 
HETATM   21  C   UNL     1     -39.852  50.115 -53.974  1.00  0.00     0.119 A 
HETATM   22  F   UNL     1     -39.916  49.353 -55.072  1.00  0.00    -0.206 F 
HETATM   23  C   UNL     1     -39.590  49.526 -52.746  1.00  0.00     0.084 A 
HETATM   24  C   UNL     1     -39.532  50.335 -51.622  1.00  0.00     0.119 A 
HETATM   25  F   UNL     1     -39.288  49.791 -50.425  1.00  0.00    -0.206 F 
HETATM   26  C   UNL     1     -39.736  51.710 -51.712  1.00  0.00     0.051 A 
ENDBRANCH  18  19
ENDBRANCH  14  18
ENDBRANCH   1  11
BRANCH   5  27
HETATM   27  C   UNL     1     -44.406  59.191 -57.375  1.00  0.00     0.175 C 
BRANCH  27  28
HETATM   28  C   UNL     1     -44.957  58.208 -58.383  1.00  0.00    -0.037 A 
HETATM   29  C   UNL     1     -44.084  57.441 -59.172  1.00  0.00     0.048 A 
HETATM   30  C   UNL     1     -44.635  56.543 -60.061  1.00  0.00     0.105 A 
HETATM   31  C   UNL     1     -45.995  56.401 -60.201  1.00  0.00     0.105 A 
HETATM   32  O   UNL     1     -43.941  55.711 -60.883  1.00  0.00    -0.323 OA
HETATM   33  O   UNL     1     -46.326  55.460 -61.125  1.00  0.00    -0.323 OA
HETATM   34  C   UNL     1     -46.883  57.152 -59.464  1.00  0.00     0.040 A 
HETATM   35  C   UNL     1     -45.018  54.960 -61.482  1.00  0.00     0.352 A 
HETATM   36  C   UNL     1     -46.355  58.067 -58.547  1.00  0.00     0.012 A 
ENDBRANCH  27  28
ENDBRANCH   5  27
TORSDOF 6
ENDMDL
MODEL 4
REMARK VINA RESULT:      -9.3      2.687      3.409
REMARK  6 active torsions:
REMARK  status: ('A' for Active; 'I' for Inactive)
REMARK    1  A    between atoms: C_2  and  C_3 
REMARK    2  A    between atoms: C_3  and  C_4 
REMARK    3  A    between atoms: N_7  and  C_9 
REMARK    4  A    between atoms: C_9  and  C_10 
REMARK    5  A    between atoms: N_23  and  C_24 
REMARK    6  A    between atoms: C_24  and  C_25 
ROOT
HETATM    1  C   UNL     1     -43.348  57.284 -55.134  1.00  0.00     0.119 C 
HETATM    2  N   UNL     1     -42.313  57.202 -56.153  1.00  0.00    -0.324 N 
HETATM    3  C   UNL     1     -42.621  57.976 -57.254  1.00  0.00     0.326 C 
HETATM    4  O   UNL     1     -41.820  58.178 -58.149  1.00  0.00    -0.247 OA
HETATM    5  N   UNL     1     -43.895  58.419 -57.139  1.00  0.00    -0.264 N 
HETATM    6  C   UNL     1     -44.433  58.032 -55.947  1.00  0.00     0.257 C 
HETATM    7  O   UNL     1     -45.575  58.236 -55.562  1.00  0.00    -0.270 OA
HETATM    8  H   UNL     1     -41.320  57.155 -55.951  1.00  0.00     0.165 HD
ENDROOT
BRANCH   1   9
HETATM    9  C   UNL     1     -42.839  58.215 -54.006  1.00  0.00     0.037 C 
HETATM   10  C   UNL     1     -41.345  58.508 -54.016  1.00  0.00     0.008 C 
ENDBRANCH   1   9
BRANCH   1  11
HETATM   11  C   UNL     1     -43.852  55.880 -54.669  1.00  0.00     0.026 C 
HETATM   12  C   UNL     1     -43.719  55.631 -53.157  1.00  0.00     0.035 C 
HETATM   13  C   UNL     1     -42.309  55.276 -52.697  1.00  0.00     0.235 C 
HETATM   14  N   UNL     1     -41.764  54.107 -53.480  1.00  0.00    -0.067 N 
HETATM   15  H   UNL     1     -42.346  53.293 -53.248  1.00  0.00     0.280 HD
HETATM   16  C   UNL     1     -41.834  54.304 -54.979  1.00  0.00     0.235 C 
HETATM   17  C   UNL     1     -43.245  54.670 -55.409  1.00  0.00     0.035 C 
BRANCH  14  18
HETATM   18  C   UNL     1     -40.338  53.739 -53.092  1.00  0.00     0.273 C 
BRANCH  18  19
HETATM   19  C   UNL     1     -40.076  52.264 -52.962  1.00  0.00    -0.027 A 
HETATM   20  C   UNL     1     -39.780  51.682 -51.722  1.00  0.00     0.051 A 
HETATM   21  C   UNL     1     -39.516  50.313 -51.637  1.00  0.00     0.119 A 
HETATM   22  F   UNL     1     -39.230  49.781 -50.444  1.00  0.00    -0.206 F 
HETATM   23  C   UNL     1     -39.535  49.502 -52.762  1.00  0.00     0.084 A 
HETATM   24  C   UNL     1     -39.830  50.077 -53.988  1.00  0.00     0.119 A 
HETATM   25  F   UNL     1     -39.847  49.318 -55.090  1.00  0.00    -0.206 F 
HETATM   26  C   UNL     1     -40.100  51.440 -54.100  1.00  0.00     0.051 A 
ENDBRANCH  18  19
ENDBRANCH  14  18
ENDBRANCH   1  11
BRANCH   5  27
HETATM   27  C   UNL     1     -44.576  59.210 -58.138  1.00  0.00     0.175 C 
BRANCH  27  28
HETATM   28  C   UNL     1     -45.380  58.340 -59.077  1.00  0.00    -0.037 A 
HETATM   29  C   UNL     1     -46.445  58.888 -59.811  1.00  0.00     0.048 A 
HETATM   30  C   UNL     1     -47.135  58.058 -60.669  1.00  0.00     0.105 A 
HETATM   31  C   UNL     1     -46.817  56.727 -60.805  1.00  0.00     0.105 A 
HETATM   32  O   UNL     1     -48.174  58.425 -61.466  1.00  0.00    -0.323 OA
HETATM   33  O   UNL     1     -47.614  56.093 -61.706  1.00  0.00    -0.323 OA
HETATM   34  C   UNL     1     -45.796  56.148 -60.086  1.00  0.00     0.040 A 
HETATM   35  C   UNL     1     -48.407  57.198 -62.190  1.00  0.00     0.352 A 
HETATM   36  C   UNL     1     -45.073  56.965 -59.211  1.00  0.00     0.012 A 
ENDBRANCH  27  28
ENDBRANCH   5  27
TORSDOF 6
ENDMDL
MODEL 5
REMARK VINA RESULT:      -9.1      3.377      6.958
REMARK  6 active torsions:
REMARK  status: ('A' for Active; 'I' for Inactive)
REMARK    1  A    between atoms: C_2  and  C_3 
REMARK    2  A    between atoms: C_3  and  C_4 
REMARK    3  A    between atoms: N_7  and  C_9 
REMARK    4  A    between atoms: C_9  and  C_10 
REMARK    5  A    between atoms: N_23  and  C_24 
REMARK    6  A    between atoms: C_24  and  C_25 
ROOT
HETATM    1  C   UNL     1     -41.914  58.812 -51.429  1.00  0.00     0.119 C 
HETATM    2  N   UNL     1     -43.305  58.447 -51.642  1.00  0.00    -0.324 N 
HETATM    3  C   UNL     1     -43.613  57.241 -51.043  1.00  0.00     0.326 C 
HETATM    4  O   UNL     1     -44.756  56.830 -50.961  1.00  0.00    -0.247 OA
HETATM    5  N   UNL     1     -42.469  56.661 -50.609  1.00  0.00    -0.264 N 
HETATM    6  C   UNL     1     -41.401  57.481 -50.827  1.00  0.00     0.257 C 
HETATM    7  O   UNL     1     -40.229  57.229 -50.588  1.00  0.00    -0.270 OA
HETATM    8  H   UNL     1     -44.073  59.110 -51.641  1.00  0.00     0.165 HD
ENDROOT
BRANCH   1   9
HETATM    9  C   UNL     1     -41.866  59.905 -50.334  1.00  0.00     0.037 C 
HETATM   10  C   UNL     1     -43.087  60.812 -50.252  1.00  0.00     0.008 C 
ENDBRANCH   1   9
BRANCH   1  11
HETATM   11  C   UNL     1     -41.169  59.160 -52.757  1.00  0.00     0.026 C 
HETATM   12  C   UNL     1     -41.975  60.050 -53.718  1.00  0.00     0.035 C 
HETATM   13  C   UNL     1     -43.047  59.312 -54.513  1.00  0.00     0.235 C 
HETATM   14  N   UNL     1     -42.459  58.132 -55.247  1.00  0.00    -0.067 N 
HETATM   15  H   UNL     1     -41.804  58.509 -55.944  1.00  0.00     0.280 HD
HETATM   16  C   UNL     1     -41.680  57.196 -54.349  1.00  0.00     0.235 C 
HETATM   17  C   UNL     1     -40.628  57.957 -53.559  1.00  0.00     0.035 C 
BRANCH  14  18
HETATM   18  C   UNL     1     -43.496  57.331 -56.022  1.00  0.00     0.273 C 
BRANCH  18  19
HETATM   19  C   UNL     1     -43.161  57.089 -57.468  1.00  0.00    -0.027 A 
HETATM   20  C   UNL     1     -42.446  58.032 -58.219  1.00  0.00     0.051 A 
HETATM   21  C   UNL     1     -42.172  57.789 -59.567  1.00  0.00     0.119 A 
HETATM   22  F   UNL     1     -41.493  58.706 -60.265  1.00  0.00    -0.206 F 
HETATM   23  C   UNL     1     -42.596  56.627 -60.193  1.00  0.00     0.084 A 
HETATM   24  C   UNL     1     -43.301  55.694 -59.450  1.00  0.00     0.119 A 
HETATM   25  F   UNL     1     -43.729  54.568 -60.033  1.00  0.00    -0.206 F 
HETATM   26  C   UNL     1     -43.586  55.910 -58.103  1.00  0.00     0.051 A 
ENDBRANCH  18  19
ENDBRANCH  14  18
ENDBRANCH   1  11
BRANCH   5  27
HETATM   27  C   UNL     1     -42.401  55.358 -49.986  1.00  0.00     0.175 C 
BRANCH  27  28
HETATM   28  C   UNL     1     -41.627  54.378 -50.837  1.00  0.00    -0.037 A 
HETATM   29  C   UNL     1     -42.022  54.127 -52.161  1.00  0.00     0.048 A 
HETATM   30  C   UNL     1     -41.272  53.240 -52.904  1.00  0.00     0.105 A 
HETATM   31  C   UNL     1     -40.177  52.596 -52.377  1.00  0.00     0.105 A 
HETATM   32  O   UNL     1     -41.498  52.898 -54.201  1.00  0.00    -0.323 OA
HETATM   33  O   UNL     1     -39.577  51.772 -53.277  1.00  0.00    -0.323 OA
HETATM   34  C   UNL     1     -39.773  52.796 -51.076  1.00  0.00     0.040 A 
HETATM   35  C   UNL     1     -40.364  52.043 -54.458  1.00  0.00     0.352 A 
HETATM   36  C   UNL     1     -40.510  53.697 -50.299  1.00  0.00     0.012 A 
ENDBRANCH  27  28
ENDBRANCH   5  27
TORSDOF 6
ENDMDL
MODEL 6
REMARK VINA RESULT:      -9.0      1.616      2.034
REMARK  6 active torsions:
REMARK  status: ('A' for Active; 'I' for Inactive)
REMARK    1  A    between atoms: C_2  and  C_3 
REMARK    2  A    between atoms: C_3  and  C_4 
REMARK    3  A    between atoms: N_7  and  C_9 
REMARK    4  A    between atoms: C_9  and  C_10 
REMARK    5  A    between atoms: N_23  and  C_24 
REMARK    6  A    between atoms: C_24  and  C_25 
ROOT
HETATM    1  C   UNL     1     -43.574  57.382 -54.056  1.00  0.00     0.119 C 
HETATM    2  N   UNL     1     -42.272  58.004 -53.881  1.00  0.00    -0.324 N 
HETATM    3  C   UNL     1     -42.266  59.309 -54.333  1.00  0.00     0.326 C 
HETATM    4  O   UNL     1     -41.329  60.060 -54.134  1.00  0.00    -0.247 OA
HETATM    5  N   UNL     1     -43.423  59.551 -54.993  1.00  0.00    -0.264 N 
HETATM    6  C   UNL     1     -44.249  58.467 -54.930  1.00  0.00     0.257 C 
HETATM    7  O   UNL     1     -45.344  58.354 -55.460  1.00  0.00    -0.270 OA
HETATM    8  H   UNL     1     -41.670  57.848 -53.079  1.00  0.00     0.165 HD
ENDROOT
BRANCH   1   9
HETATM    9  C   UNL     1     -44.277  57.343 -52.677  1.00  0.00     0.037 C 
HETATM   10  C   UNL     1     -43.380  57.590 -51.471  1.00  0.00     0.008 C 
ENDBRANCH   1   9
BRANCH   1  11
HETATM   11  C   UNL     1     -43.495  56.014 -54.807  1.00  0.00     0.026 C 
HETATM   12  C   UNL     1     -43.869  54.797 -53.945  1.00  0.00     0.035 C 
HETATM   13  C   UNL     1     -42.772  54.337 -52.992  1.00  0.00     0.235 C 
HETATM   14  N   UNL     1     -41.482  54.087 -53.736  1.00  0.00    -0.067 N 
HETATM   15  H   UNL     1     -41.651  53.296 -54.371  1.00  0.00     0.280 HD
HETATM   16  C   UNL     1     -41.039  55.262 -54.579  1.00  0.00     0.235 C 
HETATM   17  C   UNL     1     -42.154  55.710 -55.509  1.00  0.00     0.035 C 
BRANCH  14  18
HETATM   18  C   UNL     1     -40.337  53.667 -52.824  1.00  0.00     0.273 C 
BRANCH  18  19
HETATM   19  C   UNL     1     -40.064  52.188 -52.786  1.00  0.00    -0.027 A 
HETATM   20  C   UNL     1     -39.723  51.540 -51.591  1.00  0.00     0.051 A 
HETATM   21  C   UNL     1     -39.451  50.170 -51.593  1.00  0.00     0.119 A 
HETATM   22  F   UNL     1     -39.121  49.574 -50.442  1.00  0.00    -0.206 F 
HETATM   23  C   UNL     1     -39.504  49.424 -52.760  1.00  0.00     0.084 A 
HETATM   24  C   UNL     1     -39.844  50.064 -53.941  1.00  0.00     0.119 A 
HETATM   25  F   UNL     1     -39.895  49.369 -55.083  1.00  0.00    -0.206 F 
HETATM   26  C   UNL     1     -40.123  51.429 -53.967  1.00  0.00     0.051 A 
ENDBRANCH  18  19
ENDBRANCH  14  18
ENDBRANCH   1  11
BRANCH   5  27
HETATM   27  C   UNL     1     -43.739  60.797 -55.655  1.00  0.00     0.175 C 
BRANCH  27  28
HETATM   28  C   UNL     1     -43.074  60.887 -57.009  1.00  0.00    -0.037 A 
HETATM   29  C   UNL     1     -43.179  59.823 -57.920  1.00  0.00     0.048 A 
HETATM   30  C   UNL     1     -42.572  59.962 -59.151  1.00  0.00     0.105 A 
HETATM   31  C   UNL     1     -41.866  61.092 -59.489  1.00  0.00     0.105 A 
HETATM   32  O   UNL     1     -42.591  59.044 -60.154  1.00  0.00    -0.323 OA
HETATM   33  O   UNL     1     -41.356  61.027 -60.748  1.00  0.00    -0.323 OA
HETATM   34  C   UNL     1     -41.720  62.145 -58.615  1.00  0.00     0.040 A 
HETATM   35  C   UNL     1     -41.902  59.767 -61.196  1.00  0.00     0.352 A 
HETATM   36  C   UNL     1     -42.330  62.038 -57.361  1.00  0.00     0.012 A 
ENDBRANCH  27  28
ENDBRANCH   5  27
TORSDOF 6
ENDMDL
MODEL 7
REMARK VINA RESULT:      -8.9      3.373      6.974
REMARK  6 active torsions:
REMARK  status: ('A' for Active; 'I' for Inactive)
REMARK    1  A    between atoms: C_2  and  C_3 
REMARK    2  A    between atoms: C_3  and  C_4 
REMARK    3  A    between atoms: N_7  and  C_9 
REMARK    4  A    between atoms: C_9  and  C_10 
REMARK    5  A    between atoms: N_23  and  C_24 
REMARK    6  A    between atoms: C_24  and  C_25 
ROOT
HETATM    1  C   UNL     1     -42.262  59.230 -51.561  1.00  0.00     0.119 C 
HETATM    2  N   UNL     1     -43.630  58.788 -51.780  1.00  0.00    -0.324 N 
HETATM    3  C   UNL     1     -43.850  57.532 -51.249  1.00  0.00     0.326 C 
HETATM    4  O   UNL     1     -44.962  57.043 -51.179  1.00  0.00    -0.247 OA
HETATM    5  N   UNL     1     -42.664  57.004 -50.863  1.00  0.00    -0.264 N 
HETATM    6  C   UNL     1     -41.655  57.903 -51.044  1.00  0.00     0.257 C 
HETATM    7  O   UNL     1     -40.466  57.716 -50.833  1.00  0.00    -0.270 OA
HETATM    8  H   UNL     1     -44.439  59.398 -51.732  1.00  0.00     0.165 HD
ENDROOT
BRANCH   1   9
HETATM    9  C   UNL     1     -42.269  60.260 -50.404  1.00  0.00     0.037 C 
HETATM   10  C   UNL     1     -43.606  60.936 -50.131  1.00  0.00     0.008 C 
ENDBRANCH   1   9
BRANCH   1  11
HETATM   11  C   UNL     1     -41.561  59.703 -52.875  1.00  0.00     0.026 C 
HETATM   12  C   UNL     1     -42.423  60.625 -53.753  1.00  0.00     0.035 C 
HETATM   13  C   UNL     1     -43.481  59.903 -54.579  1.00  0.00     0.235 C 
HETATM   14  N   UNL     1     -42.863  58.803 -55.407  1.00  0.00    -0.067 N 
HETATM   15  H   UNL     1     -42.239  59.255 -56.087  1.00  0.00     0.280 HD
HETATM   16  C   UNL     1     -42.027  57.838 -54.594  1.00  0.00     0.235 C 
HETATM   17  C   UNL     1     -40.990  58.584 -53.771  1.00  0.00     0.035 C 
BRANCH  14  18
HETATM   18  C   UNL     1     -43.884  58.017 -56.218  1.00  0.00     0.273 C 
BRANCH  18  19
HETATM   19  C   UNL     1     -43.419  57.593 -57.585  1.00  0.00    -0.027 A 
HETATM   20  C   UNL     1     -43.735  56.329 -58.102  1.00  0.00     0.051 A 
HETATM   21  C   UNL     1     -43.268  55.954 -59.364  1.00  0.00     0.119 A 
HETATM   22  F   UNL     1     -43.577  54.740 -59.835  1.00  0.00    -0.206 F 
HETATM   23  C   UNL     1     -42.486  56.807 -60.128  1.00  0.00     0.084 A 
HETATM   24  C   UNL     1     -42.177  58.058 -59.618  1.00  0.00     0.119 A 
HETATM   25  F   UNL     1     -41.417  58.896 -60.332  1.00  0.00    -0.206 F 
HETATM   26  C   UNL     1     -42.632  58.458 -58.363  1.00  0.00     0.051 A 
ENDBRANCH  18  19
ENDBRANCH  14  18
ENDBRANCH   1  11
BRANCH   5  27
HETATM   27  C   UNL     1     -42.503  55.675 -50.318  1.00  0.00     0.175 C 
BRANCH  27  28
HETATM   28  C   UNL     1     -41.946  54.719 -51.348  1.00  0.00    -0.037 A 
HETATM   29  C   UNL     1     -40.889  53.857 -51.014  1.00  0.00     0.048 A 
HETATM   30  C   UNL     1     -40.430  52.989 -51.982  1.00  0.00     0.105 A 
HETATM   31  C   UNL     1     -40.966  52.964 -53.248  1.00  0.00     0.105 A 
HETATM   32  O   UNL     1     -39.432  52.078 -51.824  1.00  0.00    -0.323 OA
HETATM   33  O   UNL     1     -40.375  52.032 -54.042  1.00  0.00    -0.323 OA
HETATM   34  C   UNL     1     -41.986  53.809 -53.621  1.00  0.00     0.040 A 
HETATM   35  C   UNL     1     -39.470  51.411 -53.103  1.00  0.00     0.352 A 
HETATM   36  C   UNL     1     -42.479  54.697 -52.659  1.00  0.00     0.012 A 
ENDBRANCH  27  28
ENDBRANCH   5  27
TORSDOF 6
ENDMDL
MODEL 8
REMARK VINA RESULT:      -8.9      3.047      6.132
REMARK  6 active torsions:
REMARK  status: ('A' for Active; 'I' for Inactive)
REMARK    1  A    between atoms: C_2  and  C_3 
REMARK    2  A    between atoms: C_3  and  C_4 
REMARK    3  A    between atoms: N_7  and  C_9 
REMARK    4  A    between atoms: C_9  and  C_10 
REMARK    5  A    between atoms: N_23  and  C_24 
REMARK    6  A    between atoms: C_24  and  C_25 
ROOT
HETATM    1  C   UNL     1     -43.471  57.553 -52.081  1.00  0.00     0.119 C 
HETATM    2  N   UNL     1     -43.160  58.233 -53.328  1.00  0.00    -0.324 N 
HETATM    3  C   UNL     1     -43.839  59.430 -53.439  1.00  0.00     0.326 C 
HETATM    4  O   UNL     1     -43.603  60.230 -54.325  1.00  0.00    -0.247 OA
HETATM    5  N   UNL     1     -44.751  59.513 -52.441  1.00  0.00    -0.264 N 
HETATM    6  C   UNL     1     -44.651  58.437 -51.608  1.00  0.00     0.257 C 
HETATM    7  O   UNL     1     -45.358  58.197 -50.641  1.00  0.00    -0.270 OA
HETATM    8  H   UNL     1     -42.239  58.245 -53.754  1.00  0.00     0.165 HD
ENDROOT
BRANCH   1   9
HETATM    9  C   UNL     1     -42.278  57.753 -51.114  1.00  0.00     0.037 C 
HETATM   10  C   UNL     1     -40.962  58.158 -51.765  1.00  0.00     0.008 C 
ENDBRANCH   1   9
BRANCH   1  11
HETATM   11  C   UNL     1     -43.920  56.072 -52.294  1.00  0.00     0.026 C 
HETATM   12  C   UNL     1     -43.448  55.105 -51.195  1.00  0.00     0.035 C 
HETATM   13  C   UNL     1     -41.989  54.679 -51.313  1.00  0.00     0.235 C 
HETATM   14  N   UNL     1     -41.701  54.112 -52.682  1.00  0.00    -0.067 N 
HETATM   15  H   UNL     1     -42.252  53.249 -52.770  1.00  0.00     0.280 HD
HETATM   16  C   UNL     1     -42.111  55.032 -53.810  1.00  0.00     0.235 C 
HETATM   17  C   UNL     1     -43.564  55.453 -53.662  1.00  0.00     0.035 C 
BRANCH  14  18
HETATM   18  C   UNL     1     -40.244  53.712 -52.869  1.00  0.00     0.273 C 
BRANCH  18  19
HETATM   19  C   UNL     1     -39.984  52.230 -52.848  1.00  0.00    -0.027 A 
HETATM   20  C   UNL     1     -40.030  51.465 -54.021  1.00  0.00     0.051 A 
HETATM   21  C   UNL     1     -39.809  50.087 -53.966  1.00  0.00     0.119 A 
HETATM   22  F   UNL     1     -39.863  49.376 -55.098  1.00  0.00    -0.206 F 
HETATM   23  C   UNL     1     -39.546  49.445 -52.765  1.00  0.00     0.084 A 
HETATM   24  C   UNL     1     -39.498  50.202 -51.606  1.00  0.00     0.119 A 
HETATM   25  F   UNL     1     -39.254  49.605 -50.433  1.00  0.00    -0.206 F 
HETATM   26  C   UNL     1     -39.712  51.578 -51.633  1.00  0.00     0.051 A 
ENDBRANCH  18  19
ENDBRANCH  14  18
ENDBRANCH   1  11
BRANCH   5  27
HETATM   27  C   UNL     1     -45.685  60.604 -52.279  1.00  0.00     0.175 C 
BRANCH  27  28
HETATM   28  C   UNL     1     -45.284  61.508 -51.136  1.00  0.00    -0.037 A 
HETATM   29  C   UNL     1     -46.174  61.743 -50.075  1.00  0.00     0.048 A 
HETATM   30  C   UNL     1     -45.754  62.559 -49.046  1.00  0.00     0.105 A 
HETATM   31  C   UNL     1     -44.513  63.150 -49.048  1.00  0.00     0.105 A 
HETATM   32  O   UNL     1     -46.476  62.875 -47.937  1.00  0.00    -0.323 OA
HETATM   33  O   UNL     1     -44.298  63.907 -47.939  1.00  0.00    -0.323 OA
HETATM   34  C   UNL     1     -43.622  62.964 -50.081  1.00  0.00     0.040 A 
HETATM   35  C   UNL     1     -45.509  63.650 -47.197  1.00  0.00     0.352 A 
HETATM   36  C   UNL     1     -44.016  62.135 -51.137  1.00  0.00     0.012 A 
ENDBRANCH  27  28
ENDBRANCH   5  27
TORSDOF 6
ENDMDL
MODEL 9
REMARK VINA RESULT:      -8.8      3.318      6.587
REMARK  6 active torsions:
REMARK  status: ('A' for Active; 'I' for Inactive)
REMARK    1  A    between atoms: C_2  and  C_3 
REMARK    2  A    between atoms: C_3  and  C_4 
REMARK    3  A    between atoms: N_7  and  C_9 
REMARK    4  A    between atoms: C_9  and  C_10 
REMARK    5  A    between atoms: N_23  and  C_24 
REMARK    6  A    between atoms: C_24  and  C_25 
ROOT
HETATM    1  C   UNL     1     -42.455  58.763 -51.979  1.00  0.00     0.119 C 
HETATM    2  N   UNL     1     -43.687  59.086 -52.680  1.00  0.00    -0.324 N 
HETATM    3  C   UNL     1     -44.085  60.387 -52.439  1.00  0.00     0.326 C 
HETATM    4  O   UNL     1     -44.996  60.911 -53.052  1.00  0.00    -0.247 OA
HETATM    5  N   UNL     1     -43.314  60.906 -51.455  1.00  0.00    -0.264 N 
HETATM    6  C   UNL     1     -42.349  60.018 -51.078  1.00  0.00     0.257 C 
HETATM    7  O   UNL     1     -41.526  60.170 -50.188  1.00  0.00    -0.270 OA
HETATM    8  H   UNL     1     -43.913  58.757 -53.613  1.00  0.00     0.165 HD
ENDROOT
BRANCH   1   9
HETATM    9  C   UNL     1     -41.297  58.786 -53.006  1.00  0.00     0.037 C 
HETATM   10  C   UNL     1     -41.702  58.600 -54.462  1.00  0.00     0.008 C 
ENDBRANCH   1   9
BRANCH   1  11
HETATM   11  C   UNL     1     -42.569  57.459 -51.126  1.00  0.00     0.026 C 
HETATM   12  C   UNL     1     -41.224  56.768 -50.846  1.00  0.00     0.035 C 
HETATM   13  C   UNL     1     -40.676  55.955 -52.015  1.00  0.00     0.235 C 
HETATM   14  N   UNL     1     -41.697  54.957 -52.503  1.00  0.00    -0.067 N 
HETATM   15  H   UNL     1     -41.846  54.284 -51.740  1.00  0.00     0.280 HD
HETATM   16  C   UNL     1     -43.037  55.580 -52.829  1.00  0.00     0.235 C 
HETATM   17  C   UNL     1     -43.553  56.394 -51.655  1.00  0.00     0.035 C 
BRANCH  14  18
HETATM   18  C   UNL     1     -41.218  54.148 -53.701  1.00  0.00     0.273 C 
BRANCH  18  19
HETATM   19  C   UNL     1     -40.660  52.791 -53.369  1.00  0.00    -0.027 A 
HETATM   20  C   UNL     1     -40.364  52.427 -52.048  1.00  0.00     0.051 A 
HETATM   21  C   UNL     1     -39.823  51.169 -51.775  1.00  0.00     0.119 A 
HETATM   22  F   UNL     1     -39.543  50.845 -50.507  1.00  0.00    -0.206 F 
HETATM   23  C   UNL     1     -39.563  50.258 -52.788  1.00  0.00     0.084 A 
HETATM   24  C   UNL     1     -39.859  50.616 -54.093  1.00  0.00     0.119 A 
HETATM   25  F   UNL     1     -39.610  49.759 -55.089  1.00  0.00    -0.206 F 
HETATM   26  C   UNL     1     -40.401  51.864 -54.394  1.00  0.00     0.051 A 
ENDBRANCH  18  19
ENDBRANCH  14  18
ENDBRANCH   1  11
BRANCH   5  27
HETATM   27  C   UNL     1     -43.485  62.229 -50.898  1.00  0.00     0.175 C 
BRANCH  27  28
HETATM   28  C   UNL     1     -44.230  62.184 -49.584  1.00  0.00    -0.037 A 
HETATM   29  C   UNL     1     -44.919  61.021 -49.202  1.00  0.00     0.048 A 
HETATM   30  C   UNL     1     -45.566  61.022 -47.984  1.00  0.00     0.105 A 
HETATM   31  C   UNL     1     -45.564  62.123 -47.162  1.00  0.00     0.105 A 
HETATM   32  O   UNL     1     -46.260  59.980 -47.453  1.00  0.00    -0.323 OA
HETATM   33  O   UNL     1     -46.253  61.911 -46.009  1.00  0.00    -0.323 OA
HETATM   34  C   UNL     1     -44.921  63.289 -47.511  1.00  0.00     0.040 A 
HETATM   35  C   UNL     1     -46.609  60.519 -46.160  1.00  0.00     0.352 A 
HETATM   36  C   UNL     1     -44.249  63.318 -48.738  1.00  0.00     0.012 A 
ENDBRANCH  27  28
ENDBRANCH   5  27
TORSDOF 6
ENDMDL
MODEL 10
REMARK VINA RESULT:      -8.7      2.170      2.839
REMARK  6 active torsions:
REMARK  status: ('A' for Active; 'I' for Inactive)
REMARK    1  A    between atoms: C_2  and  C_3 
REMARK    2  A    between atoms: C_3  and  C_4 
REMARK    3  A    between atoms: N_7  and  C_9 
REMARK    4  A    between atoms: C_9  and  C_10 
REMARK    5  A    between atoms: N_23  and  C_24 
REMARK    6  A    between atoms: C_24  and  C_25 
ROOT
HETATM    1  C   UNL     1     -43.384  59.494 -54.352  1.00  0.00     0.119 C 
HETATM    2  N   UNL     1     -42.189  59.290 -55.154  1.00  0.00    -0.324 N 
HETATM    3  C   UNL     1     -42.399  59.627 -56.476  1.00  0.00     0.326 C 
HETATM    4  O   UNL     1     -41.489  59.684 -57.283  1.00  0.00    -0.247 OA
HETATM    5  N   UNL     1     -43.720  59.853 -56.668  1.00  0.00    -0.264 N 
HETATM    6  C   UNL     1     -44.400  59.758 -55.490  1.00  0.00     0.257 C 
HETATM    7  O   UNL     1     -45.607  59.866 -55.336  1.00  0.00    -0.270 OA
HETATM    8  H   UNL     1     -41.247  59.481 -54.829  1.00  0.00     0.165 HD
ENDROOT
BRANCH   1   9
HETATM    9  C   UNL     1     -43.199  60.798 -53.537  1.00  0.00     0.037 C 
HETATM   10  C   UNL     1     -43.320  62.094 -54.327  1.00  0.00     0.008 C 
ENDBRANCH   1   9
BRANCH   1  11
HETATM   11  C   UNL     1     -43.778  58.233 -53.519  1.00  0.00     0.026 C 
HETATM   12  C   UNL     1     -42.748  57.838 -52.446  1.00  0.00     0.035 C 
HETATM   13  C   UNL     1     -41.527  57.102 -52.984  1.00  0.00     0.235 C 
HETATM   14  N   UNL     1     -41.937  55.898 -53.797  1.00  0.00    -0.067 N 
HETATM   15  H   UNL     1     -42.397  55.243 -53.152  1.00  0.00     0.280 HD
HETATM   16  C   UNL     1     -42.925  56.225 -54.895  1.00  0.00     0.235 C 
HETATM   17  C   UNL     1     -44.126  56.971 -54.336  1.00  0.00     0.035 C 
BRANCH  14  18
HETATM   18  C   UNL     1     -40.754  55.150 -54.397  1.00  0.00     0.273 C 
BRANCH  18  19
HETATM   19  C   UNL     1     -40.458  53.818 -53.764  1.00  0.00    -0.027 A 
HETATM   20  C   UNL     1     -40.362  53.677 -52.373  1.00  0.00     0.051 A 
HETATM   21  C   UNL     1     -40.061  52.432 -51.816  1.00  0.00     0.119 A 
HETATM   22  F   UNL     1     -39.968  52.322 -50.486  1.00  0.00    -0.206 F 
HETATM   23  C   UNL     1     -39.846  51.317 -52.611  1.00  0.00     0.084 A 
HETATM   24  C   UNL     1     -39.944  51.456 -53.987  1.00  0.00     0.119 A 
HETATM   25  F   UNL     1     -39.734  50.397 -54.777  1.00  0.00    -0.206 F 
HETATM   26  C   UNL     1     -40.246  52.685 -54.568  1.00  0.00     0.051 A 
ENDBRANCH  18  19
ENDBRANCH  14  18
ENDBRANCH   1  11
BRANCH   5  27
HETATM   27  C   UNL     1     -44.315  60.171 -57.946  1.00  0.00     0.175 C 
BRANCH  27  28
HETATM   28  C   UNL     1     -44.859  58.934 -58.625  1.00  0.00    -0.037 A 
HETATM   29  C   UNL     1     -44.019  58.134 -59.416  1.00  0.00     0.048 A 
HETATM   30  C   UNL     1     -44.557  57.006 -59.997  1.00  0.00     0.105 A 
HETATM   31  C   UNL     1     -45.879  56.665 -59.833  1.00  0.00     0.105 A 
HETATM   32  O   UNL     1     -43.885  56.113 -60.772  1.00  0.00    -0.323 OA
HETATM   33  O   UNL     1     -46.202  55.514 -60.482  1.00  0.00    -0.323 OA
HETATM   34  C   UNL     1     -46.740  57.436 -59.085  1.00  0.00     0.040 A 
HETATM   35  C   UNL     1     -44.910  55.122 -60.995  1.00  0.00     0.352 A 
HETATM   36  C   UNL     1     -46.222  58.584 -58.477  1.00  0.00     0.012 A 
ENDBRANCH  27  28
ENDBRANCH   5  27
TORSDOF 6
ENDMDL
