MODEL 1
REMARK VINA RESULT:      -8.2      0.000      0.000
REMARK  6 active torsions:
REMARK  status: ('A' for Active; 'I' for Inactive)
REMARK    1  A    between atoms: C_3  and  N_4 
REMARK       I    between atoms: N_4  and  C_5 
REMARK    2  A    between atoms: C_5  and  C_6 
REMARK    3  A    between atoms: C_14  and  N_15 
REMARK       I    between atoms: N_15  and  C_16 
REMARK       I    between atoms: C_16  and  N_17 
REMARK    4  A    between atoms: N_17  and  C_18 
REMARK    5  A    between atoms: C_18  and  C_19 
REMARK    6  A    between atoms: C_19  and  N_20 
ROOT
HETATM    1  N   UNL     1     -42.386  58.845 -53.600  1.00  0.00    -0.309 N 
HETATM    2  C   UNL     1     -43.059  59.250 -54.704  1.00  0.00     0.321 C 
HETATM    3  N   UNL     1     -43.945  58.388 -55.261  1.00  0.00    -0.337 N 
HETATM    4  O   UNL     1     -42.932  60.400 -55.125  1.00  0.00    -0.247 OA
HETATM    5  H   UNL     1     -41.975  59.618 -53.088  1.00  0.00     0.170 HD
HETATM    6  H   UNL     1     -44.155  57.558 -54.717  1.00  0.00     0.164 HD
ENDROOT
BRANCH   1   7
HETATM    7  C   UNL     1     -41.961  57.567 -53.186  1.00  0.00     0.036 A 
HETATM    8  C   UNL     1     -42.271  56.998 -51.955  1.00  0.00     0.032 A 
HETATM    9  C   UNL     1     -41.881  55.684 -51.660  1.00  0.00     0.032 A 
HETATM   10  C   UNL     1     -41.182  54.908 -52.591  1.00  0.00     0.041 A 
HETATM   11  C   UNL     1     -40.861  55.475 -53.840  1.00  0.00    -0.033 A 
HETATM   12  C   UNL     1     -40.128  54.708 -54.909  1.00  0.00     0.050 C 
HETATM   13  C   UNL     1     -41.266  56.795 -54.123  1.00  0.00     0.038 A 
BRANCH  10  14
HETATM   14  N   UNL     1     -40.812  53.570 -52.338  1.00  0.00    -0.321 N 
HETATM   15  C   UNL     1     -39.969  53.067 -51.362  1.00  0.00     0.279 C 
HETATM   16  O   UNL     1     -39.355  53.737 -50.538  1.00  0.00    -0.265 OA
HETATM   17  H   UNL     1     -41.239  52.849 -52.910  1.00  0.00     0.169 HD
BRANCH  15  18
HETATM   18  C   UNL     1     -39.890  51.617 -51.398  1.00  0.00     0.142 A 
HETATM   19  O   UNL     1     -39.585  50.991 -52.583  1.00  0.00    -0.317 OA
HETATM   20  C   UNL     1     -39.579  49.655 -52.339  1.00  0.00     0.143 A 
HETATM   21  C   UNL     1     -39.881  49.403 -51.022  1.00  0.00     0.027 A 
HETATM   22  C   UNL     1     -40.079  50.666 -50.414  1.00  0.00     0.045 A 
ENDBRANCH  15  18
ENDBRANCH  10  14
ENDBRANCH   1   7
BRANCH   3  23
HETATM   23  C   UNL     1     -44.587  58.529 -56.572  1.00  0.00     0.108 C 
HETATM   24  C   UNL     1     -46.053  58.115 -56.490  1.00  0.00     0.034 C 
BRANCH  23  25
HETATM   25  C   UNL     1     -43.812  57.919 -57.781  1.00  0.00     0.259 C 
BRANCH  25  26
HETATM   26  N   UNL     1     -44.519  56.794 -58.512  1.00  0.00    -0.069 N 
HETATM   27  H   UNL     1     -45.104  56.321 -57.790  1.00  0.00     0.280 HD
HETATM   28  C   UNL     1     -45.455  57.234 -59.606  1.00  0.00     0.239 C 
HETATM   29  C   UNL     1     -46.273  56.034 -60.087  1.00  0.00     0.007 C 
HETATM   30  C   UNL     1     -45.346  54.921 -60.589  1.00  0.00     0.007 C 
HETATM   31  C   UNL     1     -47.257  56.453 -61.176  1.00  0.00     0.011 C 
HETATM   32  C   UNL     1     -44.330  54.532 -59.521  1.00  0.00     0.028 C 
HETATM   33  C   UNL     1     -43.558  55.735 -58.996  1.00  0.00     0.235 C 
ENDBRANCH  25  26
ENDBRANCH  23  25
ENDBRANCH   3  23
TORSDOF 6
ENDMDL
MODEL 2
REMARK VINA RESULT:      -8.2      2.809      3.668
REMARK  6 active torsions:
REMARK  status: ('A' for Active; 'I' for Inactive)
REMARK    1  A    between atoms: C_3  and  N_4 
REMARK       I    between atoms: N_4  and  C_5 
REMARK    2  A    between atoms: C_5  and  C_6 
REMARK    3  A    between atoms: C_14  and  N_15 
REMARK       I    between atoms: N_15  and  C_16 
REMARK       I    between atoms: C_16  and  N_17 
REMARK    4  A    between atoms: N_17  and  C_18 
REMARK    5  A    between atoms: C_18  and  C_19 
REMARK    6  A    between atoms: C_19  and  N_20 
ROOT
HETATM    1  N   UNL     1     -43.129  58.808 -50.895  1.00  0.00    -0.309 N 
HETATM    2  C   UNL     1     -43.791  59.860 -51.435  1.00  0.00     0.321 C 
HETATM    3  N   UNL     1     -44.603  59.625 -52.494  1.00  0.00    -0.337 N 
HETATM    4  O   UNL     1     -43.723  60.974 -50.914  1.00  0.00    -0.247 OA
HETATM    5  H   UNL     1     -42.782  59.002 -49.961  1.00  0.00     0.170 HD
HETATM    6  H   UNL     1     -44.778  58.649 -52.708  1.00  0.00     0.164 HD
ENDROOT
BRANCH   1   7
HETATM    7  C   UNL     1     -42.638  57.621 -51.475  1.00  0.00     0.036 A 
HETATM    8  C   UNL     1     -41.497  57.552 -52.270  1.00  0.00     0.032 A 
HETATM    9  C   UNL     1     -41.029  56.315 -52.733  1.00  0.00     0.032 A 
HETATM   10  C   UNL     1     -41.682  55.121 -52.406  1.00  0.00     0.041 A 
HETATM   11  C   UNL     1     -42.838  55.182 -51.604  1.00  0.00    -0.033 A 
HETATM   12  C   UNL     1     -43.595  53.948 -51.187  1.00  0.00     0.050 C 
HETATM   13  C   UNL     1     -43.294  56.433 -51.141  1.00  0.00     0.038 A 
BRANCH  10  14
HETATM   14  N   UNL     1     -41.211  53.859 -52.824  1.00  0.00    -0.321 N 
HETATM   15  C   UNL     1     -40.262  53.042 -52.233  1.00  0.00     0.279 C 
HETATM   16  O   UNL     1     -39.624  53.308 -51.220  1.00  0.00    -0.265 OA
HETATM   17  H   UNL     1     -41.639  53.448 -53.646  1.00  0.00     0.169 HD
BRANCH  15  18
HETATM   18  C   UNL     1     -40.098  51.786 -52.946  1.00  0.00     0.142 A 
HETATM   19  O   UNL     1     -39.619  50.690 -52.271  1.00  0.00    -0.317 OA
HETATM   20  C   UNL     1     -39.563  49.666 -53.161  1.00  0.00     0.143 A 
HETATM   21  C   UNL     1     -39.988  50.080 -54.401  1.00  0.00     0.027 A 
HETATM   22  C   UNL     1     -40.336  51.445 -54.264  1.00  0.00     0.045 A 
ENDBRANCH  15  18
ENDBRANCH  10  14
ENDBRANCH   1   7
BRANCH   3  23
HETATM   23  C   UNL     1     -45.212  60.637 -53.364  1.00  0.00     0.108 C 
HETATM   24  C   UNL     1     -46.549  61.094 -52.788  1.00  0.00     0.034 C 
BRANCH  23  25
HETATM   25  C   UNL     1     -45.249  60.297 -54.886  1.00  0.00     0.259 C 
BRANCH  25  26
HETATM   26  N   UNL     1     -44.072  59.496 -55.407  1.00  0.00    -0.069 N 
HETATM   27  H   UNL     1     -43.304  59.654 -54.719  1.00  0.00     0.280 HD
HETATM   28  C   UNL     1     -44.294  58.008 -55.471  1.00  0.00     0.239 C 
HETATM   29  C   UNL     1     -42.966  57.310 -55.776  1.00  0.00     0.007 C 
HETATM   30  C   UNL     1     -42.383  57.823 -57.096  1.00  0.00     0.007 C 
HETATM   31  C   UNL     1     -43.150  55.795 -55.815  1.00  0.00     0.011 C 
HETATM   32  C   UNL     1     -42.242  59.341 -57.080  1.00  0.00     0.028 C 
HETATM   33  C   UNL     1     -43.548  60.036 -56.715  1.00  0.00     0.235 C 
ENDBRANCH  25  26
ENDBRANCH  23  25
ENDBRANCH   3  23
TORSDOF 6
ENDMDL
MODEL 3
REMARK VINA RESULT:      -8.0      1.802      2.419
REMARK  6 active torsions:
REMARK  status: ('A' for Active; 'I' for Inactive)
REMARK    1  A    between atoms: C_3  and  N_4 
REMARK       I    between atoms: N_4  and  C_5 
REMARK    2  A    between atoms: C_5  and  C_6 
REMARK    3  A    between atoms: C_14  and  N_15 
REMARK       I    between atoms: N_15  and  C_16 
REMARK       I    between atoms: C_16  and  N_17 
REMARK    4  A    between atoms: N_17  and  C_18 
REMARK    5  A    between atoms: C_18  and  C_19 
REMARK    6  A    between atoms: C_19  and  N_20 
ROOT
HETATM    1  N   UNL     1     -44.763  58.586 -53.526  1.00  0.00    -0.309 N 
HETATM    2  C   UNL     1     -45.200  59.346 -54.559  1.00  0.00     0.321 C 
HETATM    3  N   UNL     1     -45.675  58.711 -55.659  1.00  0.00    -0.337 N 
HETATM    4  O   UNL     1     -45.246  60.572 -54.456  1.00  0.00    -0.247 OA
HETATM    5  H   UNL     1     -44.698  59.107 -52.658  1.00  0.00     0.170 HD
HETATM    6  H   UNL     1     -45.815  57.711 -55.565  1.00  0.00     0.164 HD
ENDROOT
BRANCH   1   7
HETATM    7  C   UNL     1     -44.167  57.309 -53.496  1.00  0.00     0.036 A 
HETATM    8  C   UNL     1     -44.398  56.315 -54.442  1.00  0.00     0.032 A 
HETATM    9  C   UNL     1     -43.695  55.104 -54.387  1.00  0.00     0.032 A 
HETATM   10  C   UNL     1     -42.739  54.864 -53.394  1.00  0.00     0.041 A 
HETATM   11  C   UNL     1     -42.500  55.863 -52.430  1.00  0.00    -0.033 A 
HETATM   12  C   UNL     1     -41.477  55.699 -51.336  1.00  0.00     0.050 C 
HETATM   13  C   UNL     1     -43.211  57.077 -52.503  1.00  0.00     0.038 A 
BRANCH  10  14
HETATM   14  N   UNL     1     -41.986  53.672 -53.336  1.00  0.00    -0.321 N 
HETATM   15  C   UNL     1     -40.878  53.303 -54.079  1.00  0.00     0.279 C 
HETATM   16  O   UNL     1     -40.364  53.970 -54.970  1.00  0.00    -0.265 OA
HETATM   17  H   UNL     1     -42.245  52.988 -52.634  1.00  0.00     0.169 HD
BRANCH  15  18
HETATM   18  C   UNL     1     -40.353  52.008 -53.678  1.00  0.00     0.142 A 
HETATM   19  O   UNL     1     -39.890  51.841 -52.395  1.00  0.00    -0.317 OA
HETATM   20  C   UNL     1     -39.461  50.557 -52.289  1.00  0.00     0.143 A 
HETATM   21  C   UNL     1     -39.630  49.892 -53.480  1.00  0.00     0.027 A 
HETATM   22  C   UNL     1     -40.208  50.825 -54.375  1.00  0.00     0.045 A 
ENDBRANCH  15  18
ENDBRANCH  10  14
ENDBRANCH   1   7
BRANCH   3  23
HETATM   23  C   UNL     1     -45.965  59.327 -56.959  1.00  0.00     0.108 C 
HETATM   24  C   UNL     1     -47.409  59.047 -57.365  1.00  0.00     0.034 C 
BRANCH  23  25
HETATM   25  C   UNL     1     -44.917  59.068 -58.086  1.00  0.00     0.259 C 
BRANCH  25  26
HETATM   26  N   UNL     1     -44.610  57.612 -58.373  1.00  0.00    -0.069 N 
HETATM   27  H   UNL     1     -45.238  57.067 -57.743  1.00  0.00     0.280 HD
HETATM   28  C   UNL     1     -44.914  57.163 -59.778  1.00  0.00     0.239 C 
HETATM   29  C   UNL     1     -44.791  55.639 -59.861  1.00  0.00     0.007 C 
HETATM   30  C   UNL     1     -43.385  55.193 -59.447  1.00  0.00     0.007 C 
HETATM   31  C   UNL     1     -45.126  55.147 -61.267  1.00  0.00     0.011 C 
HETATM   32  C   UNL     1     -43.028  55.722 -58.063  1.00  0.00     0.028 C 
HETATM   33  C   UNL     1     -43.209  57.231 -57.959  1.00  0.00     0.235 C 
ENDBRANCH  25  26
ENDBRANCH  23  25
ENDBRANCH   3  23
TORSDOF 6
ENDMDL
MODEL 4
REMARK VINA RESULT:      -8.0      2.101      3.028
REMARK  6 active torsions:
REMARK  status: ('A' for Active; 'I' for Inactive)
REMARK    1  A    between atoms: C_3  and  N_4 
REMARK       I    between atoms: N_4  and  C_5 
REMARK    2  A    between atoms: C_5  and  C_6 
REMARK    3  A    between atoms: C_14  and  N_15 
REMARK       I    between atoms: N_15  and  C_16 
REMARK       I    between atoms: C_16  and  N_17 
REMARK    4  A    between atoms: N_17  and  C_18 
REMARK    5  A    between atoms: C_18  and  C_19 
REMARK    6  A    between atoms: C_19  and  N_20 
ROOT
HETATM    1  N   UNL     1     -44.672  58.112 -54.518  1.00  0.00    -0.309 N 
HETATM    2  C   UNL     1     -45.242  58.746 -55.571  1.00  0.00     0.321 C 
HETATM    3  N   UNL     1     -45.808  57.986 -56.541  1.00  0.00    -0.337 N 
HETATM    4  O   UNL     1     -45.321  59.974 -55.592  1.00  0.00    -0.247 OA
HETATM    5  H   UNL     1     -44.533  58.725 -53.722  1.00  0.00     0.170 HD
HETATM    6  H   UNL     1     -45.902  56.998 -56.329  1.00  0.00     0.164 HD
ENDROOT
BRANCH   1   7
HETATM    7  C   UNL     1     -44.031  56.860 -54.422  1.00  0.00     0.036 A 
HETATM    8  C   UNL     1     -43.538  56.146 -55.510  1.00  0.00     0.032 A 
HETATM    9  C   UNL     1     -42.834  54.950 -55.315  1.00  0.00     0.032 A 
HETATM   10  C   UNL     1     -42.598  54.446 -54.032  1.00  0.00     0.041 A 
HETATM   11  C   UNL     1     -43.095  55.160 -52.924  1.00  0.00    -0.033 A 
HETATM   12  C   UNL     1     -42.874  54.703 -51.505  1.00  0.00     0.050 C 
HETATM   13  C   UNL     1     -43.796  56.365 -53.136  1.00  0.00     0.038 A 
BRANCH  10  14
HETATM   14  N   UNL     1     -41.859  53.267 -53.803  1.00  0.00    -0.321 N 
HETATM   15  C   UNL     1     -40.584  52.939 -54.232  1.00  0.00     0.279 C 
HETATM   16  O   UNL     1     -39.868  53.641 -54.938  1.00  0.00    -0.265 OA
HETATM   17  H   UNL     1     -42.278  52.559 -53.210  1.00  0.00     0.169 HD
BRANCH  15  18
HETATM   18  C   UNL     1     -40.153  51.643 -53.734  1.00  0.00     0.142 A 
HETATM   19  O   UNL     1     -39.864  51.500 -52.398  1.00  0.00    -0.317 OA
HETATM   20  C   UNL     1     -39.490  50.209 -52.206  1.00  0.00     0.143 A 
HETATM   21  C   UNL     1     -39.523  49.516 -53.393  1.00  0.00     0.027 A 
HETATM   22  C   UNL     1     -39.952  50.437 -54.377  1.00  0.00     0.045 A 
ENDBRANCH  15  18
ENDBRANCH  10  14
ENDBRANCH   1   7
BRANCH   3  23
HETATM   23  C   UNL     1     -46.257  58.451 -57.858  1.00  0.00     0.108 C 
HETATM   24  C   UNL     1     -47.658  59.046 -57.759  1.00  0.00     0.034 C 
BRANCH  23  25
HETATM   25  C   UNL     1     -46.064  57.448 -59.038  1.00  0.00     0.259 C 
BRANCH  25  26
HETATM   26  N   UNL     1     -44.682  57.427 -59.661  1.00  0.00    -0.069 N 
HETATM   27  H   UNL     1     -44.834  57.180 -60.663  1.00  0.00     0.280 HD
HETATM   28  C   UNL     1     -43.958  58.747 -59.648  1.00  0.00     0.239 C 
HETATM   29  C   UNL     1     -42.700  58.644 -60.512  1.00  0.00     0.007 C 
HETATM   30  C   UNL     1     -41.787  57.526 -59.997  1.00  0.00     0.007 C 
HETATM   31  C   UNL     1     -41.958  59.978 -60.547  1.00  0.00     0.011 C 
HETATM   32  C   UNL     1     -42.537  56.201 -59.915  1.00  0.00     0.028 C 
HETATM   33  C   UNL     1     -43.822  56.317 -59.107  1.00  0.00     0.235 C 
ENDBRANCH  25  26
ENDBRANCH  23  25
ENDBRANCH   3  23
TORSDOF 6
ENDMDL
MODEL 5
REMARK VINA RESULT:      -7.9      4.774      7.785
REMARK  6 active torsions:
REMARK  status: ('A' for Active; 'I' for Inactive)
REMARK    1  A    between atoms: C_3  and  N_4 
REMARK       I    between atoms: N_4  and  C_5 
REMARK    2  A    between atoms: C_5  and  C_6 
REMARK    3  A    between atoms: C_14  and  N_15 
REMARK       I    between atoms: N_15  and  C_16 
REMARK       I    between atoms: C_16  and  N_17 
REMARK    4  A    between atoms: N_17  and  C_18 
REMARK    5  A    between atoms: C_18  and  C_19 
REMARK    6  A    between atoms: C_19  and  N_20 
ROOT
HETATM    1  N   UNL     1     -41.720  59.006 -50.503  1.00  0.00    -0.309 N 
HETATM    2  C   UNL     1     -42.759  59.874 -50.547  1.00  0.00     0.321 C 
HETATM    3  N   UNL     1     -44.015  59.364 -50.528  1.00  0.00    -0.337 N 
HETATM    4  O   UNL     1     -42.560  61.088 -50.511  1.00  0.00    -0.247 OA
HETATM    5  H   UNL     1     -40.849  59.452 -50.235  1.00  0.00     0.170 HD
HETATM    6  H   UNL     1     -44.086  58.373 -50.324  1.00  0.00     0.164 HD
ENDROOT
BRANCH   1   7
HETATM    7  C   UNL     1     -41.587  57.689 -50.987  1.00  0.00     0.036 A 
HETATM    8  C   UNL     1     -41.877  57.301 -52.292  1.00  0.00     0.032 A 
HETATM    9  C   UNL     1     -41.631  55.987 -52.714  1.00  0.00     0.032 A 
HETATM   10  C   UNL     1     -41.080  55.037 -51.847  1.00  0.00     0.041 A 
HETATM   11  C   UNL     1     -40.785  55.419 -50.524  1.00  0.00    -0.033 A 
HETATM   12  C   UNL     1     -40.174  54.468 -49.528  1.00  0.00     0.050 C 
HETATM   13  C   UNL     1     -41.033  56.745 -50.117  1.00  0.00     0.038 A 
BRANCH  10  14
HETATM   14  N   UNL     1     -40.784  53.719 -52.255  1.00  0.00    -0.321 N 
HETATM   15  C   UNL     1     -40.303  53.269 -53.473  1.00  0.00     0.279 C 
HETATM   16  O   UNL     1     -40.075  53.973 -54.451  1.00  0.00    -0.265 OA
HETATM   17  H   UNL     1     -40.889  52.981 -51.567  1.00  0.00     0.169 HD
BRANCH  15  18
HETATM   18  C   UNL     1     -40.073  51.835 -53.477  1.00  0.00     0.142 A 
HETATM   19  O   UNL     1     -40.324  51.118 -54.622  1.00  0.00    -0.317 OA
HETATM   20  C   UNL     1     -40.031  49.820 -54.353  1.00  0.00     0.143 A 
HETATM   21  C   UNL     1     -39.603  49.680 -53.055  1.00  0.00     0.027 A 
HETATM   22  C   UNL     1     -39.626  50.978 -52.490  1.00  0.00     0.045 A 
ENDBRANCH  15  18
ENDBRANCH  10  14
ENDBRANCH   1   7
BRANCH   3  23
HETATM   23  C   UNL     1     -45.255  60.098 -50.807  1.00  0.00     0.108 C 
HETATM   24  C   UNL     1     -45.573  60.049 -52.299  1.00  0.00     0.034 C 
BRANCH  23  25
HETATM   25  C   UNL     1     -45.365  61.518 -50.171  1.00  0.00     0.259 C 
BRANCH  25  26
HETATM   26  N   UNL     1     -45.887  61.560 -48.749  1.00  0.00    -0.069 N 
HETATM   27  H   UNL     1     -46.551  60.759 -48.674  1.00  0.00     0.280 HD
HETATM   28  C   UNL     1     -44.844  61.357 -47.682  1.00  0.00     0.239 C 
HETATM   29  C   UNL     1     -45.533  61.180 -46.327  1.00  0.00     0.007 C 
HETATM   30  C   UNL     1     -46.400  62.401 -46.003  1.00  0.00     0.007 C 
HETATM   31  C   UNL     1     -44.502  60.939 -45.226  1.00  0.00     0.011 C 
HETATM   32  C   UNL     1     -47.399  62.675 -47.122  1.00  0.00     0.028 C 
HETATM   33  C   UNL     1     -46.722  62.789 -48.482  1.00  0.00     0.235 C 
ENDBRANCH  25  26
ENDBRANCH  23  25
ENDBRANCH   3  23
TORSDOF 6
ENDMDL
MODEL 6
REMARK VINA RESULT:      -7.9      3.380      8.547
REMARK  6 active torsions:
REMARK  status: ('A' for Active; 'I' for Inactive)
REMARK    1  A    between atoms: C_3  and  N_4 
REMARK       I    between atoms: N_4  and  C_5 
REMARK    2  A    between atoms: C_5  and  C_6 
REMARK    3  A    between atoms: C_14  and  N_15 
REMARK       I    between atoms: N_15  and  C_16 
REMARK       I    between atoms: C_16  and  N_17 
REMARK    4  A    between atoms: N_17  and  C_18 
REMARK    5  A    between atoms: C_18  and  C_19 
REMARK    6  A    between atoms: C_19  and  N_20 
ROOT
HETATM    1  N   UNL     1     -43.978  56.053 -51.538  1.00  0.00    -0.309 N 
HETATM    2  C   UNL     1     -43.419  55.154 -50.693  1.00  0.00     0.321 C 
HETATM    3  N   UNL     1     -42.086  55.240 -50.463  1.00  0.00    -0.337 N 
HETATM    4  O   UNL     1     -44.123  54.345 -50.087  1.00  0.00    -0.247 OA
HETATM    5  H   UNL     1     -44.986  56.108 -51.438  1.00  0.00     0.170 HD
HETATM    6  H   UNL     1     -41.630  56.073 -50.819  1.00  0.00     0.164 HD
ENDROOT
BRANCH   1   7
HETATM    7  C   UNL     1     -43.456  56.722 -52.663  1.00  0.00     0.036 A 
HETATM    8  C   UNL     1     -43.277  56.133 -53.912  1.00  0.00     0.032 A 
HETATM    9  C   UNL     1     -42.834  56.896 -55.000  1.00  0.00     0.032 A 
HETATM   10  C   UNL     1     -42.571  58.264 -54.870  1.00  0.00     0.041 A 
HETATM   11  C   UNL     1     -42.747  58.869 -53.610  1.00  0.00    -0.033 A 
HETATM   12  C   UNL     1     -42.504  60.338 -53.381  1.00  0.00     0.050 C 
HETATM   13  C   UNL     1     -43.198  58.089 -52.526  1.00  0.00     0.038 A 
BRANCH  10  14
HETATM   14  N   UNL     1     -42.164  59.066 -55.957  1.00  0.00    -0.321 N 
HETATM   15  C   UNL     1     -42.874  59.429 -57.088  1.00  0.00     0.279 C 
HETATM   16  O   UNL     1     -44.016  59.073 -57.356  1.00  0.00    -0.265 OA
HETATM   17  H   UNL     1     -41.240  59.483 -55.912  1.00  0.00     0.169 HD
BRANCH  15  18
HETATM   18  C   UNL     1     -42.116  60.319 -57.951  1.00  0.00     0.142 A 
HETATM   19  O   UNL     1     -41.103  61.074 -57.412  1.00  0.00    -0.317 OA
HETATM   20  C   UNL     1     -40.569  61.807 -58.422  1.00  0.00     0.143 A 
HETATM   21  C   UNL     1     -41.222  61.548 -59.604  1.00  0.00     0.027 A 
HETATM   22  C   UNL     1     -42.217  60.587 -59.303  1.00  0.00     0.045 A 
ENDBRANCH  15  18
ENDBRANCH  10  14
ENDBRANCH   1   7
BRANCH   3  23
HETATM   23  C   UNL     1     -41.254  54.238 -49.787  1.00  0.00     0.108 C 
HETATM   24  C   UNL     1     -40.966  54.671 -48.352  1.00  0.00     0.034 C 
BRANCH  23  25
HETATM   25  C   UNL     1     -40.001  53.747 -50.575  1.00  0.00     0.259 C 
BRANCH  25  26
HETATM   26  N   UNL     1     -40.288  52.998 -51.861  1.00  0.00    -0.069 N 
HETATM   27  H   UNL     1     -41.259  52.631 -51.757  1.00  0.00     0.280 HD
HETATM   28  C   UNL     1     -40.278  53.844 -53.107  1.00  0.00     0.239 C 
HETATM   29  C   UNL     1     -40.816  53.023 -54.281  1.00  0.00     0.007 C 
HETATM   30  C   UNL     1     -39.972  51.761 -54.484  1.00  0.00     0.007 C 
HETATM   31  C   UNL     1     -40.850  53.864 -55.556  1.00  0.00     0.011 C 
HETATM   32  C   UNL     1     -39.895  50.942 -53.200  1.00  0.00     0.028 C 
HETATM   33  C   UNL     1     -39.420  51.772 -52.015  1.00  0.00     0.235 C 
ENDBRANCH  25  26
ENDBRANCH  23  25
ENDBRANCH   3  23
TORSDOF 6
ENDMDL
MODEL 7
REMARK VINA RESULT:      -7.9     14.989     19.279
REMARK  6 active torsions:
REMARK  status: ('A' for Active; 'I' for Inactive)
REMARK    1  A    between atoms: C_3  and  N_4 
REMARK       I    between atoms: N_4  and  C_5 
REMARK    2  A    between atoms: C_5  and  C_6 
REMARK    3  A    between atoms: C_14  and  N_15 
REMARK       I    between atoms: N_15  and  C_16 
REMARK       I    between atoms: C_16  and  N_17 
REMARK    4  A    between atoms: N_17  and  C_18 
REMARK    5  A    between atoms: C_18  and  C_19 
REMARK    6  A    between atoms: C_19  and  N_20 
ROOT
HETATM    1  N   UNL     1     -36.472  42.494 -55.124  1.00  0.00    -0.309 N 
HETATM    2  C   UNL     1     -35.650  42.209 -54.086  1.00  0.00     0.321 C 
HETATM    3  N   UNL     1     -34.674  41.288 -54.282  1.00  0.00    -0.337 N 
HETATM    4  O   UNL     1     -35.735  42.838 -53.032  1.00  0.00    -0.247 OA
HETATM    5  H   UNL     1     -36.971  43.368 -54.998  1.00  0.00     0.170 HD
HETATM    6  H   UNL     1     -34.532  40.993 -55.242  1.00  0.00     0.164 HD
ENDROOT
BRANCH   1   7
HETATM    7  C   UNL     1     -36.930  41.698 -56.194  1.00  0.00     0.036 A 
HETATM    8  C   UNL     1     -37.503  40.439 -56.045  1.00  0.00     0.032 A 
HETATM    9  C   UNL     1     -38.013  39.754 -57.156  1.00  0.00     0.032 A 
HETATM   10  C   UNL     1     -37.972  40.315 -58.437  1.00  0.00     0.041 A 
HETATM   11  C   UNL     1     -37.392  41.589 -58.599  1.00  0.00    -0.033 A 
HETATM   12  C   UNL     1     -37.320  42.277 -59.937  1.00  0.00     0.050 C 
HETATM   13  C   UNL     1     -36.889  42.267 -57.471  1.00  0.00     0.038 A 
BRANCH  10  14
HETATM   14  N   UNL     1     -38.513  39.668 -59.568  1.00  0.00    -0.321 N 
HETATM   15  C   UNL     1     -37.947  38.691 -60.369  1.00  0.00     0.279 C 
HETATM   16  O   UNL     1     -36.818  38.229 -60.238  1.00  0.00    -0.265 OA
HETATM   17  H   UNL     1     -39.465  39.900 -59.830  1.00  0.00     0.169 HD
BRANCH  15  18
HETATM   18  C   UNL     1     -38.856  38.237 -61.408  1.00  0.00     0.142 A 
HETATM   19  O   UNL     1     -40.201  38.174 -61.141  1.00  0.00    -0.317 OA
HETATM   20  C   UNL     1     -40.812  37.722 -62.267  1.00  0.00     0.143 A 
HETATM   21  C   UNL     1     -39.886  37.485 -63.256  1.00  0.00     0.027 A 
HETATM   22  C   UNL     1     -38.626  37.819 -62.705  1.00  0.00     0.045 A 
ENDBRANCH  15  18
ENDBRANCH  10  14
ENDBRANCH   1   7
BRANCH   3  23
HETATM   23  C   UNL     1     -33.845  40.666 -53.243  1.00  0.00     0.108 C 
HETATM   24  C   UNL     1     -32.544  40.146 -53.846  1.00  0.00     0.034 C 
BRANCH  23  25
HETATM   25  C   UNL     1     -34.572  39.652 -52.307  1.00  0.00     0.259 C 
BRANCH  25  26
HETATM   26  N   UNL     1     -33.693  38.961 -51.282  1.00  0.00    -0.069 N 
HETATM   27  H   UNL     1     -32.844  38.656 -51.807  1.00  0.00     0.280 HD
HETATM   28  C   UNL     1     -33.213  39.840 -50.159  1.00  0.00     0.239 C 
HETATM   29  C   UNL     1     -32.154  39.092 -49.346  1.00  0.00     0.007 C 
HETATM   30  C   UNL     1     -32.729  37.783 -48.794  1.00  0.00     0.007 C 
HETATM   31  C   UNL     1     -31.622  39.970 -48.216  1.00  0.00     0.011 C 
HETATM   32  C   UNL     1     -33.306  36.924 -49.914  1.00  0.00     0.028 C 
HETATM   33  C   UNL     1     -34.314  37.686 -50.764  1.00  0.00     0.235 C 
ENDBRANCH  25  26
ENDBRANCH  23  25
ENDBRANCH   3  23
TORSDOF 6
ENDMDL
MODEL 8
REMARK VINA RESULT:      -7.8      4.022      8.170
REMARK  6 active torsions:
REMARK  status: ('A' for Active; 'I' for Inactive)
REMARK    1  A    between atoms: C_3  and  N_4 
REMARK       I    between atoms: N_4  and  C_5 
REMARK    2  A    between atoms: C_5  and  C_6 
REMARK    3  A    between atoms: C_14  and  N_15 
REMARK       I    between atoms: N_15  and  C_16 
REMARK       I    between atoms: C_16  and  N_17 
REMARK    4  A    between atoms: N_17  and  C_18 
REMARK    5  A    between atoms: C_18  and  C_19 
REMARK    6  A    between atoms: C_19  and  N_20 
ROOT
HETATM    1  N   UNL     1     -43.350  58.761 -55.392  1.00  0.00    -0.309 N 
HETATM    2  C   UNL     1     -42.823  57.650 -55.961  1.00  0.00     0.321 C 
HETATM    3  N   UNL     1     -42.938  56.477 -55.293  1.00  0.00    -0.337 N 
HETATM    4  O   UNL     1     -42.340  57.699 -57.093  1.00  0.00    -0.247 OA
HETATM    5  H   UNL     1     -43.480  59.517 -56.056  1.00  0.00     0.170 HD
HETATM    6  H   UNL     1     -43.550  56.488 -54.484  1.00  0.00     0.164 HD
ENDROOT
BRANCH   1   7
HETATM    7  C   UNL     1     -43.512  59.125 -54.039  1.00  0.00     0.036 A 
HETATM    8  C   UNL     1     -43.252  60.396 -53.534  1.00  0.00     0.032 A 
HETATM    9  C   UNL     1     -43.525  60.696 -52.193  1.00  0.00     0.032 A 
HETATM   10  C   UNL     1     -44.073  59.740 -51.331  1.00  0.00     0.041 A 
HETATM   11  C   UNL     1     -44.337  58.450 -51.832  1.00  0.00    -0.033 A 
HETATM   12  C   UNL     1     -44.941  57.363 -50.982  1.00  0.00     0.050 C 
HETATM   13  C   UNL     1     -44.062  58.165 -53.185  1.00  0.00     0.038 A 
BRANCH  10  14
HETATM   14  N   UNL     1     -44.396  60.025 -49.987  1.00  0.00    -0.321 N 
HETATM   15  C   UNL     1     -45.495  60.695 -49.477  1.00  0.00     0.279 C 
HETATM   16  O   UNL     1     -46.393  61.200 -50.143  1.00  0.00    -0.265 OA
HETATM   17  H   UNL     1     -43.777  59.665 -49.270  1.00  0.00     0.169 HD
BRANCH  15  18
HETATM   18  C   UNL     1     -45.491  60.732 -48.024  1.00  0.00     0.142 A 
HETATM   19  O   UNL     1     -46.260  59.831 -47.329  1.00  0.00    -0.317 OA
HETATM   20  C   UNL     1     -46.075  60.083 -46.008  1.00  0.00     0.143 A 
HETATM   21  C   UNL     1     -45.207  61.135 -45.834  1.00  0.00     0.027 A 
HETATM   22  C   UNL     1     -44.828  61.552 -47.132  1.00  0.00     0.045 A 
ENDBRANCH  15  18
ENDBRANCH  10  14
ENDBRANCH   1   7
BRANCH   3  23
HETATM   23  C   UNL     1     -42.241  55.225 -55.609  1.00  0.00     0.108 C 
HETATM   24  C   UNL     1     -43.208  54.048 -55.535  1.00  0.00     0.034 C 
BRANCH  23  25
HETATM   25  C   UNL     1     -40.886  54.993 -54.871  1.00  0.00     0.259 C 
BRANCH  25  26
HETATM   26  N   UNL     1     -40.824  53.762 -53.987  1.00  0.00    -0.069 N 
HETATM   27  H   UNL     1     -41.809  53.428 -53.910  1.00  0.00     0.280 HD
HETATM   28  C   UNL     1     -40.022  52.617 -54.546  1.00  0.00     0.239 C 
HETATM   29  C   UNL     1     -40.243  51.374 -53.681  1.00  0.00     0.007 C 
HETATM   30  C   UNL     1     -39.840  51.653 -52.230  1.00  0.00     0.007 C 
HETATM   31  C   UNL     1     -39.469  50.183 -54.240  1.00  0.00     0.011 C 
HETATM   32  C   UNL     1     -40.575  52.871 -51.682  1.00  0.00     0.028 C 
HETATM   33  C   UNL     1     -40.409  54.094 -52.574  1.00  0.00     0.235 C 
ENDBRANCH  25  26
ENDBRANCH  23  25
ENDBRANCH   3  23
TORSDOF 6
ENDMDL
MODEL 9
REMARK VINA RESULT:      -7.7      3.486      9.540
REMARK  6 active torsions:
REMARK  status: ('A' for Active; 'I' for Inactive)
REMARK    1  A    between atoms: C_3  and  N_4 
REMARK       I    between atoms: N_4  and  C_5 
REMARK    2  A    between atoms: C_5  and  C_6 
REMARK    3  A    between atoms: C_14  and  N_15 
REMARK       I    between atoms: N_15  and  C_16 
REMARK       I    between atoms: C_16  and  N_17 
REMARK    4  A    between atoms: N_17  and  C_18 
REMARK    5  A    between atoms: C_18  and  C_19 
REMARK    6  A    between atoms: C_19  and  N_20 
ROOT
HETATM    1  N   UNL     1     -43.575  55.356 -56.460  1.00  0.00    -0.309 N 
HETATM    2  C   UNL     1     -43.240  54.482 -55.481  1.00  0.00     0.321 C 
HETATM    3  N   UNL     1     -42.832  54.986 -54.290  1.00  0.00    -0.337 N 
HETATM    4  O   UNL     1     -43.393  53.272 -55.646  1.00  0.00    -0.247 OA
HETATM    5  H   UNL     1     -44.127  54.927 -57.195  1.00  0.00     0.170 HD
HETATM    6  H   UNL     1     -42.957  55.985 -54.168  1.00  0.00     0.164 HD
ENDROOT
BRANCH   1   7
HETATM    7  C   UNL     1     -43.099  56.650 -56.755  1.00  0.00     0.036 A 
HETATM    8  C   UNL     1     -42.814  57.618 -55.796  1.00  0.00     0.032 A 
HETATM    9  C   UNL     1     -42.260  58.849 -56.172  1.00  0.00     0.032 A 
HETATM   10  C   UNL     1     -41.968  59.137 -57.510  1.00  0.00     0.041 A 
HETATM   11  C   UNL     1     -42.255  58.165 -58.488  1.00  0.00    -0.033 A 
HETATM   12  C   UNL     1     -41.959  58.380 -59.949  1.00  0.00     0.050 C 
HETATM   13  C   UNL     1     -42.807  56.929 -58.094  1.00  0.00     0.038 A 
BRANCH  10  14
HETATM   14  N   UNL     1     -41.373  60.351 -57.913  1.00  0.00    -0.321 N 
HETATM   15  C   UNL     1     -41.945  61.606 -58.032  1.00  0.00     0.279 C 
HETATM   16  O   UNL     1     -43.123  61.874 -57.824  1.00  0.00    -0.265 OA
HETATM   17  H   UNL     1     -40.379  60.342 -58.112  1.00  0.00     0.169 HD
BRANCH  15  18
HETATM   18  C   UNL     1     -40.977  62.616 -58.425  1.00  0.00     0.142 A 
HETATM   19  O   UNL     1     -41.162  63.916 -58.022  1.00  0.00    -0.317 OA
HETATM   20  C   UNL     1     -40.129  64.641 -58.523  1.00  0.00     0.143 A 
HETATM   21  C   UNL     1     -39.282  63.837 -59.248  1.00  0.00     0.027 A 
HETATM   22  C   UNL     1     -39.825  62.531 -59.184  1.00  0.00     0.045 A 
ENDBRANCH  15  18
ENDBRANCH  10  14
ENDBRANCH   1   7
BRANCH   3  23
HETATM   23  C   UNL     1     -42.204  54.234 -53.198  1.00  0.00     0.108 C 
HETATM   24  C   UNL     1     -42.772  54.681 -51.854  1.00  0.00     0.034 C 
BRANCH  23  25
HETATM   25  C   UNL     1     -40.648  54.140 -53.240  1.00  0.00     0.259 C 
BRANCH  25  26
HETATM   26  N   UNL     1     -40.076  52.736 -53.219  1.00  0.00    -0.069 N 
HETATM   27  H   UNL     1     -39.048  52.853 -53.355  1.00  0.00     0.280 HD
HETATM   28  C   UNL     1     -40.257  51.994 -51.922  1.00  0.00     0.239 C 
HETATM   29  C   UNL     1     -39.433  50.705 -51.955  1.00  0.00     0.007 C 
HETATM   30  C   UNL     1     -39.857  49.828 -53.138  1.00  0.00     0.007 C 
HETATM   31  C   UNL     1     -39.569  49.943 -50.639  1.00  0.00     0.011 C 
HETATM   32  C   UNL     1     -39.768  50.600 -54.450  1.00  0.00     0.028 C 
HETATM   33  C   UNL     1     -40.537  51.913 -54.399  1.00  0.00     0.235 C 
ENDBRANCH  25  26
ENDBRANCH  23  25
ENDBRANCH   3  23
TORSDOF 6
ENDMDL
MODEL 10
REMARK VINA RESULT:      -7.6      2.886      4.953
REMARK  6 active torsions:
REMARK  status: ('A' for Active; 'I' for Inactive)
REMARK    1  A    between atoms: C_3  and  N_4 
REMARK       I    between atoms: N_4  and  C_5 
REMARK    2  A    between atoms: C_5  and  C_6 
REMARK    3  A    between atoms: C_14  and  N_15 
REMARK       I    between atoms: N_15  and  C_16 
REMARK       I    between atoms: C_16  and  N_17 
REMARK    4  A    between atoms: N_17  and  C_18 
REMARK    5  A    between atoms: C_18  and  C_19 
REMARK    6  A    between atoms: C_19  and  N_20 
ROOT
HETATM    1  N   UNL     1     -43.596  55.578 -57.666  1.00  0.00    -0.309 N 
HETATM    2  C   UNL     1     -43.796  56.623 -58.504  1.00  0.00     0.321 C 
HETATM    3  N   UNL     1     -42.972  57.693 -58.394  1.00  0.00    -0.337 N 
HETATM    4  O   UNL     1     -44.641  56.554 -59.396  1.00  0.00    -0.247 OA
HETATM    5  H   UNL     1     -44.045  54.727 -57.988  1.00  0.00     0.170 HD
HETATM    6  H   UNL     1     -42.163  57.568 -57.793  1.00  0.00     0.164 HD
ENDROOT
BRANCH   1   7
HETATM    7  C   UNL     1     -43.104  55.525 -56.346  1.00  0.00     0.036 A 
HETATM    8  C   UNL     1     -43.753  56.075 -55.245  1.00  0.00     0.032 A 
HETATM    9  C   UNL     1     -43.236  55.899 -53.954  1.00  0.00     0.032 A 
HETATM   10  C   UNL     1     -42.068  55.162 -53.733  1.00  0.00     0.041 A 
HETATM   11  C   UNL     1     -41.402  54.602 -54.841  1.00  0.00    -0.033 A 
HETATM   12  C   UNL     1     -40.149  53.779 -54.697  1.00  0.00     0.050 C 
HETATM   13  C   UNL     1     -41.937  54.783 -56.132  1.00  0.00     0.038 A 
BRANCH  10  14
HETATM   14  N   UNL     1     -41.546  54.933 -52.442  1.00  0.00    -0.321 N 
HETATM   15  C   UNL     1     -42.124  54.271 -51.372  1.00  0.00     0.279 C 
HETATM   16  O   UNL     1     -43.247  53.779 -51.362  1.00  0.00    -0.265 OA
HETATM   17  H   UNL     1     -40.602  55.251 -52.256  1.00  0.00     0.169 HD
BRANCH  15  18
HETATM   18  C   UNL     1     -41.234  54.200 -50.225  1.00  0.00     0.142 A 
HETATM   19  O   UNL     1     -41.766  54.258 -48.960  1.00  0.00    -0.317 OA
HETATM   20  C   UNL     1     -40.729  54.173 -48.087  1.00  0.00     0.143 A 
HETATM   21  C   UNL     1     -39.536  54.070 -48.763  1.00  0.00     0.027 A 
HETATM   22  C   UNL     1     -39.860  54.084 -50.140  1.00  0.00     0.045 A 
ENDBRANCH  15  18
ENDBRANCH  10  14
ENDBRANCH   1   7
BRANCH   3  23
HETATM   23  C   UNL     1     -43.161  59.004 -59.026  1.00  0.00     0.108 C 
HETATM   24  C   UNL     1     -42.172  59.185 -60.174  1.00  0.00     0.034 C 
BRANCH  23  25
HETATM   25  C   UNL     1     -43.252  60.223 -58.056  1.00  0.00     0.259 C 
BRANCH  25  26
HETATM   26  N   UNL     1     -43.421  59.881 -56.589  1.00  0.00    -0.069 N 
HETATM   27  H   UNL     1     -43.731  58.886 -56.571  1.00  0.00     0.280 HD
HETATM   28  C   UNL     1     -42.160  59.955 -55.769  1.00  0.00     0.239 C 
HETATM   29  C   UNL     1     -42.421  59.358 -54.384  1.00  0.00     0.007 C 
HETATM   30  C   UNL     1     -43.560  60.106 -53.684  1.00  0.00     0.007 C 
HETATM   31  C   UNL     1     -41.151  59.387 -53.536  1.00  0.00     0.011 C 
HETATM   32  C   UNL     1     -44.817  60.121 -54.548  1.00  0.00     0.028 C 
HETATM   33  C   UNL     1     -44.546  60.657 -55.948  1.00  0.00     0.235 C 
ENDBRANCH  25  26
ENDBRANCH  23  25
ENDBRANCH   3  23
TORSDOF 6
ENDMDL
