MODEL 1
REMARK VINA RESULT:      -7.9      0.000      0.000
REMARK  6 active torsions:
REMARK  status: ('A' for Active; 'I' for Inactive)
REMARK    1  A    between atoms: C_2  and  N_3 
REMARK    2  A    between atoms: C_2  and  C_11 
REMARK       I    between atoms: N_3  and  C_4 
REMARK    3  A    between atoms: C_4  and  C_5 
REMARK    4  A    between atoms: C_14  and  O_15 
REMARK    5  A    between atoms: O_15  and  C_16 
REMARK    6  A    between atoms: C_16  and  C_17 
ROOT
HETATM    1  C   UNL     1     -42.953  55.981 -53.947  1.00  0.00    -0.036 A 
HETATM    2  C   UNL     1     -41.791  56.448 -53.311  1.00  0.00     0.012 A 
HETATM    3  C   UNL     1     -41.162  55.702 -52.308  1.00  0.00     0.037 A 
HETATM    4  C   UNL     1     -41.686  54.471 -51.923  1.00  0.00     0.069 A 
HETATM    5  C   UNL     1     -42.814  53.977 -52.578  1.00  0.00     0.037 A 
HETATM    6  C   UNL     1     -43.444  54.721 -53.584  1.00  0.00     0.012 A 
ENDROOT
BRANCH   1   7
HETATM    7  C   UNL     1     -43.595  56.846 -55.017  1.00  0.00     0.113 C 
HETATM    8  C   UNL     1     -45.012  57.327 -54.693  1.00  0.00     0.037 C 
BRANCH   7   9
HETATM    9  N   UNL     1     -43.585  56.130 -56.282  1.00  0.00    -0.352 N 
HETATM   10  C   UNL     1     -42.908  56.609 -57.373  1.00  0.00     0.225 C 
HETATM   11  O   UNL     1     -42.191  57.599 -57.370  1.00  0.00    -0.273 OA
HETATM   12  H   UNL     1     -44.199  55.332 -56.375  1.00  0.00     0.163 HD
BRANCH  10  13
HETATM   13  C   UNL     1     -43.104  55.813 -58.602  1.00  0.00     0.119 A 
HETATM   14  C   UNL     1     -44.349  55.992 -59.431  1.00  0.00     0.126 A 
HETATM   15 CL   UNL     1     -45.049  54.545 -60.156  1.00  0.00    -0.101 Cl
HETATM   16 CL   UNL     1     -45.551  57.197 -59.000  1.00  0.00    -0.101 Cl
HETATM   17  C   UNL     1     -43.030  56.470 -59.963  1.00  0.00     0.060 A 
ENDBRANCH  10  13
ENDBRANCH   7   9
ENDBRANCH   1   7
BRANCH   4  18
HETATM   18  O   UNL     1     -41.189  53.661 -50.939  1.00  0.00    -0.347 OA
BRANCH  18  19
HETATM   19  C   UNL     1     -39.825  53.257 -51.071  1.00  0.00     0.215 C 
BRANCH  19  20
HETATM   20  C   UNL     1     -39.750  51.987 -51.874  1.00  0.00    -0.017 A 
HETATM   21  C   UNL     1     -39.655  50.743 -51.258  1.00  0.00     0.125 A 
HETATM   22  N   UNL     1     -39.622  49.565 -51.924  1.00  0.00    -0.272 NA
HETATM   23  C   UNL     1     -39.686  49.627 -53.271  1.00  0.00     0.116 A 
HETATM   24  C   UNL     1     -39.792  50.810 -53.982  1.00  0.00     0.020 A 
HETATM   25  C   UNL     1     -39.830  52.006 -53.271  1.00  0.00     0.012 A 
ENDBRANCH  19  20
ENDBRANCH  18  19
ENDBRANCH   4  18
TORSDOF 6
ENDMDL
MODEL 2
REMARK VINA RESULT:      -7.5      1.511      2.195
REMARK  6 active torsions:
REMARK  status: ('A' for Active; 'I' for Inactive)
REMARK    1  A    between atoms: C_2  and  N_3 
REMARK    2  A    between atoms: C_2  and  C_11 
REMARK       I    between atoms: N_3  and  C_4 
REMARK    3  A    between atoms: C_4  and  C_5 
REMARK    4  A    between atoms: C_14  and  O_15 
REMARK    5  A    between atoms: O_15  and  C_16 
REMARK    6  A    between atoms: C_16  and  C_17 
ROOT
HETATM    1  C   UNL     1     -42.269  56.035 -55.654  1.00  0.00    -0.036 A 
HETATM    2  C   UNL     1     -42.703  54.699 -55.610  1.00  0.00     0.012 A 
HETATM    3  C   UNL     1     -42.517  53.913 -54.467  1.00  0.00     0.037 A 
HETATM    4  C   UNL     1     -41.892  54.451 -53.345  1.00  0.00     0.069 A 
HETATM    5  C   UNL     1     -41.498  55.789 -53.362  1.00  0.00     0.037 A 
HETATM    6  C   UNL     1     -41.685  56.578 -54.504  1.00  0.00     0.012 A 
ENDROOT
BRANCH   1   7
HETATM    7  C   UNL     1     -42.489  56.828 -56.930  1.00  0.00     0.113 C 
HETATM    8  C   UNL     1     -42.711  58.329 -56.725  1.00  0.00     0.037 C 
BRANCH   7   9
HETATM    9  N   UNL     1     -43.600  56.252 -57.668  1.00  0.00    -0.352 N 
HETATM   10  C   UNL     1     -43.457  55.821 -58.961  1.00  0.00     0.225 C 
HETATM   11  O   UNL     1     -42.400  55.787 -59.572  1.00  0.00    -0.273 OA
HETATM   12  H   UNL     1     -44.518  56.296 -57.245  1.00  0.00     0.163 HD
BRANCH  10  13
HETATM   13  C   UNL     1     -44.716  55.372 -59.590  1.00  0.00     0.119 A 
HETATM   14  C   UNL     1     -45.601  56.361 -60.303  1.00  0.00     0.126 A 
HETATM   15 CL   UNL     1     -47.344  56.152 -60.131  1.00  0.00    -0.101 Cl
HETATM   16 CL   UNL     1     -45.122  58.042 -60.468  1.00  0.00    -0.101 Cl
HETATM   17  C   UNL     1     -44.851  55.332 -61.096  1.00  0.00     0.060 A 
ENDBRANCH  10  13
ENDBRANCH   7   9
ENDBRANCH   1   7
BRANCH   4  18
HETATM   18  O   UNL     1     -41.622  53.785 -52.182  1.00  0.00    -0.347 OA
BRANCH  18  19
HETATM   19  C   UNL     1     -40.249  53.491 -51.917  1.00  0.00     0.215 C 
BRANCH  19  20
HETATM   20  C   UNL     1     -40.008  52.014 -52.073  1.00  0.00    -0.017 A 
HETATM   21  C   UNL     1     -39.851  51.433 -53.327  1.00  0.00     0.125 A 
HETATM   22  N   UNL     1     -39.595  50.119 -53.530  1.00  0.00    -0.272 NA
HETATM   23  C   UNL     1     -39.489  49.344 -52.431  1.00  0.00     0.116 A 
HETATM   24  C   UNL     1     -39.618  49.823 -51.138  1.00  0.00     0.020 A 
HETATM   25  C   UNL     1     -39.876  51.178 -50.959  1.00  0.00     0.012 A 
ENDBRANCH  19  20
ENDBRANCH  18  19
ENDBRANCH   4  18
TORSDOF 6
ENDMDL
MODEL 3
REMARK VINA RESULT:      -7.3      2.314      2.960
REMARK  6 active torsions:
REMARK  status: ('A' for Active; 'I' for Inactive)
REMARK    1  A    between atoms: C_2  and  N_3 
REMARK    2  A    between atoms: C_2  and  C_11 
REMARK       I    between atoms: N_3  and  C_4 
REMARK    3  A    between atoms: C_4  and  C_5 
REMARK    4  A    between atoms: C_14  and  O_15 
REMARK    5  A    between atoms: O_15  and  C_16 
REMARK    6  A    between atoms: C_16  and  C_17 
ROOT
HETATM    1  C   UNL     1     -42.333  56.882 -51.674  1.00  0.00    -0.036 A 
HETATM    2  C   UNL     1     -43.043  55.782 -52.185  1.00  0.00     0.012 A 
HETATM    3  C   UNL     1     -42.675  54.470 -51.868  1.00  0.00     0.037 A 
HETATM    4  C   UNL     1     -41.588  54.233 -51.031  1.00  0.00     0.069 A 
HETATM    5  C   UNL     1     -40.903  55.318 -50.482  1.00  0.00     0.037 A 
HETATM    6  C   UNL     1     -41.271  56.632 -50.796  1.00  0.00     0.012 A 
ENDROOT
BRANCH   1   7
HETATM    7  C   UNL     1     -42.775  58.279 -52.069  1.00  0.00     0.113 C 
HETATM    8  C   UNL     1     -44.010  58.799 -51.326  1.00  0.00     0.037 C 
BRANCH   7   9
HETATM    9  N   UNL     1     -42.998  58.324 -53.504  1.00  0.00    -0.352 N 
HETATM   10  C   UNL     1     -42.066  58.852 -54.359  1.00  0.00     0.225 C 
HETATM   11  O   UNL     1     -40.953  59.235 -54.029  1.00  0.00    -0.273 OA
HETATM   12  H   UNL     1     -43.916  58.073 -53.845  1.00  0.00     0.163 HD
BRANCH  10  13
HETATM   13  C   UNL     1     -42.508  58.920 -55.767  1.00  0.00     0.119 A 
HETATM   14  C   UNL     1     -42.488  57.684 -56.628  1.00  0.00     0.126 A 
HETATM   15 CL   UNL     1     -42.016  57.885 -58.316  1.00  0.00    -0.101 Cl
HETATM   16 CL   UNL     1     -42.016  56.130 -55.961  1.00  0.00    -0.101 Cl
HETATM   17  C   UNL     1     -43.802  58.266 -56.198  1.00  0.00     0.060 A 
ENDBRANCH  10  13
ENDBRANCH   7   9
ENDBRANCH   1   7
BRANCH   4  18
HETATM   18  O   UNL     1     -41.107  53.005 -50.670  1.00  0.00    -0.347 OA
BRANCH  18  19
HETATM   19  C   UNL     1     -39.764  52.706 -51.054  1.00  0.00     0.215 C 
BRANCH  19  20
HETATM   20  C   UNL     1     -39.770  51.697 -52.170  1.00  0.00    -0.017 A 
HETATM   21  C   UNL     1     -39.557  50.344 -51.928  1.00  0.00     0.125 A 
HETATM   22  N   UNL     1     -39.588  49.385 -52.883  1.00  0.00    -0.272 NA
HETATM   23  C   UNL     1     -39.845  49.792 -54.144  1.00  0.00     0.116 A 
HETATM   24  C   UNL     1     -40.081  51.112 -54.492  1.00  0.00     0.020 A 
HETATM   25  C   UNL     1     -40.049  52.075 -53.489  1.00  0.00     0.012 A 
ENDBRANCH  19  20
ENDBRANCH  18  19
ENDBRANCH   4  18
TORSDOF 6
ENDMDL
MODEL 4
REMARK VINA RESULT:      -7.3     14.254     15.732
REMARK  6 active torsions:
REMARK  status: ('A' for Active; 'I' for Inactive)
REMARK    1  A    between atoms: C_2  and  N_3 
REMARK    2  A    between atoms: C_2  and  C_11 
REMARK       I    between atoms: N_3  and  C_4 
REMARK    3  A    between atoms: C_4  and  C_5 
REMARK    4  A    between atoms: C_14  and  O_15 
REMARK    5  A    between atoms: O_15  and  C_16 
REMARK    6  A    between atoms: C_16  and  C_17 
ROOT
HETATM    1  C   UNL     1     -36.608  41.672 -57.618  1.00  0.00    -0.036 A 
HETATM    2  C   UNL     1     -37.638  41.654 -56.663  1.00  0.00     0.012 A 
HETATM    3  C   UNL     1     -37.393  41.973 -55.323  1.00  0.00     0.037 A 
HETATM    4  C   UNL     1     -36.107  42.317 -54.913  1.00  0.00     0.069 A 
HETATM    5  C   UNL     1     -35.086  42.382 -55.860  1.00  0.00     0.037 A 
HETATM    6  C   UNL     1     -35.330  42.066 -57.202  1.00  0.00     0.012 A 
ENDROOT
BRANCH   1   7
HETATM    7  C   UNL     1     -36.938  41.302 -59.052  1.00  0.00     0.113 C 
HETATM    8  C   UNL     1     -37.306  42.483 -59.955  1.00  0.00     0.037 C 
BRANCH   7   9
HETATM    9  N   UNL     1     -38.005  40.315 -59.059  1.00  0.00    -0.352 N 
HETATM   10  C   UNL     1     -37.740  38.971 -59.096  1.00  0.00     0.225 C 
HETATM   11  O   UNL     1     -36.623  38.478 -59.033  1.00  0.00    -0.273 OA
HETATM   12  H   UNL     1     -38.954  40.649 -59.166  1.00  0.00     0.163 HD
BRANCH  10  13
HETATM   13  C   UNL     1     -38.943  38.121 -59.214  1.00  0.00     0.119 A 
HETATM   14  C   UNL     1     -39.540  37.838 -60.568  1.00  0.00     0.126 A 
HETATM   15 CL   UNL     1     -41.300  37.777 -60.675  1.00  0.00    -0.101 Cl
HETATM   16 CL   UNL     1     -38.781  38.442 -62.031  1.00  0.00    -0.101 Cl
HETATM   17  C   UNL     1     -38.850  36.737 -59.818  1.00  0.00     0.060 A 
ENDBRANCH  10  13
ENDBRANCH   7   9
ENDBRANCH   1   7
BRANCH   4  18
HETATM   18  O   UNL     1     -35.728  42.618 -53.633  1.00  0.00    -0.347 OA
BRANCH  18  19
HETATM   19  C   UNL     1     -36.423  41.940 -52.585  1.00  0.00     0.215 C 
BRANCH  19  20
HETATM   20  C   UNL     1     -35.460  41.077 -51.816  1.00  0.00    -0.017 A 
HETATM   21  C   UNL     1     -35.607  39.695 -51.762  1.00  0.00     0.125 A 
HETATM   22  N   UNL     1     -34.753  38.864 -51.120  1.00  0.00    -0.272 NA
HETATM   23  C   UNL     1     -33.700  39.435 -50.499  1.00  0.00     0.116 A 
HETATM   24  C   UNL     1     -33.455  40.798 -50.499  1.00  0.00     0.020 A 
HETATM   25  C   UNL     1     -34.346  41.628 -51.173  1.00  0.00     0.012 A 
ENDBRANCH  19  20
ENDBRANCH  18  19
ENDBRANCH   4  18
TORSDOF 6
ENDMDL
MODEL 5
REMARK VINA RESULT:      -7.2      5.116      6.263
REMARK  6 active torsions:
REMARK  status: ('A' for Active; 'I' for Inactive)
REMARK    1  A    between atoms: C_2  and  N_3 
REMARK    2  A    between atoms: C_2  and  C_11 
REMARK       I    between atoms: N_3  and  C_4 
REMARK    3  A    between atoms: C_4  and  C_5 
REMARK    4  A    between atoms: C_14  and  O_15 
REMARK    5  A    between atoms: O_15  and  C_16 
REMARK    6  A    between atoms: C_16  and  C_17 
ROOT
HETATM    1  C   UNL     1     -41.230  57.345 -51.125  1.00  0.00    -0.036 A 
HETATM    2  C   UNL     1     -41.351  56.637 -52.332  1.00  0.00     0.012 A 
HETATM    3  C   UNL     1     -41.372  55.238 -52.354  1.00  0.00     0.037 A 
HETATM    4  C   UNL     1     -41.271  54.520 -51.164  1.00  0.00     0.069 A 
HETATM    5  C   UNL     1     -41.195  55.214 -49.956  1.00  0.00     0.037 A 
HETATM    6  C   UNL     1     -41.176  56.614 -49.932  1.00  0.00     0.012 A 
ENDROOT
BRANCH   1   7
HETATM    7  C   UNL     1     -41.200  58.862 -51.172  1.00  0.00     0.113 C 
HETATM    8  C   UNL     1     -39.915  59.498 -50.634  1.00  0.00     0.037 C 
BRANCH   7   9
HETATM    9  N   UNL     1     -42.355  59.387 -50.463  1.00  0.00    -0.352 N 
HETATM   10  C   UNL     1     -43.265  60.206 -51.080  1.00  0.00     0.225 C 
HETATM   11  O   UNL     1     -43.254  60.491 -52.268  1.00  0.00    -0.273 OA
HETATM   12  H   UNL     1     -42.401  59.237 -49.464  1.00  0.00     0.163 HD
BRANCH  10  13
HETATM   13  C   UNL     1     -44.308  60.736 -50.178  1.00  0.00     0.119 A 
HETATM   14  C   UNL     1     -44.194  62.133 -49.627  1.00  0.00     0.126 A 
HETATM   15 CL   UNL     1     -44.715  62.388 -47.961  1.00  0.00    -0.101 Cl
HETATM   16 CL   UNL     1     -42.869  63.183 -50.102  1.00  0.00    -0.101 Cl
HETATM   17  C   UNL     1     -45.249  61.823 -50.648  1.00  0.00     0.060 A 
ENDBRANCH  10  13
ENDBRANCH   7   9
ENDBRANCH   1   7
BRANCH   4  18
HETATM   18  O   UNL     1     -41.245  53.158 -51.050  1.00  0.00    -0.347 OA
BRANCH  18  19
HETATM   19  C   UNL     1     -39.957  52.543 -51.008  1.00  0.00     0.215 C 
BRANCH  19  20
HETATM   20  C   UNL     1     -39.829  51.557 -52.138  1.00  0.00    -0.017 A 
HETATM   21  C   UNL     1     -39.566  50.212 -51.902  1.00  0.00     0.125 A 
HETATM   22  N   UNL     1     -39.478  49.272 -52.872  1.00  0.00    -0.272 NA
HETATM   23  C   UNL     1     -39.661  49.691 -54.142  1.00  0.00     0.116 A 
HETATM   24  C   UNL     1     -39.938  51.004 -54.486  1.00  0.00     0.020 A 
HETATM   25  C   UNL     1     -40.028  51.947 -53.467  1.00  0.00     0.012 A 
ENDBRANCH  19  20
ENDBRANCH  18  19
ENDBRANCH   4  18
TORSDOF 6
ENDMDL
MODEL 6
REMARK VINA RESULT:      -7.0      2.093      2.913
REMARK  6 active torsions:
REMARK  status: ('A' for Active; 'I' for Inactive)
REMARK    1  A    between atoms: C_2  and  N_3 
REMARK    2  A    between atoms: C_2  and  C_11 
REMARK       I    between atoms: N_3  and  C_4 
REMARK    3  A    between atoms: C_4  and  C_5 
REMARK    4  A    between atoms: C_14  and  O_15 
REMARK    5  A    between atoms: O_15  and  C_16 
REMARK    6  A    between atoms: C_16  and  C_17 
ROOT
HETATM    1  C   UNL     1     -42.586  56.351 -56.692  1.00  0.00    -0.036 A 
HETATM    2  C   UNL     1     -41.962  56.949 -55.584  1.00  0.00     0.012 A 
HETATM    3  C   UNL     1     -41.719  56.227 -54.410  1.00  0.00     0.037 A 
HETATM    4  C   UNL     1     -42.099  54.890 -54.323  1.00  0.00     0.069 A 
HETATM    5  C   UNL     1     -42.679  54.274 -55.432  1.00  0.00     0.037 A 
HETATM    6  C   UNL     1     -42.920  54.994 -56.608  1.00  0.00     0.012 A 
ENDROOT
BRANCH   1   7
HETATM    7  C   UNL     1     -42.833  57.194 -57.930  1.00  0.00     0.113 C 
HETATM    8  C   UNL     1     -42.064  58.518 -57.971  1.00  0.00     0.037 C 
BRANCH   7   9
HETATM    9  N   UNL     1     -44.259  57.438 -58.068  1.00  0.00    -0.352 N 
HETATM   10  C   UNL     1     -44.971  56.950 -59.132  1.00  0.00     0.225 C 
HETATM   11  O   UNL     1     -44.520  56.208 -59.992  1.00  0.00    -0.273 OA
HETATM   12  H   UNL     1     -44.689  58.088 -57.423  1.00  0.00     0.163 HD
BRANCH  10  13
HETATM   13  C   UNL     1     -46.380  57.392 -59.169  1.00  0.00     0.119 A 
HETATM   14  C   UNL     1     -46.750  58.691 -59.838  1.00  0.00     0.126 A 
HETATM   15 CL   UNL     1     -48.014  59.657 -59.077  1.00  0.00    -0.101 Cl
HETATM   16 CL   UNL     1     -45.534  59.662 -60.650  1.00  0.00    -0.101 Cl
HETATM   17  C   UNL     1     -47.152  57.391 -60.470  1.00  0.00     0.060 A 
ENDBRANCH  10  13
ENDBRANCH   7   9
ENDBRANCH   1   7
BRANCH   4  18
HETATM   18  O   UNL     1     -41.950  54.085 -53.227  1.00  0.00    -0.347 OA
BRANCH  18  19
HETATM   19  C   UNL     1     -40.616  53.884 -52.758  1.00  0.00     0.215 C 
BRANCH  19  20
HETATM   20  C   UNL     1     -40.242  52.434 -52.903  1.00  0.00    -0.017 A 
HETATM   21  C   UNL     1     -39.800  51.685 -51.817  1.00  0.00     0.125 A 
HETATM   22  N   UNL     1     -39.486  50.370 -51.877  1.00  0.00    -0.272 NA
HETATM   23  C   UNL     1     -39.616  49.768 -53.077  1.00  0.00     0.116 A 
HETATM   24  C   UNL     1     -40.057  50.417 -54.219  1.00  0.00     0.020 A 
HETATM   25  C   UNL     1     -40.379  51.768 -54.126  1.00  0.00     0.012 A 
ENDBRANCH  19  20
ENDBRANCH  18  19
ENDBRANCH   4  18
TORSDOF 6
ENDMDL
MODEL 7
REMARK VINA RESULT:      -6.8      3.938      5.366
REMARK  6 active torsions:
REMARK  status: ('A' for Active; 'I' for Inactive)
REMARK    1  A    between atoms: C_2  and  N_3 
REMARK    2  A    between atoms: C_2  and  C_11 
REMARK       I    between atoms: N_3  and  C_4 
REMARK    3  A    between atoms: C_4  and  C_5 
REMARK    4  A    between atoms: C_14  and  O_15 
REMARK    5  A    between atoms: O_15  and  C_16 
REMARK    6  A    between atoms: C_16  and  C_17 
ROOT
HETATM    1  C   UNL     1     -40.973  57.718 -52.307  1.00  0.00    -0.036 A 
HETATM    2  C   UNL     1     -40.890  57.482 -53.690  1.00  0.00     0.012 A 
HETATM    3  C   UNL     1     -41.062  56.197 -54.218  1.00  0.00     0.037 A 
HETATM    4  C   UNL     1     -41.320  55.123 -53.371  1.00  0.00     0.069 A 
HETATM    5  C   UNL     1     -41.449  55.354 -52.001  1.00  0.00     0.037 A 
HETATM    6  C   UNL     1     -41.280  56.638 -51.470  1.00  0.00     0.012 A 
ENDROOT
BRANCH   1   7
HETATM    7  C   UNL     1     -40.762  59.132 -51.797  1.00  0.00     0.113 C 
HETATM    8  C   UNL     1     -39.799  59.254 -50.614  1.00  0.00     0.037 C 
BRANCH   7   9
HETATM    9  N   UNL     1     -42.049  59.716 -51.459  1.00  0.00    -0.352 N 
HETATM   10  C   UNL     1     -42.718  60.536 -52.331  1.00  0.00     0.225 C 
HETATM   11  O   UNL     1     -42.363  60.774 -53.476  1.00  0.00    -0.273 OA
HETATM   12  H   UNL     1     -42.380  59.607 -50.509  1.00  0.00     0.163 HD
BRANCH  10  13
HETATM   13  C   UNL     1     -43.951  61.129 -51.776  1.00  0.00     0.119 A 
HETATM   14  C   UNL     1     -45.152  60.262 -51.502  1.00  0.00     0.126 A 
HETATM   15 CL   UNL     1     -46.740  60.954 -51.840  1.00  0.00    -0.101 Cl
HETATM   16 CL   UNL     1     -45.088  58.527 -51.761  1.00  0.00    -0.101 Cl
HETATM   17  C   UNL     1     -44.374  60.834 -50.353  1.00  0.00     0.060 A 
ENDBRANCH  10  13
ENDBRANCH   7   9
ENDBRANCH   1   7
BRANCH   4  18
HETATM   18  O   UNL     1     -41.476  53.819 -53.754  1.00  0.00    -0.347 OA
BRANCH  18  19
HETATM   19  C   UNL     1     -40.331  53.178 -54.317  1.00  0.00     0.215 C 
BRANCH  19  20
HETATM   20  C   UNL     1     -40.068  51.885 -53.594  1.00  0.00    -0.017 A 
HETATM   21  C   UNL     1     -40.048  50.668 -54.267  1.00  0.00     0.125 A 
HETATM   22  N   UNL     1     -39.780  49.478 -53.679  1.00  0.00    -0.272 NA
HETATM   23  C   UNL     1     -39.520  49.499 -52.355  1.00  0.00     0.116 A 
HETATM   24  C   UNL     1     -39.505  50.656 -51.594  1.00  0.00     0.020 A 
HETATM   25  C   UNL     1     -39.778  51.865 -52.225  1.00  0.00     0.012 A 
ENDBRANCH  19  20
ENDBRANCH  18  19
ENDBRANCH   4  18
TORSDOF 6
ENDMDL
MODEL 8
REMARK VINA RESULT:      -6.8      4.353      5.976
REMARK  6 active torsions:
REMARK  status: ('A' for Active; 'I' for Inactive)
REMARK    1  A    between atoms: C_2  and  N_3 
REMARK    2  A    between atoms: C_2  and  C_11 
REMARK       I    between atoms: N_3  and  C_4 
REMARK    3  A    between atoms: C_4  and  C_5 
REMARK    4  A    between atoms: C_14  and  O_15 
REMARK    5  A    between atoms: O_15  and  C_16 
REMARK    6  A    between atoms: C_16  and  C_17 
ROOT
HETATM    1  C   UNL     1     -43.590  57.037 -52.627  1.00  0.00    -0.036 A 
HETATM    2  C   UNL     1     -43.493  56.170 -53.729  1.00  0.00     0.012 A 
HETATM    3  C   UNL     1     -42.475  55.214 -53.813  1.00  0.00     0.037 A 
HETATM    4  C   UNL     1     -41.532  55.108 -52.793  1.00  0.00     0.069 A 
HETATM    5  C   UNL     1     -41.645  55.933 -51.674  1.00  0.00     0.037 A 
HETATM    6  C   UNL     1     -42.664  56.889 -51.587  1.00  0.00     0.012 A 
ENDROOT
BRANCH   1   7
HETATM    7  C   UNL     1     -44.710  58.062 -52.605  1.00  0.00     0.113 C 
HETATM    8  C   UNL     1     -45.011  58.717 -53.956  1.00  0.00     0.037 C 
BRANCH   7   9
HETATM    9  N   UNL     1     -44.410  59.078 -51.610  1.00  0.00    -0.352 N 
HETATM   10  C   UNL     1     -45.309  59.413 -50.632  1.00  0.00     0.225 C 
HETATM   11  O   UNL     1     -46.376  58.848 -50.441  1.00  0.00    -0.273 OA
HETATM   12  H   UNL     1     -43.569  59.625 -51.737  1.00  0.00     0.163 HD
BRANCH  10  13
HETATM   13  C   UNL     1     -44.883  60.543 -49.782  1.00  0.00     0.119 A 
HETATM   14  C   UNL     1     -44.898  61.948 -50.326  1.00  0.00     0.126 A 
HETATM   15 CL   UNL     1     -43.579  63.014 -49.840  1.00  0.00    -0.101 Cl
HETATM   16 CL   UNL     1     -45.490  62.280 -51.945  1.00  0.00    -0.101 Cl
HETATM   17  C   UNL     1     -45.894  61.550 -49.278  1.00  0.00     0.060 A 
ENDBRANCH  10  13
ENDBRANCH   7   9
ENDBRANCH   1   7
BRANCH   4  18
HETATM   18  O   UNL     1     -40.474  54.242 -52.768  1.00  0.00    -0.347 OA
BRANCH  18  19
HETATM   19  C   UNL     1     -40.369  53.327 -53.860  1.00  0.00     0.215 C 
BRANCH  19  20
HETATM   20  C   UNL     1     -40.092  51.945 -53.337  1.00  0.00    -0.017 A 
HETATM   21  C   UNL     1     -40.065  50.840 -54.183  1.00  0.00     0.125 A 
HETATM   22  N   UNL     1     -39.784  49.579 -53.779  1.00  0.00    -0.272 NA
HETATM   23  C   UNL     1     -39.516  49.407 -52.467  1.00  0.00     0.116 A 
HETATM   24  C   UNL     1     -39.506  50.438 -51.543  1.00  0.00     0.020 A 
HETATM   25  C   UNL     1     -39.792  51.725 -51.988  1.00  0.00     0.012 A 
ENDBRANCH  19  20
ENDBRANCH  18  19
ENDBRANCH   4  18
TORSDOF 6
ENDMDL
MODEL 9
REMARK VINA RESULT:      -6.7      3.737      4.941
REMARK  6 active torsions:
REMARK  status: ('A' for Active; 'I' for Inactive)
REMARK    1  A    between atoms: C_2  and  N_3 
REMARK    2  A    between atoms: C_2  and  C_11 
REMARK       I    between atoms: N_3  and  C_4 
REMARK    3  A    between atoms: C_4  and  C_5 
REMARK    4  A    between atoms: C_14  and  O_15 
REMARK    5  A    between atoms: O_15  and  C_16 
REMARK    6  A    between atoms: C_16  and  C_17 
ROOT
HETATM    1  C   UNL     1     -43.044  55.909 -52.936  1.00  0.00    -0.036 A 
HETATM    2  C   UNL     1     -43.640  54.696 -52.551  1.00  0.00     0.012 A 
HETATM    3  C   UNL     1     -42.952  53.768 -51.761  1.00  0.00     0.037 A 
HETATM    4  C   UNL     1     -41.652  54.038 -51.340  1.00  0.00     0.069 A 
HETATM    5  C   UNL     1     -41.068  55.259 -51.679  1.00  0.00     0.037 A 
HETATM    6  C   UNL     1     -41.754  56.189 -52.467  1.00  0.00     0.012 A 
ENDROOT
BRANCH   1   7
HETATM    7  C   UNL     1     -43.839  56.866 -53.806  1.00  0.00     0.113 C 
HETATM    8  C   UNL     1     -43.642  56.681 -55.313  1.00  0.00     0.037 C 
BRANCH   7   9
HETATM    9  N   UNL     1     -43.529  58.233 -53.423  1.00  0.00    -0.352 N 
HETATM   10  C   UNL     1     -44.216  58.874 -52.425  1.00  0.00     0.225 C 
HETATM   11  O   UNL     1     -45.064  58.352 -51.715  1.00  0.00    -0.273 OA
HETATM   12  H   UNL     1     -42.876  58.746 -54.001  1.00  0.00     0.163 HD
BRANCH  10  13
HETATM   13  C   UNL     1     -43.845  60.293 -52.251  1.00  0.00     0.119 A 
HETATM   14  C   UNL     1     -42.659  60.666 -51.400  1.00  0.00     0.126 A 
HETATM   15 CL   UNL     1     -42.803  62.118 -50.409  1.00  0.00    -0.101 Cl
HETATM   16 CL   UNL     1     -41.653  59.428 -50.665  1.00  0.00    -0.101 Cl
HETATM   17  C   UNL     1     -42.587  60.842 -52.888  1.00  0.00     0.060 A 
ENDBRANCH  10  13
ENDBRANCH   7   9
ENDBRANCH   1   7
BRANCH   4  18
HETATM   18  O   UNL     1     -40.862  53.206 -50.595  1.00  0.00    -0.347 OA
BRANCH  18  19
HETATM   19  C   UNL     1     -39.568  52.911 -51.123  1.00  0.00     0.215 C 
BRANCH  19  20
HETATM   20  C   UNL     1     -39.679  51.820 -52.153  1.00  0.00    -0.017 A 
HETATM   21  C   UNL     1     -39.536  50.480 -51.810  1.00  0.00     0.125 A 
HETATM   22  N   UNL     1     -39.662  49.453 -52.683  1.00  0.00    -0.272 NA
HETATM   23  C   UNL     1     -39.945  49.775 -53.963  1.00  0.00     0.116 A 
HETATM   24  C   UNL     1     -40.117  51.075 -54.408  1.00  0.00     0.020 A 
HETATM   25  C   UNL     1     -39.988  52.110 -53.487  1.00  0.00     0.012 A 
ENDBRANCH  19  20
ENDBRANCH  18  19
ENDBRANCH   4  18
TORSDOF 6
ENDMDL
MODEL 10
REMARK VINA RESULT:      -6.7      2.412      2.612
REMARK  6 active torsions:
REMARK  status: ('A' for Active; 'I' for Inactive)
REMARK    1  A    between atoms: C_2  and  N_3 
REMARK    2  A    between atoms: C_2  and  C_11 
REMARK       I    between atoms: N_3  and  C_4 
REMARK    3  A    between atoms: C_4  and  C_5 
REMARK    4  A    between atoms: C_14  and  O_15 
REMARK    5  A    between atoms: O_15  and  C_16 
REMARK    6  A    between atoms: C_16  and  C_17 
ROOT
HETATM    1  C   UNL     1     -43.163  57.090 -54.719  1.00  0.00    -0.036 A 
HETATM    2  C   UNL     1     -41.797  56.993 -54.404  1.00  0.00     0.012 A 
HETATM    3  C   UNL     1     -41.280  55.866 -53.756  1.00  0.00     0.037 A 
HETATM    4  C   UNL     1     -42.123  54.812 -53.409  1.00  0.00     0.069 A 
HETATM    5  C   UNL     1     -43.472  54.879 -53.757  1.00  0.00     0.037 A 
HETATM    6  C   UNL     1     -43.991  56.005 -54.408  1.00  0.00     0.012 A 
ENDROOT
BRANCH   1   7
HETATM    7  C   UNL     1     -43.663  58.346 -55.410  1.00  0.00     0.113 C 
HETATM    8  C   UNL     1     -45.165  58.365 -55.705  1.00  0.00     0.037 C 
BRANCH   7   9
HETATM    9  N   UNL     1     -42.908  58.552 -56.634  1.00  0.00    -0.352 N 
HETATM   10  C   UNL     1     -42.111  59.653 -56.811  1.00  0.00     0.225 C 
HETATM   11  O   UNL     1     -41.884  60.495 -55.954  1.00  0.00    -0.273 OA
HETATM   12  H   UNL     1     -43.087  57.925 -57.407  1.00  0.00     0.163 HD
BRANCH  10  13
HETATM   13  C   UNL     1     -41.512  59.756 -58.157  1.00  0.00     0.119 A 
HETATM   14  C   UNL     1     -42.373  60.099 -59.345  1.00  0.00     0.126 A 
HETATM   15 CL   UNL     1     -42.011  59.282 -60.865  1.00  0.00    -0.101 Cl
HETATM   16 CL   UNL     1     -44.079  60.460 -59.145  1.00  0.00    -0.101 Cl
HETATM   17  C   UNL     1     -41.376  61.100 -58.837  1.00  0.00     0.060 A 
ENDBRANCH  10  13
ENDBRANCH   7   9
ENDBRANCH   1   7
BRANCH   4  18
HETATM   18  O   UNL     1     -41.752  53.674 -52.748  1.00  0.00    -0.347 OA
BRANCH  18  19
HETATM   19  C   UNL     1     -40.351  53.472 -52.558  1.00  0.00     0.215 C 
BRANCH  19  20
HETATM   20  C   UNL     1     -40.014  52.023 -52.778  1.00  0.00    -0.017 A 
HETATM   21  C   UNL     1     -39.647  51.194 -51.722  1.00  0.00     0.125 A 
HETATM   22  N   UNL     1     -39.371  49.875 -51.850  1.00  0.00    -0.272 NA
HETATM   23  C   UNL     1     -39.463  49.353 -53.091  1.00  0.00     0.116 A 
HETATM   24  C   UNL     1     -39.829  50.086 -54.208  1.00  0.00     0.020 A 
HETATM   25  C   UNL     1     -40.114  51.438 -54.045  1.00  0.00     0.012 A 
ENDBRANCH  19  20
ENDBRANCH  18  19
ENDBRANCH   4  18
TORSDOF 6
ENDMDL
