MODEL 1
REMARK VINA RESULT:      -8.4      0.000      0.000
REMARK  5 active torsions:
REMARK  status: ('A' for Active; 'I' for Inactive)
REMARK    1  A    between atoms: N_2  and  C_4 
REMARK    2  A    between atoms: C_4  and  C_5 
REMARK    3  A    between atoms: C_5  and  N_6 
REMARK    4  A    between atoms: C_11  and  C_12 
REMARK    5  A    between atoms: C_14  and  O_15 
ROOT
HETATM    1  N   UNL     1     -43.511  56.655 -54.374  1.00  0.00    -0.332 N 
HETATM    2  C   UNL     1     -42.866  55.778 -55.244  1.00  0.00     0.279 C 
HETATM    3  O   UNL     1     -42.873  55.844 -56.459  1.00  0.00    -0.265 OA
HETATM    4  C   UNL     1     -42.169  54.780 -54.416  1.00  0.00     0.156 A 
HETATM    5  C   UNL     1     -42.330  55.168 -53.152  1.00  0.00     0.060 A 
HETATM    6  C   UNL     1     -43.098  56.421 -52.988  1.00  0.00     0.161 C 
HETATM    7  O   UNL     1     -41.491  53.690 -54.876  1.00  0.00    -0.303 OA
HETATM    8  C   UNL     1     -40.878  52.914 -53.912  1.00  0.00     0.090 A 
HETATM    9  C   UNL     1     -40.985  53.181 -52.535  1.00  0.00     0.051 A 
HETATM   10  C   UNL     1     -41.786  54.341 -52.085  1.00  0.00     0.196 A 
HETATM   11  O   UNL     1     -42.003  54.592 -50.909  1.00  0.00    -0.287 OA
HETATM   12  C   UNL     1     -40.127  51.825 -54.357  1.00  0.00     0.041 A 
HETATM   13  C   UNL     1     -39.483  51.010 -53.425  1.00  0.00     0.045 A 
HETATM   14  C   UNL     1     -39.597  51.285 -52.063  1.00  0.00     0.117 A 
HETATM   15  F   UNL     1     -38.972  50.496 -51.181  1.00  0.00    -0.206 F 
HETATM   16  C   UNL     1     -40.345  52.363 -51.604  1.00  0.00     0.060 A 
ENDROOT
BRANCH   6  17
HETATM   17  C   UNL     1     -42.295  57.574 -52.414  1.00  0.00    -0.028 A 
HETATM   18  C   UNL     1     -41.020  57.853 -52.936  1.00  0.00     0.046 A 
HETATM   19  C   UNL     1     -40.252  58.877 -52.388  1.00  0.00     0.066 A 
HETATM   20  C   UNL     1     -40.726  59.638 -51.329  1.00  0.00     0.036 A 
HETATM   21  C   UNL     1     -41.997  59.392 -50.819  1.00  0.00     0.003 A 
HETATM   22  C   UNL     1     -42.779  58.370 -51.359  1.00  0.00     0.010 A 
BRANCH  19  23
HETATM   23  O   UNL     1     -39.008  59.160 -52.866  1.00  0.00    -0.361 OA
HETATM   24  H   UNL     1     -38.429  58.394 -52.721  1.00  0.00     0.217 HD
ENDBRANCH  19  23
ENDBRANCH   6  17
BRANCH   1  25
HETATM   25  C   UNL     1     -44.079  57.919 -54.822  1.00  0.00     0.155 C 
BRANCH  25  26
HETATM   26  C   UNL     1     -45.497  57.803 -55.414  1.00  0.00     0.254 C 
BRANCH  26  27
HETATM   27  N   UNL     1     -45.473  57.807 -56.938  1.00  0.00    -0.077 N 
HETATM   28  C   UNL     1     -44.445  58.728 -57.533  1.00  0.00     0.269 C 
HETATM   29  H   UNL     1     -45.241  56.848 -57.234  1.00  0.00     0.279 HD
HETATM   30  C   UNL     1     -46.845  58.085 -57.499  1.00  0.00     0.269 C 
ENDBRANCH  26  27
ENDBRANCH  25  26
ENDBRANCH   1  25
TORSDOF 5
ENDMDL
MODEL 2
REMARK VINA RESULT:      -8.4      1.671      2.153
REMARK  5 active torsions:
REMARK  status: ('A' for Active; 'I' for Inactive)
REMARK    1  A    between atoms: N_2  and  C_4 
REMARK    2  A    between atoms: C_4  and  C_5 
REMARK    3  A    between atoms: C_5  and  N_6 
REMARK    4  A    between atoms: C_11  and  C_12 
REMARK    5  A    between atoms: C_14  and  O_15 
ROOT
HETATM    1  N   UNL     1     -42.828  57.436 -53.610  1.00  0.00    -0.332 N 
HETATM    2  C   UNL     1     -42.362  56.576 -54.602  1.00  0.00     0.279 C 
HETATM    3  O   UNL     1     -42.433  56.764 -55.802  1.00  0.00    -0.265 OA
HETATM    4  C   UNL     1     -41.757  55.418 -53.922  1.00  0.00     0.156 A 
HETATM    5  C   UNL     1     -41.788  55.694 -52.619  1.00  0.00     0.060 A 
HETATM    6  C   UNL     1     -42.368  57.013 -52.285  1.00  0.00     0.161 C 
HETATM    7  O   UNL     1     -41.261  54.301 -54.529  1.00  0.00    -0.303 OA
HETATM    8  C   UNL     1     -40.702  53.360 -53.687  1.00  0.00     0.090 A 
HETATM    9  C   UNL     1     -40.688  53.499 -52.288  1.00  0.00     0.051 A 
HETATM   10  C   UNL     1     -41.296  54.701 -51.675  1.00  0.00     0.196 A 
HETATM   11  O   UNL     1     -41.406  54.858 -50.469  1.00  0.00    -0.287 OA
HETATM   12  C   UNL     1     -40.133  52.234 -54.284  1.00  0.00     0.041 A 
HETATM   13  C   UNL     1     -39.550  51.253 -53.480  1.00  0.00     0.045 A 
HETATM   14  C   UNL     1     -39.543  51.402 -52.095  1.00  0.00     0.117 A 
HETATM   15  F   UNL     1     -38.978  50.455 -51.336  1.00  0.00    -0.206 F 
HETATM   16  C   UNL     1     -40.109  52.516 -51.485  1.00  0.00     0.060 A 
ENDROOT
BRANCH   6  17
HETATM   17  C   UNL     1     -41.383  57.989 -51.668  1.00  0.00    -0.028 A 
HETATM   18  C   UNL     1     -40.196  58.297 -52.355  1.00  0.00     0.046 A 
HETATM   19  C   UNL     1     -39.262  59.154 -51.780  1.00  0.00     0.066 A 
HETATM   20  C   UNL     1     -39.482  59.720 -50.532  1.00  0.00     0.036 A 
HETATM   21  C   UNL     1     -40.665  59.446 -49.852  1.00  0.00     0.003 A 
HETATM   22  C   UNL     1     -41.612  58.590 -50.415  1.00  0.00     0.010 A 
BRANCH  19  23
HETATM   23  O   UNL     1     -38.097  59.460 -52.418  1.00  0.00    -0.361 OA
HETATM   24  H   UNL     1     -38.186  59.247 -53.362  1.00  0.00     0.217 HD
ENDBRANCH  19  23
ENDBRANCH   6  17
BRANCH   1  25
HETATM   25  C   UNL     1     -43.247  58.801 -53.897  1.00  0.00     0.155 C 
BRANCH  25  26
HETATM   26  C   UNL     1     -44.758  59.053 -53.723  1.00  0.00     0.254 C 
BRANCH  26  27
HETATM   27  N   UNL     1     -45.052  59.859 -52.464  1.00  0.00    -0.077 N 
HETATM   28  C   UNL     1     -43.978  60.847 -52.103  1.00  0.00     0.269 C 
HETATM   29  H   UNL     1     -45.915  60.391 -52.647  1.00  0.00     0.279 HD
HETATM   30  C   UNL     1     -45.371  58.951 -51.304  1.00  0.00     0.269 C 
ENDBRANCH  26  27
ENDBRANCH  25  26
ENDBRANCH   1  25
TORSDOF 5
ENDMDL
MODEL 3
REMARK VINA RESULT:      -7.6      2.312      4.218
REMARK  5 active torsions:
REMARK  status: ('A' for Active; 'I' for Inactive)
REMARK    1  A    between atoms: N_2  and  C_4 
REMARK    2  A    between atoms: C_4  and  C_5 
REMARK    3  A    between atoms: C_5  and  N_6 
REMARK    4  A    between atoms: C_11  and  C_12 
REMARK    5  A    between atoms: C_14  and  O_15 
ROOT
HETATM    1  N   UNL     1     -41.183  56.832 -51.466  1.00  0.00    -0.332 N 
HETATM    2  C   UNL     1     -41.119  55.713 -50.638  1.00  0.00     0.279 C 
HETATM    3  O   UNL     1     -41.336  55.697 -49.441  1.00  0.00    -0.265 OA
HETATM    4  C   UNL     1     -40.762  54.565 -51.488  1.00  0.00     0.156 A 
HETATM    5  C   UNL     1     -40.748  55.019 -52.740  1.00  0.00     0.060 A 
HETATM    6  C   UNL     1     -41.098  56.450 -52.877  1.00  0.00     0.161 C 
HETATM    7  O   UNL     1     -40.510  53.295 -51.056  1.00  0.00    -0.303 OA
HETATM    8  C   UNL     1     -40.234  52.370 -52.043  1.00  0.00     0.090 A 
HETATM    9  C   UNL     1     -40.154  52.708 -53.406  1.00  0.00     0.051 A 
HETATM   10  C   UNL     1     -40.374  54.113 -53.816  1.00  0.00     0.196 A 
HETATM   11  O   UNL     1     -40.237  54.507 -54.963  1.00  0.00    -0.287 OA
HETATM   12  C   UNL     1     -40.031  51.051 -51.637  1.00  0.00     0.041 A 
HETATM   13  C   UNL     1     -39.753  50.074 -52.593  1.00  0.00     0.045 A 
HETATM   14  C   UNL     1     -39.677  50.421 -53.941  1.00  0.00     0.117 A 
HETATM   15  F   UNL     1     -39.411  49.473 -54.848  1.00  0.00    -0.206 F 
HETATM   16  C   UNL     1     -39.873  51.731 -54.361  1.00  0.00     0.060 A 
ENDROOT
BRANCH   6  17
HETATM   17  C   UNL     1     -42.389  56.706 -53.632  1.00  0.00    -0.028 A 
HETATM   18  C   UNL     1     -42.334  57.241 -54.930  1.00  0.00     0.046 A 
HETATM   19  C   UNL     1     -43.511  57.525 -55.617  1.00  0.00     0.066 A 
HETATM   20  C   UNL     1     -44.751  57.284 -55.042  1.00  0.00     0.036 A 
HETATM   21  C   UNL     1     -44.822  56.728 -53.768  1.00  0.00     0.003 A 
HETATM   22  C   UNL     1     -43.651  56.438 -53.067  1.00  0.00     0.010 A 
BRANCH  19  23
HETATM   23  O   UNL     1     -43.487  58.056 -56.871  1.00  0.00    -0.361 OA
HETATM   24  H   UNL     1     -42.810  58.753 -56.909  1.00  0.00     0.217 HD
ENDBRANCH  19  23
ENDBRANCH   6  17
BRANCH   1  25
HETATM   25  C   UNL     1     -41.764  58.093 -51.026  1.00  0.00     0.155 C 
BRANCH  25  26
HETATM   26  C   UNL     1     -41.181  59.339 -51.722  1.00  0.00     0.254 C 
BRANCH  26  27
HETATM   27  N   UNL     1     -42.274  60.316 -52.135  1.00  0.00    -0.077 N 
HETATM   28  C   UNL     1     -43.654  59.914 -51.697  1.00  0.00     0.269 C 
HETATM   29  H   UNL     1     -42.054  61.216 -51.683  1.00  0.00     0.279 HD
HETATM   30  C   UNL     1     -42.228  60.583 -53.618  1.00  0.00     0.269 C 
ENDBRANCH  26  27
ENDBRANCH  25  26
ENDBRANCH   1  25
TORSDOF 5
ENDMDL
MODEL 4
REMARK VINA RESULT:      -7.2     15.917     18.768
REMARK  5 active torsions:
REMARK  status: ('A' for Active; 'I' for Inactive)
REMARK    1  A    between atoms: N_2  and  C_4 
REMARK    2  A    between atoms: C_4  and  C_5 
REMARK    3  A    between atoms: C_5  and  N_6 
REMARK    4  A    between atoms: C_11  and  C_12 
REMARK    5  A    between atoms: C_14  and  O_15 
ROOT
HETATM    1  N   UNL     1     -34.716  40.610 -53.682  1.00  0.00    -0.332 N 
HETATM    2  C   UNL     1     -35.258  41.718 -54.330  1.00  0.00     0.279 C 
HETATM    3  O   UNL     1     -35.356  42.839 -53.866  1.00  0.00    -0.265 OA
HETATM    4  C   UNL     1     -35.664  41.278 -55.674  1.00  0.00     0.156 A 
HETATM    5  C   UNL     1     -35.254  40.016 -55.793  1.00  0.00     0.060 A 
HETATM    6  C   UNL     1     -34.538  39.491 -54.610  1.00  0.00     0.161 C 
HETATM    7  O   UNL     1     -36.321  42.034 -56.601  1.00  0.00    -0.303 OA
HETATM    8  C   UNL     1     -36.562  41.420 -57.814  1.00  0.00     0.090 A 
HETATM    9  C   UNL     1     -36.214  40.083 -58.076  1.00  0.00     0.051 A 
HETATM   10  C   UNL     1     -35.560  39.286 -57.015  1.00  0.00     0.196 A 
HETATM   11  O   UNL     1     -35.305  38.097 -57.127  1.00  0.00    -0.287 OA
HETATM   12  C   UNL     1     -37.180  42.188 -58.802  1.00  0.00     0.041 A 
HETATM   13  C   UNL     1     -37.444  41.619 -60.048  1.00  0.00     0.045 A 
HETATM   14  C   UNL     1     -37.094  40.292 -60.296  1.00  0.00     0.117 A 
HETATM   15  F   UNL     1     -37.350  39.759 -61.497  1.00  0.00    -0.206 F 
HETATM   16  C   UNL     1     -36.482  39.513 -59.321  1.00  0.00     0.060 A 
ENDROOT
BRANCH   6  17
HETATM   17  C   UNL     1     -33.078  39.163 -54.860  1.00  0.00    -0.028 A 
HETATM   18  C   UNL     1     -32.331  39.967 -55.738  1.00  0.00     0.046 A 
HETATM   19  C   UNL     1     -31.004  39.651 -56.013  1.00  0.00     0.066 A 
HETATM   20  C   UNL     1     -30.394  38.550 -55.429  1.00  0.00     0.036 A 
HETATM   21  C   UNL     1     -31.112  37.760 -54.535  1.00  0.00     0.003 A 
HETATM   22  C   UNL     1     -32.443  38.065 -54.249  1.00  0.00     0.010 A 
BRANCH  19  23
HETATM   23  O   UNL     1     -30.261  40.406 -56.871  1.00  0.00    -0.361 OA
HETATM   24  H   UNL     1     -30.499  41.342 -56.760  1.00  0.00     0.217 HD
ENDBRANCH  19  23
ENDBRANCH   6  17
BRANCH   1  25
HETATM   25  C   UNL     1     -33.969  40.724 -52.437  1.00  0.00     0.155 C 
BRANCH  25  26
HETATM   26  C   UNL     1     -34.367  39.696 -51.360  1.00  0.00     0.254 C 
BRANCH  26  27
HETATM   27  N   UNL     1     -33.145  39.046 -50.723  1.00  0.00    -0.077 N 
HETATM   28  C   UNL     1     -33.288  38.781 -49.251  1.00  0.00     0.269 C 
HETATM   29  H   UNL     1     -33.014  38.138 -51.192  1.00  0.00     0.279 HD
HETATM   30  C   UNL     1     -31.898  39.840 -51.017  1.00  0.00     0.269 C 
ENDBRANCH  26  27
ENDBRANCH  25  26
ENDBRANCH   1  25
TORSDOF 5
ENDMDL
MODEL 5
REMARK VINA RESULT:      -7.2      3.278      6.635
REMARK  5 active torsions:
REMARK  status: ('A' for Active; 'I' for Inactive)
REMARK    1  A    between atoms: N_2  and  C_4 
REMARK    2  A    between atoms: C_4  and  C_5 
REMARK    3  A    between atoms: C_5  and  N_6 
REMARK    4  A    between atoms: C_11  and  C_12 
REMARK    5  A    between atoms: C_14  and  O_15 
ROOT
HETATM    1  N   UNL     1     -42.989  58.901 -58.313  1.00  0.00    -0.332 N 
HETATM    2  C   UNL     1     -43.222  59.413 -57.038  1.00  0.00     0.279 C 
HETATM    3  O   UNL     1     -43.418  60.582 -56.762  1.00  0.00    -0.265 OA
HETATM    4  C   UNL     1     -43.202  58.275 -56.104  1.00  0.00     0.156 A 
HETATM    5  C   UNL     1     -43.083  57.181 -56.853  1.00  0.00     0.060 A 
HETATM    6  C   UNL     1     -43.032  57.437 -58.309  1.00  0.00     0.161 C 
HETATM    7  O   UNL     1     -43.300  58.352 -54.745  1.00  0.00    -0.303 OA
HETATM    8  C   UNL     1     -43.301  57.144 -54.075  1.00  0.00     0.090 A 
HETATM    9  C   UNL     1     -43.152  55.908 -54.729  1.00  0.00     0.051 A 
HETATM   10  C   UNL     1     -42.986  55.884 -56.199  1.00  0.00     0.196 A 
HETATM   11  O   UNL     1     -42.763  54.865 -56.833  1.00  0.00    -0.287 OA
HETATM   12  C   UNL     1     -43.459  57.188 -52.690  1.00  0.00     0.041 A 
HETATM   13  C   UNL     1     -43.471  55.997 -51.963  1.00  0.00     0.045 A 
HETATM   14  C   UNL     1     -43.322  54.778 -52.622  1.00  0.00     0.117 A 
HETATM   15  F   UNL     1     -43.339  53.642 -51.913  1.00  0.00    -0.206 F 
HETATM   16  C   UNL     1     -43.160  54.718 -54.001  1.00  0.00     0.060 A 
ENDROOT
BRANCH   6  17
HETATM   17  C   UNL     1     -44.215  56.884 -59.081  1.00  0.00    -0.028 A 
HETATM   18  C   UNL     1     -43.993  55.952 -60.110  1.00  0.00     0.046 A 
HETATM   19  C   UNL     1     -45.064  55.471 -60.858  1.00  0.00     0.066 A 
HETATM   20  C   UNL     1     -46.361  55.893 -60.604  1.00  0.00     0.036 A 
HETATM   21  C   UNL     1     -46.601  56.794 -59.570  1.00  0.00     0.003 A 
HETATM   22  C   UNL     1     -45.538  57.285 -58.811  1.00  0.00     0.010 A 
BRANCH  19  23
HETATM   23  O   UNL     1     -44.875  54.578 -61.869  1.00  0.00    -0.361 OA
HETATM   24  H   UNL     1     -45.119  54.994 -62.712  1.00  0.00     0.217 HD
ENDBRANCH  19  23
ENDBRANCH   6  17
BRANCH   1  25
HETATM   25  C   UNL     1     -43.199  59.690 -59.518  1.00  0.00     0.155 C 
BRANCH  25  26
HETATM   26  C   UNL     1     -41.902  60.197 -60.180  1.00  0.00     0.254 C 
BRANCH  26  27
HETATM   27  N   UNL     1     -41.654  61.670 -59.876  1.00  0.00    -0.077 N 
HETATM   28  C   UNL     1     -40.746  61.910 -58.703  1.00  0.00     0.269 C 
HETATM   29  H   UNL     1     -41.200  62.072 -60.709  1.00  0.00     0.279 HD
HETATM   30  C   UNL     1     -42.955  62.415 -59.722  1.00  0.00     0.269 C 
ENDBRANCH  26  27
ENDBRANCH  25  26
ENDBRANCH   1  25
TORSDOF 5
ENDMDL
MODEL 6
REMARK VINA RESULT:      -7.0      3.343      6.865
REMARK  5 active torsions:
REMARK  status: ('A' for Active; 'I' for Inactive)
REMARK    1  A    between atoms: N_2  and  C_4 
REMARK    2  A    between atoms: C_4  and  C_5 
REMARK    3  A    between atoms: C_5  and  N_6 
REMARK    4  A    between atoms: C_11  and  C_12 
REMARK    5  A    between atoms: C_14  and  O_15 
ROOT
HETATM    1  N   UNL     1     -41.661  54.380 -54.773  1.00  0.00    -0.332 N 
HETATM    2  C   UNL     1     -42.592  54.913 -55.662  1.00  0.00     0.279 C 
HETATM    3  O   UNL     1     -43.278  54.280 -56.443  1.00  0.00    -0.265 OA
HETATM    4  C   UNL     1     -42.596  56.372 -55.462  1.00  0.00     0.156 A 
HETATM    5  C   UNL     1     -41.790  56.607 -54.428  1.00  0.00     0.060 A 
HETATM    6  C   UNL     1     -41.194  55.395 -53.826  1.00  0.00     0.161 C 
HETATM    7  O   UNL     1     -43.303  57.279 -56.196  1.00  0.00    -0.303 OA
HETATM    8  C   UNL     1     -43.183  58.596 -55.797  1.00  0.00     0.090 A 
HETATM    9  C   UNL     1     -42.346  59.001 -54.742  1.00  0.00     0.051 A 
HETATM   10  C   UNL     1     -41.552  57.984 -54.018  1.00  0.00     0.196 A 
HETATM   11  O   UNL     1     -40.737  58.259 -53.152  1.00  0.00    -0.287 OA
HETATM   12  C   UNL     1     -43.941  59.540 -56.491  1.00  0.00     0.041 A 
HETATM   13  C   UNL     1     -43.862  60.885 -56.127  1.00  0.00     0.045 A 
HETATM   14  C   UNL     1     -43.028  61.274 -55.079  1.00  0.00     0.117 A 
HETATM   15  F   UNL     1     -42.964  62.567 -54.739  1.00  0.00    -0.206 F 
HETATM   16  C   UNL     1     -42.265  60.346 -54.381  1.00  0.00     0.060 A 
ENDROOT
BRANCH   6  17
HETATM   17  C   UNL     1     -41.645  55.120 -52.403  1.00  0.00    -0.028 A 
HETATM   18  C   UNL     1     -42.997  55.296 -52.062  1.00  0.00     0.046 A 
HETATM   19  C   UNL     1     -43.416  55.093 -50.750  1.00  0.00     0.066 A 
HETATM   20  C   UNL     1     -42.518  54.712 -49.763  1.00  0.00     0.036 A 
HETATM   21  C   UNL     1     -41.181  54.506 -50.091  1.00  0.00     0.003 A 
HETATM   22  C   UNL     1     -40.746  54.706 -51.402  1.00  0.00     0.010 A 
BRANCH  19  23
HETATM   23  O   UNL     1     -44.718  55.269 -50.389  1.00  0.00    -0.361 OA
HETATM   24  H   UNL     1     -44.895  56.219 -50.289  1.00  0.00     0.217 HD
ENDBRANCH  19  23
ENDBRANCH   6  17
BRANCH   1  25
HETATM   25  C   UNL     1     -41.574  52.952 -54.500  1.00  0.00     0.155 C 
BRANCH  25  26
HETATM   26  C   UNL     1     -40.136  52.418 -54.357  1.00  0.00     0.254 C 
BRANCH  26  27
HETATM   27  N   UNL     1     -40.085  51.158 -53.502  1.00  0.00    -0.077 N 
HETATM   28  C   UNL     1     -39.366  51.332 -52.194  1.00  0.00     0.269 C 
HETATM   29  H   UNL     1     -41.061  50.904 -53.289  1.00  0.00     0.279 HD
HETATM   30  C   UNL     1     -39.524  49.997 -54.284  1.00  0.00     0.269 C 
ENDBRANCH  26  27
ENDBRANCH  25  26
ENDBRANCH   1  25
TORSDOF 5
ENDMDL
MODEL 7
REMARK VINA RESULT:      -6.9      3.454      6.508
REMARK  5 active torsions:
REMARK  status: ('A' for Active; 'I' for Inactive)
REMARK    1  A    between atoms: N_2  and  C_4 
REMARK    2  A    between atoms: C_4  and  C_5 
REMARK    3  A    between atoms: C_5  and  N_6 
REMARK    4  A    between atoms: C_11  and  C_12 
REMARK    5  A    between atoms: C_14  and  O_15 
ROOT
HETATM    1  N   UNL     1     -41.693  55.321 -53.686  1.00  0.00    -0.332 N 
HETATM    2  C   UNL     1     -42.207  54.506 -54.693  1.00  0.00     0.279 C 
HETATM    3  O   UNL     1     -42.401  53.308 -54.612  1.00  0.00    -0.265 OA
HETATM    4  C   UNL     1     -42.482  55.371 -55.852  1.00  0.00     0.156 A 
HETATM    5  C   UNL     1     -42.240  56.618 -55.452  1.00  0.00     0.060 A 
HETATM    6  C   UNL     1     -41.815  56.737 -54.040  1.00  0.00     0.161 C 
HETATM    7  O   UNL     1     -42.910  54.955 -57.079  1.00  0.00    -0.303 OA
HETATM    8  C   UNL     1     -43.143  55.954 -58.003  1.00  0.00     0.090 A 
HETATM    9  C   UNL     1     -42.904  57.314 -57.735  1.00  0.00     0.051 A 
HETATM   10  C   UNL     1     -42.379  57.707 -56.408  1.00  0.00     0.196 A 
HETATM   11  O   UNL     1     -42.061  58.851 -56.123  1.00  0.00    -0.287 OA
HETATM   12  C   UNL     1     -43.639  55.564 -59.248  1.00  0.00     0.041 A 
HETATM   13  C   UNL     1     -43.896  56.533 -60.218  1.00  0.00     0.045 A 
HETATM   14  C   UNL     1     -43.655  57.878 -59.940  1.00  0.00     0.117 A 
HETATM   15  F   UNL     1     -43.908  58.797 -60.879  1.00  0.00    -0.206 F 
HETATM   16  C   UNL     1     -43.158  58.282 -58.707  1.00  0.00     0.060 A 
ENDROOT
BRANCH   6  17
HETATM   17  C   UNL     1     -42.797  57.480 -53.154  1.00  0.00    -0.028 A 
HETATM   18  C   UNL     1     -42.311  58.369 -52.179  1.00  0.00     0.046 A 
HETATM   19  C   UNL     1     -43.198  59.021 -51.327  1.00  0.00     0.066 A 
HETATM   20  C   UNL     1     -44.567  58.814 -51.424  1.00  0.00     0.036 A 
HETATM   21  C   UNL     1     -45.066  57.959 -52.403  1.00  0.00     0.003 A 
HETATM   22  C   UNL     1     -44.189  57.298 -53.264  1.00  0.00     0.010 A 
BRANCH  19  23
HETATM   23  O   UNL     1     -42.753  59.878 -50.366  1.00  0.00    -0.361 OA
HETATM   24  H   UNL     1     -43.233  59.706 -49.539  1.00  0.00     0.217 HD
ENDBRANCH  19  23
ENDBRANCH   6  17
BRANCH   1  25
HETATM   25  C   UNL     1     -41.553  54.864 -52.311  1.00  0.00     0.155 C 
BRANCH  25  26
HETATM   26  C   UNL     1     -40.260  54.071 -52.033  1.00  0.00     0.254 C 
BRANCH  26  27
HETATM   27  N   UNL     1     -40.530  52.575 -51.926  1.00  0.00    -0.077 N 
HETATM   28  C   UNL     1     -40.301  52.007 -50.554  1.00  0.00     0.269 C 
HETATM   29  H   UNL     1     -41.523  52.435 -52.159  1.00  0.00     0.279 HD
HETATM   30  C   UNL     1     -39.755  51.812 -52.970  1.00  0.00     0.269 C 
ENDBRANCH  26  27
ENDBRANCH  25  26
ENDBRANCH   1  25
TORSDOF 5
ENDMDL
MODEL 8
REMARK VINA RESULT:      -6.9      3.501      6.493
REMARK  5 active torsions:
REMARK  status: ('A' for Active; 'I' for Inactive)
REMARK    1  A    between atoms: N_2  and  C_4 
REMARK    2  A    between atoms: C_4  and  C_5 
REMARK    3  A    between atoms: C_5  and  N_6 
REMARK    4  A    between atoms: C_11  and  C_12 
REMARK    5  A    between atoms: C_14  and  O_15 
ROOT
HETATM    1  N   UNL     1     -43.360  57.271 -55.387  1.00  0.00    -0.332 N 
HETATM    2  C   UNL     1     -44.586  57.907 -55.198  1.00  0.00     0.279 C 
HETATM    3  O   UNL     1     -45.559  57.812 -55.921  1.00  0.00    -0.265 OA
HETATM    4  C   UNL     1     -44.480  58.691 -53.956  1.00  0.00     0.156 A 
HETATM    5  C   UNL     1     -43.290  58.399 -53.432  1.00  0.00     0.060 A 
HETATM    6  C   UNL     1     -42.502  57.418 -54.209  1.00  0.00     0.161 C 
HETATM    7  O   UNL     1     -45.430  59.533 -53.456  1.00  0.00    -0.303 OA
HETATM    8  C   UNL     1     -45.125  60.131 -52.249  1.00  0.00     0.090 A 
HETATM    9  C   UNL     1     -43.896  59.944 -51.592  1.00  0.00     0.051 A 
HETATM   10  C   UNL     1     -42.874  59.069 -52.208  1.00  0.00     0.196 A 
HETATM   11  O   UNL     1     -41.751  58.922 -51.751  1.00  0.00    -0.287 OA
HETATM   12  C   UNL     1     -46.102  60.951 -51.684  1.00  0.00     0.041 A 
HETATM   13  C   UNL     1     -45.849  61.578 -50.463  1.00  0.00     0.045 A 
HETATM   14  C   UNL     1     -44.627  61.384 -49.821  1.00  0.00     0.117 A 
HETATM   15  F   UNL     1     -44.398  61.989 -48.649  1.00  0.00    -0.206 F 
HETATM   16  C   UNL     1     -43.642  60.573 -50.373  1.00  0.00     0.060 A 
ENDROOT
BRANCH   6  17
HETATM   17  C   UNL     1     -42.263  56.103 -53.491  1.00  0.00    -0.028 A 
HETATM   18  C   UNL     1     -43.319  55.501 -52.784  1.00  0.00     0.046 A 
HETATM   19  C   UNL     1     -43.103  54.319 -52.081  1.00  0.00     0.066 A 
HETATM   20  C   UNL     1     -41.855  53.712 -52.069  1.00  0.00     0.036 A 
HETATM   21  C   UNL     1     -40.806  54.280 -52.787  1.00  0.00     0.003 A 
HETATM   22  C   UNL     1     -41.008  55.465 -53.496  1.00  0.00     0.010 A 
BRANCH  19  23
HETATM   23  O   UNL     1     -44.105  53.722 -51.377  1.00  0.00    -0.361 OA
HETATM   24  H   UNL     1     -44.951  54.140 -51.611  1.00  0.00     0.217 HD
ENDBRANCH  19  23
ENDBRANCH   6  17
BRANCH   1  25
HETATM   25  C   UNL     1     -43.178  56.207 -56.364  1.00  0.00     0.155 C 
BRANCH  25  26
HETATM   26  C   UNL     1     -43.131  56.689 -57.828  1.00  0.00     0.254 C 
BRANCH  26  27
HETATM   27  N   UNL     1     -44.379  56.275 -58.597  1.00  0.00    -0.077 N 
HETATM   28  C   UNL     1     -44.180  55.090 -59.499  1.00  0.00     0.269 C 
HETATM   29  H   UNL     1     -45.089  56.017 -57.896  1.00  0.00     0.279 HD
HETATM   30  C   UNL     1     -44.960  57.444 -59.352  1.00  0.00     0.269 C 
ENDBRANCH  26  27
ENDBRANCH  25  26
ENDBRANCH   1  25
TORSDOF 5
ENDMDL
MODEL 9
REMARK VINA RESULT:      -6.8      3.491      6.273
REMARK  5 active torsions:
REMARK  status: ('A' for Active; 'I' for Inactive)
REMARK    1  A    between atoms: N_2  and  C_4 
REMARK    2  A    between atoms: C_4  and  C_5 
REMARK    3  A    between atoms: C_5  and  N_6 
REMARK    4  A    between atoms: C_11  and  C_12 
REMARK    5  A    between atoms: C_14  and  O_15 
ROOT
HETATM    1  N   UNL     1     -42.159  56.167 -52.035  1.00  0.00    -0.332 N 
HETATM    2  C   UNL     1     -42.594  55.242 -52.981  1.00  0.00     0.279 C 
HETATM    3  O   UNL     1     -42.957  54.103 -52.753  1.00  0.00    -0.265 OA
HETATM    4  C   UNL     1     -42.548  55.910 -54.293  1.00  0.00     0.156 A 
HETATM    5  C   UNL     1     -42.215  57.177 -54.053  1.00  0.00     0.060 A 
HETATM    6  C   UNL     1     -42.029  57.502 -52.622  1.00  0.00     0.161 C 
HETATM    7  O   UNL     1     -42.809  55.328 -55.499  1.00  0.00    -0.303 OA
HETATM    8  C   UNL     1     -42.744  56.164 -56.595  1.00  0.00     0.090 A 
HETATM    9  C   UNL     1     -42.376  57.518 -56.502  1.00  0.00     0.051 A 
HETATM   10  C   UNL     1     -42.041  58.086 -55.177  1.00  0.00     0.196 A 
HETATM   11  O   UNL     1     -41.628  59.225 -55.019  1.00  0.00    -0.287 OA
HETATM   12  C   UNL     1     -43.063  55.611 -57.835  1.00  0.00     0.041 A 
HETATM   13  C   UNL     1     -43.018  56.412 -58.977  1.00  0.00     0.045 A 
HETATM   14  C   UNL     1     -42.652  57.753 -58.871  1.00  0.00     0.117 A 
HETATM   15  F   UNL     1     -42.615  58.512 -59.974  1.00  0.00    -0.206 F 
HETATM   16  C   UNL     1     -42.327  58.319 -57.644  1.00  0.00     0.060 A 
ENDROOT
BRANCH   6  17
HETATM   17  C   UNL     1     -43.042  58.487 -52.070  1.00  0.00    -0.028 A 
HETATM   18  C   UNL     1     -42.595  59.592 -51.325  1.00  0.00     0.046 A 
HETATM   19  C   UNL     1     -43.515  60.478 -50.771  1.00  0.00     0.066 A 
HETATM   20  C   UNL     1     -44.880  60.293 -50.946  1.00  0.00     0.036 A 
HETATM   21  C   UNL     1     -45.338  59.220 -51.704  1.00  0.00     0.003 A 
HETATM   22  C   UNL     1     -44.427  58.324 -52.266  1.00  0.00     0.010 A 
BRANCH  19  23
HETATM   23  O   UNL     1     -43.110  61.549 -50.034  1.00  0.00    -0.361 OA
HETATM   24  H   UNL     1     -42.239  61.359 -49.647  1.00  0.00     0.217 HD
ENDBRANCH  19  23
ENDBRANCH   6  17
BRANCH   1  25
HETATM   25  C   UNL     1     -42.321  55.951 -50.604  1.00  0.00     0.155 C 
BRANCH  25  26
HETATM   26  C   UNL     1     -41.013  55.615 -49.860  1.00  0.00     0.254 C 
BRANCH  26  27
HETATM   27  N   UNL     1     -40.927  54.133 -49.514  1.00  0.00    -0.077 N 
HETATM   28  C   UNL     1     -40.404  53.855 -48.132  1.00  0.00     0.269 C 
HETATM   29  H   UNL     1     -41.886  53.760 -49.565  1.00  0.00     0.279 HD
HETATM   30  C   UNL     1     -40.141  53.381 -50.557  1.00  0.00     0.269 C 
ENDBRANCH  26  27
ENDBRANCH  25  26
ENDBRANCH   1  25
TORSDOF 5
ENDMDL
MODEL 10
REMARK VINA RESULT:      -6.8     15.742     18.689
REMARK  5 active torsions:
REMARK  status: ('A' for Active; 'I' for Inactive)
REMARK    1  A    between atoms: N_2  and  C_4 
REMARK    2  A    between atoms: C_4  and  C_5 
REMARK    3  A    between atoms: C_5  and  N_6 
REMARK    4  A    between atoms: C_11  and  C_12 
REMARK    5  A    between atoms: C_14  and  O_15 
ROOT
HETATM    1  N   UNL     1     -33.525  39.985 -50.704  1.00  0.00    -0.332 N 
HETATM    2  C   UNL     1     -32.876  39.793 -51.922  1.00  0.00     0.279 C 
HETATM    3  O   UNL     1     -31.808  39.234 -52.082  1.00  0.00    -0.265 OA
HETATM    4  C   UNL     1     -33.735  40.376 -52.967  1.00  0.00     0.156 A 
HETATM    5  C   UNL     1     -34.854  40.760 -52.357  1.00  0.00     0.060 A 
HETATM    6  C   UNL     1     -34.890  40.478 -50.905  1.00  0.00     0.161 C 
HETATM    7  O   UNL     1     -33.427  40.479 -54.292  1.00  0.00    -0.303 OA
HETATM    8  C   UNL     1     -34.408  41.025 -55.095  1.00  0.00     0.090 A 
HETATM    9  C   UNL     1     -35.630  41.505 -54.589  1.00  0.00     0.051 A 
HETATM   10  C   UNL     1     -35.889  41.427 -53.134  1.00  0.00     0.196 A 
HETATM   11  O   UNL     1     -36.882  41.898 -52.602  1.00  0.00    -0.287 OA
HETATM   12  C   UNL     1     -34.145  41.090 -56.464  1.00  0.00     0.041 A 
HETATM   13  C   UNL     1     -35.105  41.629 -57.322  1.00  0.00     0.045 A 
HETATM   14  C   UNL     1     -36.311  42.101 -56.808  1.00  0.00     0.117 A 
HETATM   15  F   UNL     1     -37.224  42.613 -57.643  1.00  0.00    -0.206 F 
HETATM   16  C   UNL     1     -36.587  42.047 -55.447  1.00  0.00     0.060 A 
ENDROOT
BRANCH   6  17
HETATM   17  C   UNL     1     -35.944  39.467 -50.493  1.00  0.00    -0.028 A 
HETATM   18  C   UNL     1     -36.780  39.751 -49.399  1.00  0.00     0.046 A 
HETATM   19  C   UNL     1     -37.720  38.813 -48.979  1.00  0.00     0.066 A 
HETATM   20  C   UNL     1     -37.854  37.594 -49.629  1.00  0.00     0.036 A 
HETATM   21  C   UNL     1     -37.053  37.310 -50.731  1.00  0.00     0.003 A 
HETATM   22  C   UNL     1     -36.106  38.240 -51.164  1.00  0.00     0.010 A 
BRANCH  19  23
HETATM   23  O   UNL     1     -38.534  39.057 -47.914  1.00  0.00    -0.361 OA
HETATM   24  H   UNL     1     -38.668  38.231 -47.420  1.00  0.00     0.217 HD
ENDBRANCH  19  23
ENDBRANCH   6  17
BRANCH   1  25
HETATM   25  C   UNL     1     -33.105  39.310 -49.484  1.00  0.00     0.155 C 
BRANCH  25  26
HETATM   26  C   UNL     1     -31.948  40.005 -48.740  1.00  0.00     0.254 C 
BRANCH  26  27
HETATM   27  N   UNL     1     -31.322  39.091 -47.693  1.00  0.00    -0.077 N 
HETATM   28  C   UNL     1     -32.308  38.205 -46.984  1.00  0.00     0.269 C 
HETATM   29  H   UNL     1     -30.657  38.481 -48.191  1.00  0.00     0.279 HD
HETATM   30  C   UNL     1     -30.494  39.881 -46.712  1.00  0.00     0.269 C 
ENDBRANCH  26  27
ENDBRANCH  25  26
ENDBRANCH   1  25
TORSDOF 5
ENDMDL
