MODEL 1
REMARK VINA RESULT:      -8.1      0.000      0.000
REMARK  5 active torsions:
REMARK  status: ('A' for Active; 'I' for Inactive)
REMARK    1  A    between atoms: C_2  and  O_3 
REMARK    2  A    between atoms: O_3  and  C_4 
REMARK    3  A    between atoms: C_7  and  C_8 
REMARK    4  A    between atoms: C_12  and  C_13 
REMARK       I    between atoms: C_13  and  N_14 
REMARK    5  A    between atoms: N_14  and  C_15 
ROOT
HETATM    1  C   UNL     1     -42.705  55.168 -54.769  1.00  0.00     0.068 A 
HETATM    2  N   UNL     1     -41.739  54.222 -54.888  1.00  0.00    -0.248 NA
HETATM    3  C   UNL     1     -41.241  53.623 -53.792  1.00  0.00     0.068 A 
HETATM    4  C   UNL     1     -41.678  53.919 -52.490  1.00  0.00     0.008 A 
HETATM    5  C   UNL     1     -42.722  54.863 -52.396  1.00  0.00     0.047 A 
HETATM    6  C   UNL     1     -43.227  55.501 -53.531  1.00  0.00     0.050 A 
HETATM    7  C   UNL     1     -40.235  52.681 -53.960  1.00  0.00     0.032 A 
HETATM    8  C   UNL     1     -39.638  52.032 -52.876  1.00  0.00     0.002 A 
HETATM    9  C   UNL     1     -40.045  52.334 -51.587  1.00  0.00     0.001 A 
HETATM   10  C   UNL     1     -41.055  53.275 -51.391  1.00  0.00     0.015 A 
ENDROOT
BRANCH   5  11
HETATM   11  C   UNL     1     -43.266  55.313 -51.101  1.00  0.00     0.271 C 
HETATM   12  N   UNL     1     -42.949  56.530 -50.566  1.00  0.00    -0.150 N 
HETATM   13  H   UNL     1     -43.422  56.779 -49.711  1.00  0.00     0.188 HD
HETATM   14  O   UNL     1     -44.027  54.549 -50.503  1.00  0.00    -0.267 OA
BRANCH  12  15
HETATM   15  C   UNL     1     -42.025  57.441 -50.980  1.00  0.00     0.747 A 
HETATM   16  N   UNL     1     -40.752  57.358 -50.588  1.00  0.00     0.020 NA
HETATM   17  N   UNL     1     -40.207  58.425 -51.193  1.00  0.00    -0.255 N 
HETATM   18  H   UNL     1     -39.222  58.628 -51.061  1.00  0.00     0.190 HD
HETATM   19  C   UNL     1     -41.134  59.093 -51.925  1.00  0.00     0.246 A 
HETATM   20  N   UNL     1     -42.291  58.486 -51.815  1.00  0.00    -0.055 NA
ENDBRANCH  12  15
ENDBRANCH   5  11
BRANCH   1  21
HETATM   21  C   UNL     1     -43.135  55.805 -56.038  1.00  0.00    -0.007 A 
HETATM   22  C   UNL     1     -42.860  55.198 -57.277  1.00  0.00     0.016 A 
HETATM   23  C   UNL     1     -43.254  55.784 -58.486  1.00  0.00     0.037 A 
HETATM   24  C   UNL     1     -43.941  56.995 -58.498  1.00  0.00     0.068 A 
HETATM   25  C   UNL     1     -44.208  57.629 -57.288  1.00  0.00     0.037 A 
HETATM   26  C   UNL     1     -43.807  57.041 -56.077  1.00  0.00     0.016 A 
BRANCH  24  27
HETATM   27  O   UNL     1     -44.277  57.457 -59.739  1.00  0.00    -0.352 OA
BRANCH  27  28
HETATM   28  C   UNL     1     -45.638  57.832 -59.941  1.00  0.00     0.171 C 
HETATM   29  C   UNL     1     -46.461  56.561 -60.056  1.00  0.00     0.034 C 
ENDBRANCH  27  28
ENDBRANCH  24  27
ENDBRANCH   1  21
TORSDOF 5
ENDMDL
MODEL 2
REMARK VINA RESULT:      -7.9      3.131      7.069
REMARK  5 active torsions:
REMARK  status: ('A' for Active; 'I' for Inactive)
REMARK    1  A    between atoms: C_2  and  O_3 
REMARK    2  A    between atoms: O_3  and  C_4 
REMARK    3  A    between atoms: C_7  and  C_8 
REMARK    4  A    between atoms: C_12  and  C_13 
REMARK       I    between atoms: C_13  and  N_14 
REMARK    5  A    between atoms: N_14  and  C_15 
ROOT
HETATM    1  C   UNL     1     -41.911  55.818 -52.699  1.00  0.00     0.068 A 
HETATM    2  N   UNL     1     -42.989  55.989 -51.892  1.00  0.00    -0.248 NA
HETATM    3  C   UNL     1     -43.675  57.146 -51.917  1.00  0.00     0.068 A 
HETATM    4  C   UNL     1     -43.338  58.219 -52.760  1.00  0.00     0.008 A 
HETATM    5  C   UNL     1     -42.251  57.995 -53.630  1.00  0.00     0.047 A 
HETATM    6  C   UNL     1     -41.525  56.803 -53.591  1.00  0.00     0.050 A 
HETATM    7  C   UNL     1     -44.754  57.287 -51.055  1.00  0.00     0.032 A 
HETATM    8  C   UNL     1     -45.503  58.465 -50.991  1.00  0.00     0.002 A 
HETATM    9  C   UNL     1     -45.165  59.537 -51.801  1.00  0.00     0.001 A 
HETATM   10  C   UNL     1     -44.088  59.420 -52.678  1.00  0.00     0.015 A 
ENDROOT
BRANCH   5  11
HETATM   11  C   UNL     1     -41.747  59.034 -54.548  1.00  0.00     0.271 C 
HETATM   12  N   UNL     1     -42.177  59.125 -55.843  1.00  0.00    -0.150 N 
HETATM   13  H   UNL     1     -41.828  59.908 -56.375  1.00  0.00     0.188 HD
HETATM   14  O   UNL     1     -40.915  59.830 -54.111  1.00  0.00    -0.267 OA
BRANCH  12  15
HETATM   15  C   UNL     1     -42.958  58.269 -56.557  1.00  0.00     0.747 A 
HETATM   16  N   UNL     1     -44.290  58.374 -56.539  1.00  0.00     0.020 NA
HETATM   17  N   UNL     1     -44.656  57.359 -57.337  1.00  0.00    -0.255 N 
HETATM   18  H   UNL     1     -45.641  57.183 -57.504  1.00  0.00     0.190 HD
HETATM   19  C   UNL     1     -43.570  56.700 -57.814  1.00  0.00     0.246 A 
HETATM   20  N   UNL     1     -42.483  57.262 -57.343  1.00  0.00    -0.055 NA
ENDBRANCH  12  15
ENDBRANCH   5  11
BRANCH   1  21
HETATM   21  C   UNL     1     -41.196  54.528 -52.542  1.00  0.00    -0.007 A 
HETATM   22  C   UNL     1     -41.063  53.642 -53.627  1.00  0.00     0.016 A 
HETATM   23  C   UNL     1     -40.395  52.418 -53.500  1.00  0.00     0.037 A 
HETATM   24  C   UNL     1     -39.832  52.040 -52.283  1.00  0.00     0.068 A 
HETATM   25  C   UNL     1     -39.966  52.887 -51.187  1.00  0.00     0.037 A 
HETATM   26  C   UNL     1     -40.641  54.112 -51.317  1.00  0.00     0.016 A 
BRANCH  24  27
HETATM   27  O   UNL     1     -39.200  50.828 -52.291  1.00  0.00    -0.352 OA
BRANCH  27  28
HETATM   28  C   UNL     1     -39.852  49.766 -52.985  1.00  0.00     0.171 C 
HETATM   29  C   UNL     1     -39.299  49.722 -54.398  1.00  0.00     0.034 C 
ENDBRANCH  27  28
ENDBRANCH  24  27
ENDBRANCH   1  21
TORSDOF 5
ENDMDL
MODEL 3
REMARK VINA RESULT:      -7.7      3.113      8.060
REMARK  5 active torsions:
REMARK  status: ('A' for Active; 'I' for Inactive)
REMARK    1  A    between atoms: C_2  and  O_3 
REMARK    2  A    between atoms: O_3  and  C_4 
REMARK    3  A    between atoms: C_7  and  C_8 
REMARK    4  A    between atoms: C_12  and  C_13 
REMARK       I    between atoms: C_13  and  N_14 
REMARK    5  A    between atoms: N_14  and  C_15 
ROOT
HETATM    1  C   UNL     1     -42.441  56.058 -55.344  1.00  0.00     0.068 A 
HETATM    2  N   UNL     1     -43.351  56.744 -54.606  1.00  0.00    -0.248 NA
HETATM    3  C   UNL     1     -43.967  57.821 -55.125  1.00  0.00     0.068 A 
HETATM    4  C   UNL     1     -43.724  58.291 -56.426  1.00  0.00     0.008 A 
HETATM    5  C   UNL     1     -42.819  57.529 -57.193  1.00  0.00     0.047 A 
HETATM    6  C   UNL     1     -42.163  56.422 -56.650  1.00  0.00     0.050 A 
HETATM    7  C   UNL     1     -44.870  58.508 -54.324  1.00  0.00     0.032 A 
HETATM    8  C   UNL     1     -45.532  59.656 -54.769  1.00  0.00     0.002 A 
HETATM    9  C   UNL     1     -45.282  60.141 -56.042  1.00  0.00     0.001 A 
HETATM   10  C   UNL     1     -44.382  59.468 -56.867  1.00  0.00     0.015 A 
ENDROOT
BRANCH   5  11
HETATM   11  C   UNL     1     -42.427  57.910 -58.563  1.00  0.00     0.271 C 
HETATM   12  N   UNL     1     -43.070  57.416 -59.664  1.00  0.00    -0.150 N 
HETATM   13  H   UNL     1     -42.776  57.785 -60.555  1.00  0.00     0.188 HD
HETATM   14  O   UNL     1     -41.489  58.699 -58.691  1.00  0.00    -0.267 OA
BRANCH  12  15
HETATM   15  C   UNL     1     -44.009  56.434 -59.747  1.00  0.00     0.747 A 
HETATM   16  N   UNL     1     -45.302  56.697 -59.539  1.00  0.00     0.020 NA
HETATM   17  N   UNL     1     -45.858  55.486 -59.698  1.00  0.00    -0.255 N 
HETATM   18  H   UNL     1     -46.860  55.376 -59.584  1.00  0.00     0.190 HD
HETATM   19  C   UNL     1     -44.919  54.557 -60.005  1.00  0.00     0.246 A 
HETATM   20  N   UNL     1     -43.741  55.132 -60.052  1.00  0.00    -0.055 NA
ENDBRANCH  12  15
ENDBRANCH   5  11
BRANCH   1  21
HETATM   21  C   UNL     1     -41.780  54.926 -54.650  1.00  0.00    -0.007 A 
HETATM   22  C   UNL     1     -40.765  54.187 -55.284  1.00  0.00     0.016 A 
HETATM   23  C   UNL     1     -40.131  53.112 -54.649  1.00  0.00     0.037 A 
HETATM   24  C   UNL     1     -40.487  52.742 -53.354  1.00  0.00     0.068 A 
HETATM   25  C   UNL     1     -41.503  53.442 -52.710  1.00  0.00     0.037 A 
HETATM   26  C   UNL     1     -42.140  54.517 -53.352  1.00  0.00     0.016 A 
BRANCH  24  27
HETATM   27  O   UNL     1     -39.790  51.685 -52.843  1.00  0.00    -0.352 OA
BRANCH  27  28
HETATM   28  C   UNL     1     -39.758  51.560 -51.422  1.00  0.00     0.171 C 
HETATM   29  C   UNL     1     -39.559  50.094 -51.085  1.00  0.00     0.034 C 
ENDBRANCH  27  28
ENDBRANCH  24  27
ENDBRANCH   1  21
TORSDOF 5
ENDMDL
MODEL 4
REMARK VINA RESULT:      -7.7      2.459      6.712
REMARK  5 active torsions:
REMARK  status: ('A' for Active; 'I' for Inactive)
REMARK    1  A    between atoms: C_2  and  O_3 
REMARK    2  A    between atoms: O_3  and  C_4 
REMARK    3  A    between atoms: C_7  and  C_8 
REMARK    4  A    between atoms: C_12  and  C_13 
REMARK       I    between atoms: C_13  and  N_14 
REMARK    5  A    between atoms: N_14  and  C_15 
ROOT
HETATM    1  C   UNL     1     -41.178  55.212 -54.316  1.00  0.00     0.068 A 
HETATM    2  N   UNL     1     -41.823  55.022 -55.495  1.00  0.00    -0.248 NA
HETATM    3  C   UNL     1     -42.416  56.058 -56.115  1.00  0.00     0.068 A 
HETATM    4  C   UNL     1     -42.403  57.367 -55.604  1.00  0.00     0.008 A 
HETATM    5  C   UNL     1     -41.679  57.549 -54.408  1.00  0.00     0.047 A 
HETATM    6  C   UNL     1     -41.079  56.472 -53.752  1.00  0.00     0.050 A 
HETATM    7  C   UNL     1     -43.087  55.813 -57.306  1.00  0.00     0.032 A 
HETATM    8  C   UNL     1     -43.758  56.823 -58.000  1.00  0.00     0.002 A 
HETATM    9  C   UNL     1     -43.771  58.112 -57.493  1.00  0.00     0.001 A 
HETATM   10  C   UNL     1     -43.103  58.385 -56.301  1.00  0.00     0.015 A 
ENDROOT
BRANCH   5  11
HETATM   11  C   UNL     1     -41.602  58.853 -53.721  1.00  0.00     0.271 C 
HETATM   12  N   UNL     1     -42.301  59.109 -52.575  1.00  0.00    -0.150 N 
HETATM   13  H   UNL     1     -42.133  60.004 -52.140  1.00  0.00     0.188 HD
HETATM   14  O   UNL     1     -40.879  59.719 -54.217  1.00  0.00    -0.267 OA
BRANCH  12  15
HETATM   15  C   UNL     1     -43.257  58.360 -51.960  1.00  0.00     0.747 A 
HETATM   16  N   UNL     1     -42.933  57.454 -51.033  1.00  0.00     0.020 NA
HETATM   17  N   UNL     1     -44.133  56.949 -50.710  1.00  0.00    -0.255 N 
HETATM   18  H   UNL     1     -44.197  56.211 -50.018  1.00  0.00     0.190 HD
HETATM   19  C   UNL     1     -45.121  57.556 -51.415  1.00  0.00     0.246 A 
HETATM   20  N   UNL     1     -44.594  58.460 -52.206  1.00  0.00    -0.055 NA
ENDBRANCH  12  15
ENDBRANCH   5  11
BRANCH   1  21
HETATM   21  C   UNL     1     -40.615  53.989 -53.693  1.00  0.00    -0.007 A 
HETATM   22  C   UNL     1     -40.391  53.925 -52.306  1.00  0.00     0.016 A 
HETATM   23  C   UNL     1     -39.856  52.782 -51.699  1.00  0.00     0.037 A 
HETATM   24  C   UNL     1     -39.531  51.661 -52.458  1.00  0.00     0.068 A 
HETATM   25  C   UNL     1     -39.722  51.703 -53.837  1.00  0.00     0.037 A 
HETATM   26  C   UNL     1     -40.254  52.853 -54.443  1.00  0.00     0.016 A 
BRANCH  24  27
HETATM   27  O   UNL     1     -39.027  50.608 -51.748  1.00  0.00    -0.352 OA
BRANCH  27  28
HETATM   28  C   UNL     1     -39.971  49.696 -51.191  1.00  0.00     0.171 C 
HETATM   29  C   UNL     1     -40.350  50.199 -49.810  1.00  0.00     0.034 C 
ENDBRANCH  27  28
ENDBRANCH  24  27
ENDBRANCH   1  21
TORSDOF 5
ENDMDL
MODEL 5
REMARK VINA RESULT:      -7.5      2.823      6.681
REMARK  5 active torsions:
REMARK  status: ('A' for Active; 'I' for Inactive)
REMARK    1  A    between atoms: C_2  and  O_3 
REMARK    2  A    between atoms: O_3  and  C_4 
REMARK    3  A    between atoms: C_7  and  C_8 
REMARK    4  A    between atoms: C_12  and  C_13 
REMARK       I    between atoms: C_13  and  N_14 
REMARK    5  A    between atoms: N_14  and  C_15 
ROOT
HETATM    1  C   UNL     1     -41.587  55.728 -51.484  1.00  0.00     0.068 A 
HETATM    2  N   UNL     1     -40.751  56.706 -51.050  1.00  0.00    -0.248 NA
HETATM    3  C   UNL     1     -41.209  57.959 -50.880  1.00  0.00     0.068 A 
HETATM    4  C   UNL     1     -42.542  58.328 -51.124  1.00  0.00     0.008 A 
HETATM    5  C   UNL     1     -43.404  57.283 -51.517  1.00  0.00     0.047 A 
HETATM    6  C   UNL     1     -42.927  55.986 -51.714  1.00  0.00     0.050 A 
HETATM    7  C   UNL     1     -40.311  58.933 -50.462  1.00  0.00     0.032 A 
HETATM    8  C   UNL     1     -40.692  60.266 -50.290  1.00  0.00     0.002 A 
HETATM    9  C   UNL     1     -41.999  60.646 -50.550  1.00  0.00     0.001 A 
HETATM   10  C   UNL     1     -42.919  59.687 -50.969  1.00  0.00     0.015 A 
ENDROOT
BRANCH   5  11
HETATM   11  C   UNL     1     -44.823  57.512 -51.850  1.00  0.00     0.271 C 
HETATM   12  N   UNL     1     -45.242  57.708 -53.136  1.00  0.00    -0.150 N 
HETATM   13  H   UNL     1     -46.238  57.789 -53.273  1.00  0.00     0.188 HD
HETATM   14  O   UNL     1     -45.634  57.523 -50.922  1.00  0.00    -0.267 OA
BRANCH  12  15
HETATM   15  C   UNL     1     -44.506  57.885 -54.267  1.00  0.00     0.747 A 
HETATM   16  N   UNL     1     -44.098  59.101 -54.641  1.00  0.00     0.020 NA
HETATM   17  N   UNL     1     -43.440  58.832 -55.779  1.00  0.00    -0.255 N 
HETATM   18  H   UNL     1     -43.019  59.590 -56.306  1.00  0.00     0.190 HD
HETATM   19  C   UNL     1     -43.453  57.502 -56.045  1.00  0.00     0.246 A 
HETATM   20  N   UNL     1     -44.113  56.879 -55.099  1.00  0.00    -0.055 NA
ENDBRANCH  12  15
ENDBRANCH   5  11
BRANCH   1  21
HETATM   21  C   UNL     1     -40.960  54.399 -51.694  1.00  0.00    -0.007 A 
HETATM   22  C   UNL     1     -40.840  53.856 -52.986  1.00  0.00     0.016 A 
HETATM   23  C   UNL     1     -40.256  52.603 -53.206  1.00  0.00     0.037 A 
HETATM   24  C   UNL     1     -39.766  51.852 -52.141  1.00  0.00     0.068 A 
HETATM   25  C   UNL     1     -39.890  52.354 -50.849  1.00  0.00     0.037 A 
HETATM   26  C   UNL     1     -40.481  53.610 -50.631  1.00  0.00     0.016 A 
BRANCH  24  27
HETATM   27  O   UNL     1     -39.212  50.652 -52.487  1.00  0.00    -0.352 OA
BRANCH  27  28
HETATM   28  C   UNL     1     -40.029  49.758 -53.239  1.00  0.00     0.171 C 
HETATM   29  C   UNL     1     -39.512  49.738 -54.666  1.00  0.00     0.034 C 
ENDBRANCH  27  28
ENDBRANCH  24  27
ENDBRANCH   1  21
TORSDOF 5
ENDMDL
MODEL 6
REMARK VINA RESULT:      -7.3      2.617      7.207
REMARK  5 active torsions:
REMARK  status: ('A' for Active; 'I' for Inactive)
REMARK    1  A    between atoms: C_2  and  O_3 
REMARK    2  A    between atoms: O_3  and  C_4 
REMARK    3  A    between atoms: C_7  and  C_8 
REMARK    4  A    between atoms: C_12  and  C_13 
REMARK       I    between atoms: C_13  and  N_14 
REMARK    5  A    between atoms: N_14  and  C_15 
ROOT
HETATM    1  C   UNL     1     -42.073  55.830 -56.011  1.00  0.00     0.068 A 
HETATM    2  N   UNL     1     -42.756  55.255 -57.034  1.00  0.00    -0.248 NA
HETATM    3  C   UNL     1     -43.256  56.015 -58.024  1.00  0.00     0.068 A 
HETATM    4  C   UNL     1     -43.105  57.411 -58.071  1.00  0.00     0.008 A 
HETATM    5  C   UNL     1     -42.343  57.979 -57.028  1.00  0.00     0.047 A 
HETATM    6  C   UNL     1     -41.840  57.195 -55.989  1.00  0.00     0.050 A 
HETATM    7  C   UNL     1     -43.971  55.387 -59.035  1.00  0.00     0.032 A 
HETATM    8  C   UNL     1     -44.553  56.101 -60.086  1.00  0.00     0.002 A 
HETATM    9  C   UNL     1     -44.430  57.480 -60.129  1.00  0.00     0.001 A 
HETATM   10  C   UNL     1     -43.715  58.135 -59.127  1.00  0.00     0.015 A 
ENDROOT
BRANCH   5  11
HETATM   11  C   UNL     1     -42.125  59.433 -56.910  1.00  0.00     0.271 C 
HETATM   12  N   UNL     1     -42.829  60.201 -56.024  1.00  0.00    -0.150 N 
HETATM   13  H   UNL     1     -42.564  61.172 -55.966  1.00  0.00     0.188 HD
HETATM   14  O   UNL     1     -41.279  59.947 -57.644  1.00  0.00    -0.267 OA
BRANCH  12  15
HETATM   15  C   UNL     1     -43.896  59.866 -55.248  1.00  0.00     0.747 A 
HETATM   16  N   UNL     1     -45.136  59.867 -55.743  1.00  0.00     0.020 NA
HETATM   17  N   UNL     1     -45.860  59.504 -54.673  1.00  0.00    -0.255 N 
HETATM   18  H   UNL     1     -46.868  59.431 -54.751  1.00  0.00     0.190 HD
HETATM   19  C   UNL     1     -45.061  59.284 -53.599  1.00  0.00     0.246 A 
HETATM   20  N   UNL     1     -43.812  59.496 -53.938  1.00  0.00    -0.055 NA
ENDBRANCH  12  15
ENDBRANCH   5  11
BRANCH   1  21
HETATM   21  C   UNL     1     -41.620  54.904 -54.945  1.00  0.00    -0.007 A 
HETATM   22  C   UNL     1     -42.237  54.904 -53.681  1.00  0.00     0.016 A 
HETATM   23  C   UNL     1     -41.823  54.041 -52.659  1.00  0.00     0.037 A 
HETATM   24  C   UNL     1     -40.780  53.142 -52.869  1.00  0.00     0.068 A 
HETATM   25  C   UNL     1     -40.137  53.133 -54.104  1.00  0.00     0.037 A 
HETATM   26  C   UNL     1     -40.552  54.005 -55.124  1.00  0.00     0.016 A 
BRANCH  24  27
HETATM   27  O   UNL     1     -40.477  52.349 -51.799  1.00  0.00    -0.352 OA
BRANCH  27  28
HETATM   28  C   UNL     1     -39.354  51.481 -51.938  1.00  0.00     0.171 C 
HETATM   29  C   UNL     1     -39.622  50.232 -51.117  1.00  0.00     0.034 C 
ENDBRANCH  27  28
ENDBRANCH  24  27
ENDBRANCH   1  21
TORSDOF 5
ENDMDL
MODEL 7
REMARK VINA RESULT:      -7.3      3.207      7.302
REMARK  5 active torsions:
REMARK  status: ('A' for Active; 'I' for Inactive)
REMARK    1  A    between atoms: C_2  and  O_3 
REMARK    2  A    between atoms: O_3  and  C_4 
REMARK    3  A    between atoms: C_7  and  C_8 
REMARK    4  A    between atoms: C_12  and  C_13 
REMARK       I    between atoms: C_13  and  N_14 
REMARK    5  A    between atoms: N_14  and  C_15 
ROOT
HETATM    1  C   UNL     1     -42.692  55.774 -55.948  1.00  0.00     0.068 A 
HETATM    2  N   UNL     1     -42.802  55.289 -57.211  1.00  0.00    -0.248 NA
HETATM    3  C   UNL     1     -43.478  55.981 -58.145  1.00  0.00     0.068 A 
HETATM    4  C   UNL     1     -44.091  57.218 -57.888  1.00  0.00     0.008 A 
HETATM    5  C   UNL     1     -43.915  57.729 -56.585  1.00  0.00     0.047 A 
HETATM    6  C   UNL     1     -43.231  57.003 -55.608  1.00  0.00     0.050 A 
HETATM    7  C   UNL     1     -43.587  55.433 -59.416  1.00  0.00     0.032 A 
HETATM    8  C   UNL     1     -44.298  56.067 -60.438  1.00  0.00     0.002 A 
HETATM    9  C   UNL     1     -44.926  57.276 -60.189  1.00  0.00     0.001 A 
HETATM   10  C   UNL     1     -44.830  57.849 -58.922  1.00  0.00     0.015 A 
ENDROOT
BRANCH   5  11
HETATM   11  C   UNL     1     -44.528  58.996 -56.143  1.00  0.00     0.271 C 
HETATM   12  N   UNL     1     -44.081  60.210 -56.587  1.00  0.00    -0.150 N 
HETATM   13  H   UNL     1     -44.605  61.017 -56.283  1.00  0.00     0.188 HD
HETATM   14  O   UNL     1     -45.469  58.931 -55.351  1.00  0.00    -0.267 OA
BRANCH  12  15
HETATM   15  C   UNL     1     -42.978  60.506 -57.327  1.00  0.00     0.747 A 
HETATM   16  N   UNL     1     -41.757  60.480 -56.787  1.00  0.00     0.020 NA
HETATM   17  N   UNL     1     -40.988  60.839 -57.826  1.00  0.00    -0.255 N 
HETATM   18  H   UNL     1     -39.985  60.918 -57.704  1.00  0.00     0.190 HD
HETATM   19  C   UNL     1     -41.739  61.049 -58.936  1.00  0.00     0.246 A 
HETATM   20  N   UNL     1     -43.001  60.836 -58.650  1.00  0.00    -0.055 NA
ENDBRANCH  12  15
ENDBRANCH   5  11
BRANCH   1  21
HETATM   21  C   UNL     1     -41.978  54.898 -54.987  1.00  0.00    -0.007 A 
HETATM   22  C   UNL     1     -42.461  54.720 -53.679  1.00  0.00     0.016 A 
HETATM   23  C   UNL     1     -41.800  53.902 -52.755  1.00  0.00     0.037 A 
HETATM   24  C   UNL     1     -40.635  53.228 -53.111  1.00  0.00     0.068 A 
HETATM   25  C   UNL     1     -40.121  53.401 -54.393  1.00  0.00     0.037 A 
HETATM   26  C   UNL     1     -40.784  54.227 -55.315  1.00  0.00     0.016 A 
BRANCH  24  27
HETATM   27  O   UNL     1     -40.091  52.454 -52.125  1.00  0.00    -0.352 OA
BRANCH  27  28
HETATM   28  C   UNL     1     -39.519  51.210 -52.523  1.00  0.00     0.171 C 
HETATM   29  C   UNL     1     -39.530  50.283 -51.321  1.00  0.00     0.034 C 
ENDBRANCH  27  28
ENDBRANCH  24  27
ENDBRANCH   1  21
TORSDOF 5
ENDMDL
MODEL 8
REMARK VINA RESULT:      -7.2      2.336      3.306
REMARK  5 active torsions:
REMARK  status: ('A' for Active; 'I' for Inactive)
REMARK    1  A    between atoms: C_2  and  O_3 
REMARK    2  A    between atoms: O_3  and  C_4 
REMARK    3  A    between atoms: C_7  and  C_8 
REMARK    4  A    between atoms: C_12  and  C_13 
REMARK       I    between atoms: C_13  and  N_14 
REMARK    5  A    between atoms: N_14  and  C_15 
ROOT
HETATM    1  C   UNL     1     -42.118  56.653 -54.654  1.00  0.00     0.068 A 
HETATM    2  N   UNL     1     -42.326  55.551 -53.888  1.00  0.00    -0.248 NA
HETATM    3  C   UNL     1     -42.033  55.576 -52.576  1.00  0.00     0.068 A 
HETATM    4  C   UNL     1     -41.515  56.709 -51.926  1.00  0.00     0.008 A 
HETATM    5  C   UNL     1     -41.362  57.857 -52.730  1.00  0.00     0.047 A 
HETATM    6  C   UNL     1     -41.646  57.829 -54.097  1.00  0.00     0.050 A 
HETATM    7  C   UNL     1     -42.237  54.417 -51.837  1.00  0.00     0.032 A 
HETATM    8  C   UNL     1     -41.931  54.342 -50.476  1.00  0.00     0.002 A 
HETATM    9  C   UNL     1     -41.398  55.447 -49.831  1.00  0.00     0.001 A 
HETATM   10  C   UNL     1     -41.186  56.623 -50.550  1.00  0.00     0.015 A 
ENDROOT
BRANCH   5  11
HETATM   11  C   UNL     1     -40.794  59.116 -52.210  1.00  0.00     0.271 C 
HETATM   12  N   UNL     1     -41.580  60.097 -51.672  1.00  0.00    -0.150 N 
HETATM   13  H   UNL     1     -41.097  60.891 -51.281  1.00  0.00     0.188 HD
HETATM   14  O   UNL     1     -39.572  59.262 -52.275  1.00  0.00    -0.267 OA
BRANCH  12  15
HETATM   15  C   UNL     1     -42.937  60.200 -51.647  1.00  0.00     0.747 A 
HETATM   16  N   UNL     1     -43.572  61.117 -52.381  1.00  0.00     0.020 NA
HETATM   17  N   UNL     1     -44.854  60.889 -52.057  1.00  0.00    -0.255 N 
HETATM   18  H   UNL     1     -45.584  61.462 -52.467  1.00  0.00     0.190 HD
HETATM   19  C   UNL     1     -44.957  59.862 -51.178  1.00  0.00     0.246 A 
HETATM   20  N   UNL     1     -43.759  59.401 -50.909  1.00  0.00    -0.055 NA
ENDBRANCH  12  15
ENDBRANCH   5  11
BRANCH   1  21
HETATM   21  C   UNL     1     -42.419  56.492 -56.098  1.00  0.00    -0.007 A 
HETATM   22  C   UNL     1     -42.290  57.576 -56.984  1.00  0.00     0.016 A 
HETATM   23  C   UNL     1     -42.572  57.448 -58.350  1.00  0.00     0.037 A 
HETATM   24  C   UNL     1     -42.989  56.228 -58.876  1.00  0.00     0.068 A 
HETATM   25  C   UNL     1     -43.146  55.142 -58.019  1.00  0.00     0.037 A 
HETATM   26  C   UNL     1     -42.866  55.277 -56.649  1.00  0.00     0.016 A 
BRANCH  24  27
HETATM   27  O   UNL     1     -43.224  56.230 -60.222  1.00  0.00    -0.352 OA
BRANCH  27  28
HETATM   28  C   UNL     1     -44.585  56.324 -60.639  1.00  0.00     0.171 C 
HETATM   29  C   UNL     1     -45.004  54.969 -61.179  1.00  0.00     0.034 C 
ENDBRANCH  27  28
ENDBRANCH  24  27
ENDBRANCH   1  21
TORSDOF 5
ENDMDL
MODEL 9
REMARK VINA RESULT:      -7.2      3.471      8.369
REMARK  5 active torsions:
REMARK  status: ('A' for Active; 'I' for Inactive)
REMARK    1  A    between atoms: C_2  and  O_3 
REMARK    2  A    between atoms: O_3  and  C_4 
REMARK    3  A    between atoms: C_7  and  C_8 
REMARK    4  A    between atoms: C_12  and  C_13 
REMARK       I    between atoms: C_13  and  N_14 
REMARK    5  A    between atoms: N_14  and  C_15 
ROOT
HETATM    1  C   UNL     1     -42.272  56.892 -56.291  1.00  0.00     0.068 A 
HETATM    2  N   UNL     1     -42.235  58.214 -55.984  1.00  0.00    -0.248 NA
HETATM    3  C   UNL     1     -42.332  59.137 -56.957  1.00  0.00     0.068 A 
HETATM    4  C   UNL     1     -42.481  58.808 -58.314  1.00  0.00     0.008 A 
HETATM    5  C   UNL     1     -42.576  57.431 -58.603  1.00  0.00     0.047 A 
HETATM    6  C   UNL     1     -42.455  56.470 -57.597  1.00  0.00     0.050 A 
HETATM    7  C   UNL     1     -42.261  60.477 -56.598  1.00  0.00     0.032 A 
HETATM    8  C   UNL     1     -42.321  61.502 -57.546  1.00  0.00     0.002 A 
HETATM    9  C   UNL     1     -42.445  61.188 -58.889  1.00  0.00     0.001 A 
HETATM   10  C   UNL     1     -42.521  59.851 -59.275  1.00  0.00     0.015 A 
ENDROOT
BRANCH   5  11
HETATM   11  C   UNL     1     -42.695  56.918 -59.981  1.00  0.00     0.271 C 
HETATM   12  N   UNL     1     -43.901  56.834 -60.620  1.00  0.00    -0.150 N 
HETATM   13  H   UNL     1     -43.876  56.536 -61.583  1.00  0.00     0.188 HD
HETATM   14  O   UNL     1     -41.662  56.562 -60.550  1.00  0.00    -0.267 OA
BRANCH  12  15
HETATM   15  C   UNL     1     -45.155  57.025 -60.127  1.00  0.00     0.747 A 
HETATM   16  N   UNL     1     -45.894  55.996 -59.705  1.00  0.00     0.020 NA
HETATM   17  N   UNL     1     -47.027  56.608 -59.327  1.00  0.00    -0.255 N 
HETATM   18  H   UNL     1     -47.798  56.057 -58.965  1.00  0.00     0.190 HD
HETATM   19  C   UNL     1     -46.939  57.949 -59.508  1.00  0.00     0.246 A 
HETATM   20  N   UNL     1     -45.760  58.241 -60.004  1.00  0.00    -0.055 NA
ENDBRANCH  12  15
ENDBRANCH   5  11
BRANCH   1  21
HETATM   21  C   UNL     1     -42.095  55.965 -55.147  1.00  0.00    -0.007 A 
HETATM   22  C   UNL     1     -43.156  55.705 -54.261  1.00  0.00     0.016 A 
HETATM   23  C   UNL     1     -43.010  54.837 -53.173  1.00  0.00     0.037 A 
HETATM   24  C   UNL     1     -41.797  54.194 -52.935  1.00  0.00     0.068 A 
HETATM   25  C   UNL     1     -40.723  54.449 -53.784  1.00  0.00     0.037 A 
HETATM   26  C   UNL     1     -40.873  55.325 -54.871  1.00  0.00     0.016 A 
BRANCH  24  27
HETATM   27  O   UNL     1     -41.784  53.366 -51.849  1.00  0.00    -0.352 OA
BRANCH  27  28
HETATM   28  C   UNL     1     -40.592  53.349 -51.066  1.00  0.00     0.171 C 
HETATM   29  C   UNL     1     -39.946  51.985 -51.226  1.00  0.00     0.034 C 
ENDBRANCH  27  28
ENDBRANCH  24  27
ENDBRANCH   1  21
TORSDOF 5
ENDMDL
MODEL 10
REMARK VINA RESULT:      -7.2      2.950      7.075
REMARK  5 active torsions:
REMARK  status: ('A' for Active; 'I' for Inactive)
REMARK    1  A    between atoms: C_2  and  O_3 
REMARK    2  A    between atoms: O_3  and  C_4 
REMARK    3  A    between atoms: C_7  and  C_8 
REMARK    4  A    between atoms: C_12  and  C_13 
REMARK       I    between atoms: C_13  and  N_14 
REMARK    5  A    between atoms: N_14  and  C_15 
ROOT
HETATM    1  C   UNL     1     -41.939  55.774 -53.589  1.00  0.00     0.068 A 
HETATM    2  N   UNL     1     -41.443  56.803 -52.857  1.00  0.00    -0.248 NA
HETATM    3  C   UNL     1     -42.000  58.024 -52.944  1.00  0.00     0.068 A 
HETATM    4  C   UNL     1     -43.104  58.307 -53.766  1.00  0.00     0.008 A 
HETATM    5  C   UNL     1     -43.638  57.208 -54.472  1.00  0.00     0.047 A 
HETATM    6  C   UNL     1     -43.048  55.945 -54.399  1.00  0.00     0.050 A 
HETATM    7  C   UNL     1     -41.443  59.054 -52.198  1.00  0.00     0.032 A 
HETATM    8  C   UNL     1     -41.937  60.360 -52.251  1.00  0.00     0.002 A 
HETATM    9  C   UNL     1     -43.010  60.654 -53.076  1.00  0.00     0.001 A 
HETATM   10  C   UNL     1     -43.590  59.638 -53.833  1.00  0.00     0.015 A 
ENDROOT
BRANCH   5  11
HETATM   11  C   UNL     1     -44.770  57.345 -55.407  1.00  0.00     0.271 C 
HETATM   12  N   UNL     1     -44.583  57.584 -56.740  1.00  0.00    -0.150 N 
HETATM   13  H   UNL     1     -45.413  57.594 -57.313  1.00  0.00     0.188 HD
HETATM   14  O   UNL     1     -45.908  57.237 -54.948  1.00  0.00    -0.267 OA
BRANCH  12  15
HETATM   15  C   UNL     1     -43.437  57.885 -57.411  1.00  0.00     0.747 A 
HETATM   16  N   UNL     1     -42.770  56.949 -58.091  1.00  0.00     0.020 NA
HETATM   17  N   UNL     1     -41.729  57.647 -58.571  1.00  0.00    -0.255 N 
HETATM   18  H   UNL     1     -41.027  57.178 -59.133  1.00  0.00     0.190 HD
HETATM   19  C   UNL     1     -41.803  58.949 -58.195  1.00  0.00     0.246 A 
HETATM   20  N   UNL     1     -42.880  59.128 -57.469  1.00  0.00    -0.055 NA
ENDBRANCH  12  15
ENDBRANCH   5  11
BRANCH   1  21
HETATM   21  C   UNL     1     -41.208  54.489 -53.460  1.00  0.00    -0.007 A 
HETATM   22  C   UNL     1     -40.784  54.025 -52.202  1.00  0.00     0.016 A 
HETATM   23  C   UNL     1     -40.090  52.818 -52.059  1.00  0.00     0.037 A 
HETATM   24  C   UNL     1     -39.800  52.029 -53.170  1.00  0.00     0.068 A 
HETATM   25  C   UNL     1     -40.189  52.473 -54.431  1.00  0.00     0.037 A 
HETATM   26  C   UNL     1     -40.881  53.688 -54.571  1.00  0.00     0.016 A 
BRANCH  24  27
HETATM   27  O   UNL     1     -39.127  50.872 -52.898  1.00  0.00    -0.352 OA
BRANCH  27  28
HETATM   28  C   UNL     1     -39.891  49.793 -52.362  1.00  0.00     0.171 C 
HETATM   29  C   UNL     1     -39.534  49.651 -50.893  1.00  0.00     0.034 C 
ENDBRANCH  27  28
ENDBRANCH  24  27
ENDBRANCH   1  21
TORSDOF 5
ENDMDL
