MODEL 1
REMARK VINA RESULT:      -8.6      0.000      0.000
REMARK  5 active torsions:
REMARK  status: ('A' for Active; 'I' for Inactive)
REMARK    1  A    between atoms: C_2  and  O_3 
REMARK    2  A    between atoms: O_3  and  C_4 
REMARK    3  A    between atoms: C_8  and  C_9 
REMARK    4  A    between atoms: C_9  and  N_10 
REMARK       I    between atoms: N_10  and  C_11 
REMARK       I    between atoms: C_11  and  N_12 
REMARK    5  A    between atoms: N_12  and  C_13 
ROOT
HETATM    1  N   UNL     1     -42.239  58.939 -50.344  1.00  0.00    -0.339 N 
HETATM    2  C   UNL     1     -41.568  57.915 -50.964  1.00  0.00     0.316 C 
HETATM    3  N   UNL     1     -41.550  56.775 -50.193  1.00  0.00    -0.337 N 
HETATM    4  O   UNL     1     -41.042  58.011 -52.065  1.00  0.00    -0.247 OA
HETATM    5  H   UNL     1     -42.295  58.909 -49.338  1.00  0.00     0.164 HD
HETATM    6  H   UNL     1     -42.325  56.672 -49.552  1.00  0.00     0.164 HD
ENDROOT
BRANCH   1   7
HETATM    7  C   UNL     1     -42.362  60.236 -50.976  1.00  0.00     0.163 C 
BRANCH   7   8
HETATM    8  C   UNL     1     -43.251  61.195 -50.226  1.00  0.00    -0.035 A 
HETATM    9  C   UNL     1     -43.126  62.582 -50.335  1.00  0.00     0.028 A 
HETATM   10  C   UNL     1     -44.018  63.389 -49.644  1.00  0.00     0.120 A 
HETATM   11  N   UNL     1     -45.022  62.919 -48.876  1.00  0.00    -0.237 NA
HETATM   12  C   UNL     1     -45.156  61.584 -48.808  1.00  0.00     0.165 A 
HETATM   13  C   UNL     1     -44.308  60.696 -49.456  1.00  0.00     0.066 A 
BRANCH  12  14
HETATM   14  O   UNL     1     -46.190  61.012 -48.104  1.00  0.00    -0.324 OA
BRANCH  14  15
HETATM   15  C   UNL     1     -46.098  60.854 -46.677  1.00  0.00     0.058 C 
HETATM   16  C   UNL     1     -44.696  61.145 -46.121  1.00  0.00     0.045 C 
HETATM   17  C   UNL     1     -46.642  59.497 -46.209  1.00  0.00     0.045 C 
HETATM   18  C   UNL     1     -47.040  61.946 -46.130  1.00  0.00     0.045 C 
ENDBRANCH  14  15
ENDBRANCH  12  14
ENDBRANCH   7   8
ENDBRANCH   1   7
BRANCH   3  19
HETATM   19  C   UNL     1     -40.955  55.568 -50.693  1.00  0.00     0.100 A 
HETATM   20  C   UNL     1     -41.772  54.537 -51.438  1.00  0.00     0.049 A 
HETATM   21  C   UNL     1     -41.271  54.251 -50.031  1.00  0.00     0.024 A 
HETATM   22  C   UNL     1     -41.092  53.513 -52.291  1.00  0.00    -0.045 A 
HETATM   23  C   UNL     1     -40.288  53.091 -50.057  1.00  0.00     0.046 A 
HETATM   24  C   UNL     1     -40.252  52.691 -51.514  1.00  0.00    -0.051 A 
HETATM   25  C   UNL     1     -39.500  51.672 -52.081  1.00  0.00     0.007 A 
HETATM   26  C   UNL     1     -39.592  51.473 -53.459  1.00  0.00     0.001 A 
HETATM   27  C   UNL     1     -40.425  52.285 -54.243  1.00  0.00     0.001 A 
HETATM   28  C   UNL     1     -41.177  53.310 -53.661  1.00  0.00     0.008 A 
ENDBRANCH   3  19
TORSDOF 5
ENDMDL
MODEL 2
REMARK VINA RESULT:      -8.3      3.779      5.314
REMARK  5 active torsions:
REMARK  status: ('A' for Active; 'I' for Inactive)
REMARK    1  A    between atoms: C_2  and  O_3 
REMARK    2  A    between atoms: O_3  and  C_4 
REMARK    3  A    between atoms: C_8  and  C_9 
REMARK    4  A    between atoms: C_9  and  N_10 
REMARK       I    between atoms: N_10  and  C_11 
REMARK       I    between atoms: C_11  and  N_12 
REMARK    5  A    between atoms: N_12  and  C_13 
ROOT
HETATM    1  N   UNL     1     -42.905  56.133 -55.466  1.00  0.00    -0.339 N 
HETATM    2  C   UNL     1     -42.725  55.034 -54.664  1.00  0.00     0.316 C 
HETATM    3  N   UNL     1     -41.676  54.253 -55.095  1.00  0.00    -0.337 N 
HETATM    4  O   UNL     1     -43.422  54.776 -53.692  1.00  0.00    -0.247 OA
HETATM    5  H   UNL     1     -42.570  56.070 -56.415  1.00  0.00     0.164 HD
HETATM    6  H   UNL     1     -40.950  54.742 -55.599  1.00  0.00     0.164 HD
ENDROOT
BRANCH   1   7
HETATM    7  C   UNL     1     -43.968  57.079 -55.200  1.00  0.00     0.163 C 
BRANCH   7   8
HETATM    8  C   UNL     1     -43.486  58.385 -54.620  1.00  0.00    -0.035 A 
HETATM    9  C   UNL     1     -44.245  59.558 -54.669  1.00  0.00     0.028 A 
HETATM   10  C   UNL     1     -43.743  60.703 -54.069  1.00  0.00     0.120 A 
HETATM   11  N   UNL     1     -42.563  60.758 -53.417  1.00  0.00    -0.237 NA
HETATM   12  C   UNL     1     -41.859  59.617 -53.344  1.00  0.00     0.165 A 
HETATM   13  C   UNL     1     -42.274  58.424 -53.920  1.00  0.00     0.066 A 
BRANCH  12  14
HETATM   14  O   UNL     1     -40.677  59.558 -52.643  1.00  0.00    -0.324 OA
BRANCH  14  15
HETATM   15  C   UNL     1     -40.675  59.191 -51.252  1.00  0.00     0.058 C 
HETATM   16  C   UNL     1     -41.040  57.718 -51.011  1.00  0.00     0.045 C 
HETATM   17  C   UNL     1     -41.518  60.149 -50.400  1.00  0.00     0.045 C 
HETATM   18  C   UNL     1     -39.201  59.369 -50.833  1.00  0.00     0.045 C 
ENDBRANCH  14  15
ENDBRANCH  12  14
ENDBRANCH   7   8
ENDBRANCH   1   7
BRANCH   3  19
HETATM   19  C   UNL     1     -41.282  53.090 -54.350  1.00  0.00     0.100 A 
HETATM   20  C   UNL     1     -40.228  53.168 -53.269  1.00  0.00     0.049 A 
HETATM   21  C   UNL     1     -39.925  52.477 -54.590  1.00  0.00     0.024 A 
HETATM   22  C   UNL     1     -40.120  52.080 -52.247  1.00  0.00    -0.045 A 
HETATM   23  C   UNL     1     -39.669  50.996 -54.353  1.00  0.00     0.046 A 
HETATM   24  C   UNL     1     -39.802  50.850 -52.855  1.00  0.00    -0.051 A 
HETATM   25  C   UNL     1     -39.661  49.685 -52.115  1.00  0.00     0.007 A 
HETATM   26  C   UNL     1     -39.844  49.755 -50.733  1.00  0.00     0.001 A 
HETATM   27  C   UNL     1     -40.161  50.974 -50.116  1.00  0.00     0.001 A 
HETATM   28  C   UNL     1     -40.301  52.142 -50.873  1.00  0.00     0.008 A 
ENDBRANCH   3  19
TORSDOF 5
ENDMDL
MODEL 3
REMARK VINA RESULT:      -8.3      5.117      7.504
REMARK  5 active torsions:
REMARK  status: ('A' for Active; 'I' for Inactive)
REMARK    1  A    between atoms: C_2  and  O_3 
REMARK    2  A    between atoms: O_3  and  C_4 
REMARK    3  A    between atoms: C_8  and  C_9 
REMARK    4  A    between atoms: C_9  and  N_10 
REMARK       I    between atoms: N_10  and  C_11 
REMARK       I    between atoms: C_11  and  N_12 
REMARK    5  A    between atoms: N_12  and  C_13 
ROOT
HETATM    1  N   UNL     1     -43.621  57.026 -53.062  1.00  0.00    -0.339 N 
HETATM    2  C   UNL     1     -43.243  55.764 -53.447  1.00  0.00     0.316 C 
HETATM    3  N   UNL     1     -42.155  55.315 -52.734  1.00  0.00    -0.337 N 
HETATM    4  O   UNL     1     -43.803  55.123 -54.328  1.00  0.00    -0.247 OA
HETATM    5  H   UNL     1     -42.914  57.608 -52.639  1.00  0.00     0.164 HD
HETATM    6  H   UNL     1     -42.053  55.705 -51.808  1.00  0.00     0.164 HD
ENDROOT
BRANCH   1   7
HETATM    7  C   UNL     1     -44.736  57.695 -53.698  1.00  0.00     0.163 C 
BRANCH   7   8
HETATM    8  C   UNL     1     -44.397  58.299 -55.037  1.00  0.00    -0.035 A 
HETATM    9  C   UNL     1     -43.548  59.400 -55.175  1.00  0.00     0.028 A 
HETATM   10  C   UNL     1     -43.255  59.862 -56.449  1.00  0.00     0.120 A 
HETATM   11  N   UNL     1     -43.727  59.302 -57.582  1.00  0.00    -0.237 NA
HETATM   12  C   UNL     1     -44.513  58.222 -57.440  1.00  0.00     0.165 A 
HETATM   13  C   UNL     1     -44.869  57.692 -56.207  1.00  0.00     0.066 A 
BRANCH  12  14
HETATM   14  O   UNL     1     -44.988  57.543 -58.538  1.00  0.00    -0.324 OA
BRANCH  14  15
HETATM   15  C   UNL     1     -44.117  56.680 -59.291  1.00  0.00     0.058 C 
HETATM   16  C   UNL     1     -43.235  55.785 -58.407  1.00  0.00     0.045 C 
HETATM   17  C   UNL     1     -43.303  57.452 -60.338  1.00  0.00     0.045 C 
HETATM   18  C   UNL     1     -45.092  55.754 -60.047  1.00  0.00     0.045 C 
ENDBRANCH  14  15
ENDBRANCH  12  14
ENDBRANCH   7   8
ENDBRANCH   1   7
BRANCH   3  19
HETATM   19  C   UNL     1     -41.647  53.988 -52.941  1.00  0.00     0.100 A 
HETATM   20  C   UNL     1     -40.333  53.546 -52.339  1.00  0.00     0.049 A 
HETATM   21  C   UNL     1     -40.453  53.779 -53.837  1.00  0.00     0.024 A 
HETATM   22  C   UNL     1     -40.018  52.088 -52.213  1.00  0.00    -0.045 A 
HETATM   23  C   UNL     1     -40.238  52.472 -54.584  1.00  0.00     0.046 A 
HETATM   24  C   UNL     1     -39.961  51.476 -53.481  1.00  0.00    -0.051 A 
HETATM   25  C   UNL     1     -39.698  50.122 -53.626  1.00  0.00     0.007 A 
HETATM   26  C   UNL     1     -39.486  49.364 -52.474  1.00  0.00     0.001 A 
HETATM   27  C   UNL     1     -39.540  49.961 -51.206  1.00  0.00     0.001 A 
HETATM   28  C   UNL     1     -39.808  51.327 -51.072  1.00  0.00     0.008 A 
ENDBRANCH   3  19
TORSDOF 5
ENDMDL
MODEL 4
REMARK VINA RESULT:      -8.1      2.036      2.884
REMARK  5 active torsions:
REMARK  status: ('A' for Active; 'I' for Inactive)
REMARK    1  A    between atoms: C_2  and  O_3 
REMARK    2  A    between atoms: O_3  and  C_4 
REMARK    3  A    between atoms: C_8  and  C_9 
REMARK    4  A    between atoms: C_9  and  N_10 
REMARK       I    between atoms: N_10  and  C_11 
REMARK       I    between atoms: C_11  and  N_12 
REMARK    5  A    between atoms: N_12  and  C_13 
ROOT
HETATM    1  N   UNL     1     -43.599  56.926 -52.017  1.00  0.00    -0.339 N 
HETATM    2  C   UNL     1     -43.259  55.596 -52.016  1.00  0.00     0.316 C 
HETATM    3  N   UNL     1     -42.288  55.316 -52.951  1.00  0.00    -0.337 N 
HETATM    4  O   UNL     1     -43.768  54.762 -51.279  1.00  0.00    -0.247 OA
HETATM    5  H   UNL     1     -43.436  57.441 -52.868  1.00  0.00     0.164 HD
HETATM    6  H   UNL     1     -41.673  56.083 -53.180  1.00  0.00     0.164 HD
ENDROOT
BRANCH   1   7
HETATM    7  C   UNL     1     -44.615  57.433 -51.120  1.00  0.00     0.163 C 
BRANCH   7   8
HETATM    8  C   UNL     1     -44.698  58.938 -51.085  1.00  0.00    -0.035 A 
HETATM    9  C   UNL     1     -44.060  59.751 -52.025  1.00  0.00     0.028 A 
HETATM   10  C   UNL     1     -44.229  61.125 -51.943  1.00  0.00     0.120 A 
HETATM   11  N   UNL     1     -44.991  61.738 -51.014  1.00  0.00    -0.237 NA
HETATM   12  C   UNL     1     -45.630  60.945 -50.138  1.00  0.00     0.165 A 
HETATM   13  C   UNL     1     -45.516  59.561 -50.134  1.00  0.00     0.066 A 
BRANCH  12  14
HETATM   14  O   UNL     1     -46.482  61.474 -49.196  1.00  0.00    -0.324 OA
BRANCH  14  15
HETATM   15  C   UNL     1     -45.969  61.949 -47.939  1.00  0.00     0.058 C 
HETATM   16  C   UNL     1     -44.607  61.344 -47.568  1.00  0.00     0.045 C 
HETATM   17  C   UNL     1     -46.997  61.811 -46.807  1.00  0.00     0.045 C 
HETATM   18  C   UNL     1     -45.747  63.456 -48.185  1.00  0.00     0.045 C 
ENDBRANCH  14  15
ENDBRANCH  12  14
ENDBRANCH   7   8
ENDBRANCH   1   7
BRANCH   3  19
HETATM   19  C   UNL     1     -41.746  53.990 -53.062  1.00  0.00     0.100 A 
HETATM   20  C   UNL     1     -40.448  53.613 -52.387  1.00  0.00     0.049 A 
HETATM   21  C   UNL     1     -40.515  53.757 -53.899  1.00  0.00     0.024 A 
HETATM   22  C   UNL     1     -40.108  52.172 -52.165  1.00  0.00    -0.045 A 
HETATM   23  C   UNL     1     -40.246  52.414 -54.560  1.00  0.00     0.046 A 
HETATM   24  C   UNL     1     -39.991  51.489 -53.392  1.00  0.00    -0.051 A 
HETATM   25  C   UNL     1     -39.696  50.136 -53.448  1.00  0.00     0.007 A 
HETATM   26  C   UNL     1     -39.513  49.449 -52.247  1.00  0.00     0.001 A 
HETATM   27  C   UNL     1     -39.628  50.118 -51.019  1.00  0.00     0.001 A 
HETATM   28  C   UNL     1     -39.927  51.483 -50.974  1.00  0.00     0.008 A 
ENDBRANCH   3  19
TORSDOF 5
ENDMDL
MODEL 5
REMARK VINA RESULT:      -8.1      1.673      2.609
REMARK  5 active torsions:
REMARK  status: ('A' for Active; 'I' for Inactive)
REMARK    1  A    between atoms: C_2  and  O_3 
REMARK    2  A    between atoms: O_3  and  C_4 
REMARK    3  A    between atoms: C_8  and  C_9 
REMARK    4  A    between atoms: C_9  and  N_10 
REMARK       I    between atoms: N_10  and  C_11 
REMARK       I    between atoms: C_11  and  N_12 
REMARK    5  A    between atoms: N_12  and  C_13 
ROOT
HETATM    1  N   UNL     1     -43.799  56.945 -50.982  1.00  0.00    -0.339 N 
HETATM    2  C   UNL     1     -43.389  55.964 -51.849  1.00  0.00     0.316 C 
HETATM    3  N   UNL     1     -42.397  55.181 -51.304  1.00  0.00    -0.337 N 
HETATM    4  O   UNL     1     -43.845  55.813 -52.975  1.00  0.00    -0.247 OA
HETATM    5  H   UNL     1     -43.143  57.236 -50.274  1.00  0.00     0.164 HD
HETATM    6  H   UNL     1     -42.402  55.114 -50.296  1.00  0.00     0.164 HD
ENDROOT
BRANCH   1   7
HETATM    7  C   UNL     1     -44.826  57.892 -51.364  1.00  0.00     0.163 C 
BRANCH   7   8
HETATM    8  C   UNL     1     -44.589  59.286 -50.842  1.00  0.00    -0.035 A 
HETATM    9  C   UNL     1     -43.532  60.087 -51.281  1.00  0.00     0.028 A 
HETATM   10  C   UNL     1     -43.418  61.376 -50.781  1.00  0.00     0.120 A 
HETATM   11  N   UNL     1     -44.280  61.921 -49.898  1.00  0.00    -0.237 NA
HETATM   12  C   UNL     1     -45.313  61.156 -49.510  1.00  0.00     0.165 A 
HETATM   13  C   UNL     1     -45.507  59.853 -49.949  1.00  0.00     0.066 A 
BRANCH  12  14
HETATM   14  O   UNL     1     -46.280  61.648 -48.665  1.00  0.00    -0.324 OA
BRANCH  14  15
HETATM   15  C   UNL     1     -45.946  62.014 -47.314  1.00  0.00     0.058 C 
HETATM   16  C   UNL     1     -47.095  61.789 -46.320  1.00  0.00     0.045 C 
HETATM   17  C   UNL     1     -45.368  63.433 -47.227  1.00  0.00     0.045 C 
HETATM   18  C   UNL     1     -44.820  61.029 -46.940  1.00  0.00     0.045 C 
ENDBRANCH  14  15
ENDBRANCH  12  14
ENDBRANCH   7   8
ENDBRANCH   1   7
BRANCH   3  19
HETATM   19  C   UNL     1     -41.879  54.054 -52.028  1.00  0.00     0.100 A 
HETATM   20  C   UNL     1     -40.491  53.519 -51.762  1.00  0.00     0.049 A 
HETATM   21  C   UNL     1     -40.793  54.264 -53.053  1.00  0.00     0.024 A 
HETATM   22  C   UNL     1     -40.120  52.139 -52.206  1.00  0.00    -0.045 A 
HETATM   23  C   UNL     1     -40.630  53.328 -54.241  1.00  0.00     0.046 A 
HETATM   24  C   UNL     1     -40.196  52.026 -53.609  1.00  0.00    -0.051 A 
HETATM   25  C   UNL     1     -39.912  50.836 -54.261  1.00  0.00     0.007 A 
HETATM   26  C   UNL     1     -39.544  49.732 -53.490  1.00  0.00     0.001 A 
HETATM   27  C   UNL     1     -39.465  49.832 -52.093  1.00  0.00     0.001 A 
HETATM   28  C   UNL     1     -39.755  51.037 -51.446  1.00  0.00     0.008 A 
ENDBRANCH   3  19
TORSDOF 5
ENDMDL
MODEL 6
REMARK VINA RESULT:      -7.7      5.634      8.362
REMARK  5 active torsions:
REMARK  status: ('A' for Active; 'I' for Inactive)
REMARK    1  A    between atoms: C_2  and  O_3 
REMARK    2  A    between atoms: O_3  and  C_4 
REMARK    3  A    between atoms: C_8  and  C_9 
REMARK    4  A    between atoms: C_9  and  N_10 
REMARK       I    between atoms: N_10  and  C_11 
REMARK       I    between atoms: C_11  and  N_12 
REMARK    5  A    between atoms: N_12  and  C_13 
ROOT
HETATM    1  N   UNL     1     -43.993  58.253 -55.222  1.00  0.00    -0.339 N 
HETATM    2  C   UNL     1     -42.972  57.498 -54.702  1.00  0.00     0.316 C 
HETATM    3  N   UNL     1     -43.430  56.574 -53.790  1.00  0.00    -0.337 N 
HETATM    4  O   UNL     1     -41.795  57.640 -55.007  1.00  0.00    -0.247 OA
HETATM    5  H   UNL     1     -44.828  58.343 -54.663  1.00  0.00     0.164 HD
HETATM    6  H   UNL     1     -44.382  56.266 -53.927  1.00  0.00     0.164 HD
ENDROOT
BRANCH   1   7
HETATM    7  C   UNL     1     -43.728  59.297 -56.188  1.00  0.00     0.163 C 
BRANCH   7   8
HETATM    8  C   UNL     1     -44.341  59.041 -57.542  1.00  0.00    -0.035 A 
HETATM    9  C   UNL     1     -44.475  60.039 -58.510  1.00  0.00     0.028 A 
HETATM   10  C   UNL     1     -45.009  59.703 -59.745  1.00  0.00     0.120 A 
HETATM   11  N   UNL     1     -45.399  58.457 -60.086  1.00  0.00    -0.237 NA
HETATM   12  C   UNL     1     -45.231  57.498 -59.160  1.00  0.00     0.165 A 
HETATM   13  C   UNL     1     -44.714  57.739 -57.894  1.00  0.00     0.066 A 
BRANCH  12  14
HETATM   14  O   UNL     1     -45.537  56.186 -59.439  1.00  0.00    -0.324 OA
BRANCH  14  15
HETATM   15  C   UNL     1     -44.520  55.291 -59.925  1.00  0.00     0.058 C 
HETATM   16  C   UNL     1     -44.525  53.925 -59.222  1.00  0.00     0.045 C 
HETATM   17  C   UNL     1     -43.130  55.943 -59.926  1.00  0.00     0.045 C 
HETATM   18  C   UNL     1     -44.923  55.050 -61.394  1.00  0.00     0.045 C 
ENDBRANCH  14  15
ENDBRANCH  12  14
ENDBRANCH   7   8
ENDBRANCH   1   7
BRANCH   3  19
HETATM   19  C   UNL     1     -42.524  55.641 -53.182  1.00  0.00     0.100 A 
HETATM   20  C   UNL     1     -42.613  54.159 -53.468  1.00  0.00     0.049 A 
HETATM   21  C   UNL     1     -43.026  54.707 -52.110  1.00  0.00     0.024 A 
HETATM   22  C   UNL     1     -41.449  53.266 -53.171  1.00  0.00    -0.045 A 
HETATM   23  C   UNL     1     -42.101  54.166 -51.030  1.00  0.00     0.046 A 
HETATM   24  C   UNL     1     -41.156  53.266 -51.792  1.00  0.00    -0.051 A 
HETATM   25  C   UNL     1     -40.108  52.524 -51.270  1.00  0.00     0.007 A 
HETATM   26  C   UNL     1     -39.334  51.765 -52.149  1.00  0.00     0.001 A 
HETATM   27  C   UNL     1     -39.615  51.757 -53.523  1.00  0.00     0.001 A 
HETATM   28  C   UNL     1     -40.674  52.511 -54.039  1.00  0.00     0.008 A 
ENDBRANCH   3  19
TORSDOF 5
ENDMDL
MODEL 7
REMARK VINA RESULT:      -7.7      3.593      5.560
REMARK  5 active torsions:
REMARK  status: ('A' for Active; 'I' for Inactive)
REMARK    1  A    between atoms: C_2  and  O_3 
REMARK    2  A    between atoms: O_3  and  C_4 
REMARK    3  A    between atoms: C_8  and  C_9 
REMARK    4  A    between atoms: C_9  and  N_10 
REMARK       I    between atoms: N_10  and  C_11 
REMARK       I    between atoms: C_11  and  N_12 
REMARK    5  A    between atoms: N_12  and  C_13 
ROOT
HETATM    1  N   UNL     1     -43.829  56.970 -50.963  1.00  0.00    -0.339 N 
HETATM    2  C   UNL     1     -43.388  56.000 -51.827  1.00  0.00     0.316 C 
HETATM    3  N   UNL     1     -42.440  55.189 -51.244  1.00  0.00    -0.337 N 
HETATM    4  O   UNL     1     -43.783  55.879 -52.979  1.00  0.00    -0.247 OA
HETATM    5  H   UNL     1     -43.208  57.236 -50.215  1.00  0.00     0.164 HD
HETATM    6  H   UNL     1     -42.501  55.103 -50.240  1.00  0.00     0.164 HD
ENDROOT
BRANCH   1   7
HETATM    7  C   UNL     1     -44.817  57.942 -51.381  1.00  0.00     0.163 C 
BRANCH   7   8
HETATM    8  C   UNL     1     -44.253  59.058 -52.224  1.00  0.00    -0.035 A 
HETATM    9  C   UNL     1     -43.287  59.948 -51.749  1.00  0.00     0.028 A 
HETATM   10  C   UNL     1     -42.791  60.916 -52.610  1.00  0.00     0.120 A 
HETATM   11  N   UNL     1     -43.171  61.047 -53.898  1.00  0.00    -0.237 NA
HETATM   12  C   UNL     1     -44.072  60.162 -54.355  1.00  0.00     0.165 A 
HETATM   13  C   UNL     1     -44.632  59.165 -53.568  1.00  0.00     0.066 A 
BRANCH  12  14
HETATM   14  O   UNL     1     -44.470  60.174 -55.671  1.00  0.00    -0.324 OA
BRANCH  14  15
HETATM   15  C   UNL     1     -43.682  59.510 -56.675  1.00  0.00     0.058 C 
HETATM   16  C   UNL     1     -42.483  58.742 -56.098  1.00  0.00     0.045 C 
HETATM   17  C   UNL     1     -43.276  60.459 -57.811  1.00  0.00     0.045 C 
HETATM   18  C   UNL     1     -44.651  58.466 -57.264  1.00  0.00     0.045 C 
ENDBRANCH  14  15
ENDBRANCH  12  14
ENDBRANCH   7   8
ENDBRANCH   1   7
BRANCH   3  19
HETATM   19  C   UNL     1     -41.901  54.068 -51.962  1.00  0.00     0.100 A 
HETATM   20  C   UNL     1     -40.520  53.531 -51.661  1.00  0.00     0.049 A 
HETATM   21  C   UNL     1     -40.786  54.285 -52.955  1.00  0.00     0.024 A 
HETATM   22  C   UNL     1     -40.137  52.154 -52.105  1.00  0.00    -0.045 A 
HETATM   23  C   UNL     1     -40.590  53.359 -54.145  1.00  0.00     0.046 A 
HETATM   24  C   UNL     1     -40.173  52.052 -53.510  1.00  0.00    -0.051 A 
HETATM   25  C   UNL     1     -39.870  50.867 -54.163  1.00  0.00     0.007 A 
HETATM   26  C   UNL     1     -39.524  49.757 -53.391  1.00  0.00     0.001 A 
HETATM   27  C   UNL     1     -39.484  49.846 -51.991  1.00  0.00     0.001 A 
HETATM   28  C   UNL     1     -39.793  51.047 -51.343  1.00  0.00     0.008 A 
ENDBRANCH   3  19
TORSDOF 5
ENDMDL
MODEL 8
REMARK VINA RESULT:      -7.6      2.750      4.123
REMARK  5 active torsions:
REMARK  status: ('A' for Active; 'I' for Inactive)
REMARK    1  A    between atoms: C_2  and  O_3 
REMARK    2  A    between atoms: O_3  and  C_4 
REMARK    3  A    between atoms: C_8  and  C_9 
REMARK    4  A    between atoms: C_9  and  N_10 
REMARK       I    between atoms: N_10  and  C_11 
REMARK       I    between atoms: C_11  and  N_12 
REMARK    5  A    between atoms: N_12  and  C_13 
ROOT
HETATM    1  N   UNL     1     -43.638  57.095 -52.366  1.00  0.00    -0.339 N 
HETATM    2  C   UNL     1     -43.217  55.932 -52.960  1.00  0.00     0.316 C 
HETATM    3  N   UNL     1     -42.260  55.290 -52.207  1.00  0.00    -0.337 N 
HETATM    4  O   UNL     1     -43.636  55.524 -54.035  1.00  0.00    -0.247 OA
HETATM    5  H   UNL     1     -43.001  57.539 -51.722  1.00  0.00     0.164 HD
HETATM    6  H   UNL     1     -42.301  55.464 -51.213  1.00  0.00     0.164 HD
ENDROOT
BRANCH   1   7
HETATM    7  C   UNL     1     -44.632  57.935 -52.999  1.00  0.00     0.163 C 
BRANCH   7   8
HETATM    8  C   UNL     1     -45.216  58.981 -52.084  1.00  0.00    -0.035 A 
HETATM    9  C   UNL     1     -45.076  58.930 -50.695  1.00  0.00     0.028 A 
HETATM   10  C   UNL     1     -45.607  59.961 -49.933  1.00  0.00     0.120 A 
HETATM   11  N   UNL     1     -46.244  61.031 -50.450  1.00  0.00    -0.237 NA
HETATM   12  C   UNL     1     -46.340  61.088 -51.788  1.00  0.00     0.165 A 
HETATM   13  C   UNL     1     -45.849  60.102 -52.633  1.00  0.00     0.066 A 
BRANCH  12  14
HETATM   14  O   UNL     1     -46.913  62.173 -52.411  1.00  0.00    -0.324 OA
BRANCH  14  15
HETATM   15  C   UNL     1     -46.210  63.426 -52.478  1.00  0.00     0.058 C 
HETATM   16  C   UNL     1     -44.683  63.267 -52.517  1.00  0.00     0.045 C 
HETATM   17  C   UNL     1     -46.668  64.404 -51.387  1.00  0.00     0.045 C 
HETATM   18  C   UNL     1     -46.642  64.011 -53.839  1.00  0.00     0.045 C 
ENDBRANCH  14  15
ENDBRANCH  12  14
ENDBRANCH   7   8
ENDBRANCH   1   7
BRANCH   3  19
HETATM   19  C   UNL     1     -41.738  54.019 -52.624  1.00  0.00     0.100 A 
HETATM   20  C   UNL     1     -40.403  53.515 -52.127  1.00  0.00     0.049 A 
HETATM   21  C   UNL     1     -40.565  53.969 -53.570  1.00  0.00     0.024 A 
HETATM   22  C   UNL     1     -40.063  52.062 -52.231  1.00  0.00    -0.045 A 
HETATM   23  C   UNL     1     -40.352  52.793 -54.510  1.00  0.00     0.046 A 
HETATM   24  C   UNL     1     -40.031  51.648 -53.577  1.00  0.00    -0.051 A 
HETATM   25  C   UNL     1     -39.752  50.336 -53.931  1.00  0.00     0.007 A 
HETATM   26  C   UNL     1     -39.499  49.417 -52.912  1.00  0.00     0.001 A 
HETATM   27  C   UNL     1     -39.528  49.817 -51.567  1.00  0.00     0.001 A 
HETATM   28  C   UNL     1     -39.811  51.142 -51.222  1.00  0.00     0.008 A 
ENDBRANCH   3  19
TORSDOF 5
ENDMDL
MODEL 9
REMARK VINA RESULT:      -7.5      6.592      8.895
REMARK  5 active torsions:
REMARK  status: ('A' for Active; 'I' for Inactive)
REMARK    1  A    between atoms: C_2  and  O_3 
REMARK    2  A    between atoms: O_3  and  C_4 
REMARK    3  A    between atoms: C_8  and  C_9 
REMARK    4  A    between atoms: C_9  and  N_10 
REMARK       I    between atoms: N_10  and  C_11 
REMARK       I    between atoms: C_11  and  N_12 
REMARK    5  A    between atoms: N_12  and  C_13 
ROOT
HETATM    1  N   UNL     1     -44.098  56.946 -57.857  1.00  0.00    -0.339 N 
HETATM    2  C   UNL     1     -43.394  56.699 -56.705  1.00  0.00     0.316 C 
HETATM    3  N   UNL     1     -43.191  55.352 -56.508  1.00  0.00    -0.337 N 
HETATM    4  O   UNL     1     -43.005  57.573 -55.942  1.00  0.00    -0.247 OA
HETATM    5  H   UNL     1     -44.690  56.206 -58.202  1.00  0.00     0.164 HD
HETATM    6  H   UNL     1     -43.168  54.790 -57.347  1.00  0.00     0.164 HD
ENDROOT
BRANCH   1   7
HETATM    7  C   UNL     1     -44.435  58.299 -58.246  1.00  0.00     0.163 C 
BRANCH   7   8
HETATM    8  C   UNL     1     -43.459  58.913 -59.218  1.00  0.00    -0.035 A 
HETATM    9  C   UNL     1     -42.772  58.160 -60.174  1.00  0.00     0.028 A 
HETATM   10  C   UNL     1     -41.928  58.815 -61.058  1.00  0.00     0.120 A 
HETATM   11  N   UNL     1     -41.734  60.150 -61.069  1.00  0.00    -0.237 NA
HETATM   12  C   UNL     1     -42.427  60.868 -60.169  1.00  0.00     0.165 A 
HETATM   13  C   UNL     1     -43.288  60.302 -59.239  1.00  0.00     0.066 A 
BRANCH  12  14
HETATM   14  O   UNL     1     -42.347  62.241 -60.147  1.00  0.00    -0.324 OA
BRANCH  14  15
HETATM   15  C   UNL     1     -41.279  62.894 -59.437  1.00  0.00     0.058 C 
HETATM   16  C   UNL     1     -40.538  61.966 -58.463  1.00  0.00     0.045 C 
HETATM   17  C   UNL     1     -41.743  64.195 -58.767  1.00  0.00     0.045 C 
HETATM   18  C   UNL     1     -40.283  63.274 -60.552  1.00  0.00     0.045 C 
ENDBRANCH  14  15
ENDBRANCH  12  14
ENDBRANCH   7   8
ENDBRANCH   1   7
BRANCH   3  19
HETATM   19  C   UNL     1     -42.416  54.888 -55.392  1.00  0.00     0.100 A 
HETATM   20  C   UNL     1     -42.468  53.446 -54.943  1.00  0.00     0.049 A 
HETATM   21  C   UNL     1     -43.108  54.538 -54.099  1.00  0.00     0.024 A 
HETATM   22  C   UNL     1     -41.383  52.891 -54.074  1.00  0.00    -0.045 A 
HETATM   23  C   UNL     1     -42.393  54.644 -52.761  1.00  0.00     0.046 A 
HETATM   24  C   UNL     1     -41.338  53.565 -52.837  1.00  0.00    -0.051 A 
HETATM   25  C   UNL     1     -40.405  53.240 -51.863  1.00  0.00     0.007 A 
HETATM   26  C   UNL     1     -39.496  52.216 -52.135  1.00  0.00     0.001 A 
HETATM   27  C   UNL     1     -39.531  51.538 -53.363  1.00  0.00     0.001 A 
HETATM   28  C   UNL     1     -40.476  51.875 -54.338  1.00  0.00     0.008 A 
ENDBRANCH   3  19
TORSDOF 5
ENDMDL
MODEL 10
REMARK VINA RESULT:      -7.5      3.018      4.760
REMARK  5 active torsions:
REMARK  status: ('A' for Active; 'I' for Inactive)
REMARK    1  A    between atoms: C_2  and  O_3 
REMARK    2  A    between atoms: O_3  and  C_4 
REMARK    3  A    between atoms: C_8  and  C_9 
REMARK    4  A    between atoms: C_9  and  N_10 
REMARK       I    between atoms: N_10  and  C_11 
REMARK       I    between atoms: C_11  and  N_12 
REMARK    5  A    between atoms: N_12  and  C_13 
ROOT
HETATM    1  N   UNL     1     -42.333  59.014 -50.376  1.00  0.00    -0.339 N 
HETATM    2  C   UNL     1     -41.486  58.021 -50.798  1.00  0.00     0.316 C 
HETATM    3  N   UNL     1     -41.957  56.771 -50.466  1.00  0.00    -0.337 N 
HETATM    4  O   UNL     1     -40.434  58.226 -51.389  1.00  0.00    -0.247 OA
HETATM    5  H   UNL     1     -42.939  58.802 -49.598  1.00  0.00     0.164 HD
HETATM    6  H   UNL     1     -42.960  56.695 -50.379  1.00  0.00     0.164 HD
ENDROOT
BRANCH   1   7
HETATM    7  C   UNL     1     -42.019  60.408 -50.609  1.00  0.00     0.163 C 
BRANCH   7   8
HETATM    8  C   UNL     1     -42.858  61.048 -51.686  1.00  0.00    -0.035 A 
HETATM    9  C   UNL     1     -43.876  61.963 -51.405  1.00  0.00     0.028 A 
HETATM   10  C   UNL     1     -44.567  62.537 -52.462  1.00  0.00     0.120 A 
HETATM   11  N   UNL     1     -44.309  62.282 -53.761  1.00  0.00    -0.237 NA
HETATM   12  C   UNL     1     -43.304  61.429 -54.020  1.00  0.00     0.165 A 
HETATM   13  C   UNL     1     -42.561  60.797 -53.031  1.00  0.00     0.066 A 
BRANCH  12  14
HETATM   14  O   UNL     1     -42.923  61.157 -55.314  1.00  0.00    -0.324 OA
BRANCH  14  15
HETATM   15  C   UNL     1     -43.455  60.012 -56.002  1.00  0.00     0.058 C 
HETATM   16  C   UNL     1     -44.703  59.421 -55.328  1.00  0.00     0.045 C 
HETATM   17  C   UNL     1     -42.380  58.951 -56.274  1.00  0.00     0.045 C 
HETATM   18  C   UNL     1     -43.901  60.583 -57.364  1.00  0.00     0.045 C 
ENDBRANCH  14  15
ENDBRANCH  12  14
ENDBRANCH   7   8
ENDBRANCH   1   7
BRANCH   3  19
HETATM   19  C   UNL     1     -41.247  55.593 -50.879  1.00  0.00     0.100 A 
HETATM   20  C   UNL     1     -41.949  54.463 -51.597  1.00  0.00     0.049 A 
HETATM   21  C   UNL     1     -41.485  54.289 -50.159  1.00  0.00     0.024 A 
HETATM   22  C   UNL     1     -41.155  53.456 -52.369  1.00  0.00    -0.045 A 
HETATM   23  C   UNL     1     -40.412  53.214 -50.087  1.00  0.00     0.046 A 
HETATM   24  C   UNL     1     -40.285  52.745 -51.518  1.00  0.00    -0.051 A 
HETATM   25  C   UNL     1     -39.432  51.764 -52.002  1.00  0.00     0.007 A 
HETATM   26  C   UNL     1     -39.452  51.489 -53.370  1.00  0.00     0.001 A 
HETATM   27  C   UNL     1     -40.314  52.190 -54.227  1.00  0.00     0.001 A 
HETATM   28  C   UNL     1     -41.168  53.178 -53.728  1.00  0.00     0.008 A 
ENDBRANCH   3  19
TORSDOF 5
ENDMDL
