MODEL 1
REMARK VINA RESULT:      -7.6      0.000      0.000
REMARK  6 active torsions:
REMARK  status: ('A' for Active; 'I' for Inactive)
REMARK    1  A    between atoms: C_2  and  N_3 
REMARK    2  A    between atoms: C_2  and  C_21 
REMARK       I    between atoms: N_3  and  C_4 
REMARK       I    between atoms: C_4  and  N_5 
REMARK    3  A    between atoms: N_5  and  C_6 
REMARK    4  A    between atoms: C_9  and  O_10 
REMARK    5  A    between atoms: O_10  and  C_11 
REMARK    6  A    between atoms: C_11  and  C_12 
ROOT
HETATM    1  C   UNL     1     -43.218  56.049 -54.520  1.00  0.00     0.036 A 
HETATM    2  C   UNL     1     -42.103  56.680 -53.965  1.00  0.00     0.032 A 
HETATM    3  C   UNL     1     -41.381  56.079 -52.925  1.00  0.00     0.039 A 
HETATM    4  C   UNL     1     -41.767  54.838 -52.422  1.00  0.00     0.068 A 
HETATM    5  C   UNL     1     -42.885  54.207 -52.968  1.00  0.00     0.039 A 
HETATM    6  C   UNL     1     -43.607  54.806 -54.008  1.00  0.00     0.032 A 
ENDROOT
BRANCH   1   7
HETATM    7  N   UNL     1     -43.993  56.602 -55.558  1.00  0.00    -0.309 N 
HETATM    8  C   UNL     1     -43.590  56.877 -56.845  1.00  0.00     0.321 C 
HETATM    9  N   UNL     1     -44.579  57.513 -57.553  1.00  0.00    -0.332 N 
HETATM   10  O   UNL     1     -42.508  56.605 -57.348  1.00  0.00    -0.247 OA
HETATM   11  H   UNL     1     -45.337  57.965 -57.064  1.00  0.00     0.165 HD
HETATM   12  H   UNL     1     -44.977  56.726 -55.373  1.00  0.00     0.170 HD
BRANCH   9  13
HETATM   13  C   UNL     1     -44.356  57.973 -58.921  1.00  0.00     0.155 C 
HETATM   14  C   UNL     1     -45.002  59.340 -59.157  1.00  0.00     0.041 C 
BRANCH  13  15
HETATM   15  C   UNL     1     -44.931  56.945 -59.858  1.00  0.00     0.169 A 
HETATM   16  N   UNL     1     -44.193  56.258 -60.743  1.00  0.00    -0.156 NA
HETATM   17  N   UNL     1     -45.123  55.495 -61.338  1.00  0.00    -0.270 N 
HETATM   18  H   UNL     1     -44.844  54.852 -62.070  1.00  0.00     0.190 HD
HETATM   19  C   UNL     1     -46.358  55.731 -60.824  1.00  0.00     0.227 A 
HETATM   20  N   UNL     1     -46.279  56.644 -59.884  1.00  0.00    -0.223 NA
ENDBRANCH  13  15
ENDBRANCH   9  13
ENDBRANCH   1   7
BRANCH   4  21
HETATM   21  O   UNL     1     -41.147  54.152 -51.414  1.00  0.00    -0.351 OA
BRANCH  21  22
HETATM   22  C   UNL     1     -41.002  52.741 -51.596  1.00  0.00     0.180 C 
BRANCH  22  23
HETATM   23  C   UNL     1     -39.671  52.457 -52.319  1.00  0.00     0.010 C 
HETATM   24  C   UNL     1     -39.024  51.164 -51.801  1.00  0.00     0.007 C 
HETATM   25  C   UNL     1     -39.748  49.904 -52.274  1.00  0.00     0.000 C 
HETATM   26  C   UNL     1     -39.893  49.876 -53.793  1.00  0.00     0.000 C 
HETATM   27  C   UNL     1     -40.548  51.144 -54.329  1.00  0.00     0.000 C 
HETATM   28  C   UNL     1     -39.827  52.402 -53.848  1.00  0.00     0.007 C 
ENDBRANCH  22  23
ENDBRANCH  21  22
ENDBRANCH   4  21
TORSDOF 6
ENDMDL
MODEL 2
REMARK VINA RESULT:      -7.4      5.637      7.939
REMARK  6 active torsions:
REMARK  status: ('A' for Active; 'I' for Inactive)
REMARK    1  A    between atoms: C_2  and  N_3 
REMARK    2  A    between atoms: C_2  and  C_21 
REMARK       I    between atoms: N_3  and  C_4 
REMARK       I    between atoms: C_4  and  N_5 
REMARK    3  A    between atoms: N_5  and  C_6 
REMARK    4  A    between atoms: C_9  and  O_10 
REMARK    5  A    between atoms: O_10  and  C_11 
REMARK    6  A    between atoms: C_11  and  C_12 
ROOT
HETATM    1  C   UNL     1     -43.159  57.854 -51.765  1.00  0.00     0.036 A 
HETATM    2  C   UNL     1     -43.961  57.152 -52.665  1.00  0.00     0.032 A 
HETATM    3  C   UNL     1     -43.391  56.381 -53.687  1.00  0.00     0.039 A 
HETATM    4  C   UNL     1     -42.006  56.307 -53.826  1.00  0.00     0.068 A 
HETATM    5  C   UNL     1     -41.200  57.014 -52.933  1.00  0.00     0.039 A 
HETATM    6  C   UNL     1     -41.769  57.783 -51.911  1.00  0.00     0.032 A 
ENDROOT
BRANCH   1   7
HETATM    7  N   UNL     1     -43.668  58.654 -50.723  1.00  0.00    -0.309 N 
HETATM    8  C   UNL     1     -44.315  59.864 -50.839  1.00  0.00     0.321 C 
HETATM    9  N   UNL     1     -44.576  60.411 -49.608  1.00  0.00    -0.332 N 
HETATM   10  O   UNL     1     -44.648  60.420 -51.877  1.00  0.00    -0.247 OA
HETATM   11  H   UNL     1     -44.068  60.090 -48.796  1.00  0.00     0.165 HD
HETATM   12  H   UNL     1     -43.643  58.261 -49.795  1.00  0.00     0.170 HD
BRANCH   9  13
HETATM   13  C   UNL     1     -45.189  61.730 -49.478  1.00  0.00     0.155 C 
HETATM   14  C   UNL     1     -44.128  62.829 -49.404  1.00  0.00     0.041 C 
BRANCH  13  15
HETATM   15  C   UNL     1     -46.039  61.728 -48.236  1.00  0.00     0.169 A 
HETATM   16  N   UNL     1     -47.181  62.423 -48.122  1.00  0.00    -0.156 NA
HETATM   17  N   UNL     1     -47.559  62.121 -46.871  1.00  0.00    -0.270 N 
HETATM   18  H   UNL     1     -48.417  62.516 -46.501  1.00  0.00     0.190 HD
HETATM   19  C   UNL     1     -46.669  61.285 -46.274  1.00  0.00     0.227 A 
HETATM   20  N   UNL     1     -45.693  61.013 -47.107  1.00  0.00    -0.223 NA
ENDBRANCH  13  15
ENDBRANCH   9  13
ENDBRANCH   1   7
BRANCH   4  21
HETATM   21  O   UNL     1     -41.332  55.592 -54.778  1.00  0.00    -0.351 OA
BRANCH  21  22
HETATM   22  C   UNL     1     -40.456  54.565 -54.306  1.00  0.00     0.180 C 
BRANCH  22  23
HETATM   23  C   UNL     1     -41.295  53.416 -53.716  1.00  0.00     0.010 C 
HETATM   24  C   UNL     1     -40.848  52.057 -54.279  1.00  0.00     0.007 C 
HETATM   25  C   UNL     1     -39.504  51.594 -53.719  1.00  0.00     0.000 C 
HETATM   26  C   UNL     1     -39.504  51.582 -52.193  1.00  0.00     0.000 C 
HETATM   27  C   UNL     1     -39.929  52.926 -51.611  1.00  0.00     0.000 C 
HETATM   28  C   UNL     1     -41.270  53.391 -52.178  1.00  0.00     0.007 C 
ENDBRANCH  22  23
ENDBRANCH  21  22
ENDBRANCH   4  21
TORSDOF 6
ENDMDL
MODEL 3
REMARK VINA RESULT:      -7.1      6.219      8.967
REMARK  6 active torsions:
REMARK  status: ('A' for Active; 'I' for Inactive)
REMARK    1  A    between atoms: C_2  and  N_3 
REMARK    2  A    between atoms: C_2  and  C_21 
REMARK       I    between atoms: N_3  and  C_4 
REMARK       I    between atoms: C_4  and  N_5 
REMARK    3  A    between atoms: N_5  and  C_6 
REMARK    4  A    between atoms: C_9  and  O_10 
REMARK    5  A    between atoms: O_10  and  C_11 
REMARK    6  A    between atoms: C_11  and  C_12 
ROOT
HETATM    1  C   UNL     1     -43.724  59.314 -51.549  1.00  0.00     0.036 A 
HETATM    2  C   UNL     1     -44.621  59.468 -52.607  1.00  0.00     0.032 A 
HETATM    3  C   UNL     1     -44.412  58.813 -53.828  1.00  0.00     0.039 A 
HETATM    4  C   UNL     1     -43.298  57.996 -54.010  1.00  0.00     0.068 A 
HETATM    5  C   UNL     1     -42.394  57.845 -52.957  1.00  0.00     0.039 A 
HETATM    6  C   UNL     1     -42.603  58.498 -51.736  1.00  0.00     0.032 A 
ENDROOT
BRANCH   1   7
HETATM    7  N   UNL     1     -43.870  59.951 -50.301  1.00  0.00    -0.309 N 
HETATM    8  C   UNL     1     -45.038  60.159 -49.601  1.00  0.00     0.321 C 
HETATM    9  N   UNL     1     -44.817  60.909 -48.473  1.00  0.00    -0.332 N 
HETATM   10  O   UNL     1     -46.151  59.744 -49.893  1.00  0.00    -0.247 OA
HETATM   11  H   UNL     1     -43.975  61.461 -48.392  1.00  0.00     0.165 HD
HETATM   12  H   UNL     1     -43.021  60.203 -49.818  1.00  0.00     0.170 HD
BRANCH   9  13
HETATM   13  C   UNL     1     -45.919  61.322 -47.609  1.00  0.00     0.155 C 
HETATM   14  C   UNL     1     -45.664  62.708 -47.012  1.00  0.00     0.041 C 
BRANCH  13  15
HETATM   15  C   UNL     1     -46.069  60.294 -46.521  1.00  0.00     0.169 A 
HETATM   16  N   UNL     1     -45.352  60.309 -45.388  1.00  0.00    -0.156 NA
HETATM   17  N   UNL     1     -45.819  59.221 -44.756  1.00  0.00    -0.270 N 
HETATM   18  H   UNL     1     -45.448  58.978 -43.844  1.00  0.00     0.190 HD
HETATM   19  C   UNL     1     -46.770  58.592 -45.495  1.00  0.00     0.227 A 
HETATM   20  N   UNL     1     -46.957  59.241 -46.620  1.00  0.00    -0.223 NA
ENDBRANCH  13  15
ENDBRANCH   9  13
ENDBRANCH   1   7
BRANCH   4  21
HETATM   21  O   UNL     1     -42.984  57.307 -55.148  1.00  0.00    -0.351 OA
BRANCH  21  22
HETATM   22  C   UNL     1     -41.764  56.560 -55.129  1.00  0.00     0.180 C 
BRANCH  22  23
HETATM   23  C   UNL     1     -42.067  55.086 -55.457  1.00  0.00     0.010 C 
HETATM   24  C   UNL     1     -40.815  54.211 -55.283  1.00  0.00     0.007 C 
HETATM   25  C   UNL     1     -40.443  53.989 -53.817  1.00  0.00     0.000 C 
HETATM   26  C   UNL     1     -41.618  53.433 -53.017  1.00  0.00     0.000 C 
HETATM   27  C   UNL     1     -42.868  54.294 -53.162  1.00  0.00     0.000 C 
HETATM   28  C   UNL     1     -43.233  54.522 -54.628  1.00  0.00     0.007 C 
ENDBRANCH  22  23
ENDBRANCH  21  22
ENDBRANCH   4  21
TORSDOF 6
ENDMDL
MODEL 4
REMARK VINA RESULT:      -7.0      1.944      2.918
REMARK  6 active torsions:
REMARK  status: ('A' for Active; 'I' for Inactive)
REMARK    1  A    between atoms: C_2  and  N_3 
REMARK    2  A    between atoms: C_2  and  C_21 
REMARK       I    between atoms: N_3  and  C_4 
REMARK       I    between atoms: C_4  and  N_5 
REMARK    3  A    between atoms: N_5  and  C_6 
REMARK    4  A    between atoms: C_9  and  O_10 
REMARK    5  A    between atoms: O_10  and  C_11 
REMARK    6  A    between atoms: C_11  and  C_12 
ROOT
HETATM    1  C   UNL     1     -43.031  57.841 -54.732  1.00  0.00     0.036 A 
HETATM    2  C   UNL     1     -44.189  57.558 -54.006  1.00  0.00     0.032 A 
HETATM    3  C   UNL     1     -44.118  57.198 -52.654  1.00  0.00     0.039 A 
HETATM    4  C   UNL     1     -42.886  57.111 -52.009  1.00  0.00     0.068 A 
HETATM    5  C   UNL     1     -41.726  57.386 -52.733  1.00  0.00     0.039 A 
HETATM    6  C   UNL     1     -41.795  57.747 -54.085  1.00  0.00     0.032 A 
ENDROOT
BRANCH   1   7
HETATM    7  N   UNL     1     -43.031  58.199 -56.095  1.00  0.00    -0.309 N 
HETATM    8  C   UNL     1     -42.805  57.375 -57.175  1.00  0.00     0.321 C 
HETATM    9  N   UNL     1     -42.775  58.086 -58.348  1.00  0.00    -0.332 N 
HETATM   10  O   UNL     1     -42.655  56.161 -57.151  1.00  0.00    -0.247 OA
HETATM   11  H   UNL     1     -42.628  59.085 -58.329  1.00  0.00     0.165 HD
HETATM   12  H   UNL     1     -43.319  59.140 -56.318  1.00  0.00     0.170 HD
BRANCH   9  13
HETATM   13  C   UNL     1     -42.475  57.436 -59.621  1.00  0.00     0.155 C 
HETATM   14  C   UNL     1     -41.864  58.425 -60.616  1.00  0.00     0.041 C 
BRANCH  13  15
HETATM   15  C   UNL     1     -43.755  56.860 -60.163  1.00  0.00     0.169 A 
HETATM   16  N   UNL     1     -44.885  57.569 -60.300  1.00  0.00    -0.156 NA
HETATM   17  N   UNL     1     -45.726  56.649 -60.797  1.00  0.00    -0.270 N 
HETATM   18  H   UNL     1     -46.682  56.911 -61.008  1.00  0.00     0.190 HD
HETATM   19  C   UNL     1     -45.111  55.445 -60.940  1.00  0.00     0.227 A 
HETATM   20  N   UNL     1     -43.862  55.538 -60.550  1.00  0.00    -0.223 NA
ENDBRANCH  13  15
ENDBRANCH   9  13
ENDBRANCH   1   7
BRANCH   4  21
HETATM   21  O   UNL     1     -42.687  56.772 -50.699  1.00  0.00    -0.351 OA
BRANCH  21  22
HETATM   22  C   UNL     1     -41.496  56.037 -50.402  1.00  0.00     0.180 C 
BRANCH  22  23
HETATM   23  C   UNL     1     -41.865  54.570 -50.116  1.00  0.00     0.010 C 
HETATM   24  C   UNL     1     -42.549  53.923 -51.330  1.00  0.00     0.007 C 
HETATM   25  C   UNL     1     -41.580  53.636 -52.477  1.00  0.00     0.000 C 
HETATM   26  C   UNL     1     -40.388  52.805 -52.011  1.00  0.00     0.000 C 
HETATM   27  C   UNL     1     -39.683  53.436 -50.815  1.00  0.00     0.000 C 
HETATM   28  C   UNL     1     -40.655  53.729 -49.673  1.00  0.00     0.007 C 
ENDBRANCH  22  23
ENDBRANCH  21  22
ENDBRANCH   4  21
TORSDOF 6
ENDMDL
MODEL 5
REMARK VINA RESULT:      -7.0     16.362     20.455
REMARK  6 active torsions:
REMARK  status: ('A' for Active; 'I' for Inactive)
REMARK    1  A    between atoms: C_2  and  N_3 
REMARK    2  A    between atoms: C_2  and  C_21 
REMARK       I    between atoms: N_3  and  C_4 
REMARK       I    between atoms: C_4  and  N_5 
REMARK    3  A    between atoms: N_5  and  C_6 
REMARK    4  A    between atoms: C_9  and  O_10 
REMARK    5  A    between atoms: O_10  and  C_11 
REMARK    6  A    between atoms: C_11  and  C_12 
ROOT
HETATM    1  C   UNL     1     -33.132  40.398 -50.456  1.00  0.00     0.036 A 
HETATM    2  C   UNL     1     -34.487  40.081 -50.349  1.00  0.00     0.032 A 
HETATM    3  C   UNL     1     -35.285  39.944 -51.493  1.00  0.00     0.039 A 
HETATM    4  C   UNL     1     -34.739  40.127 -52.761  1.00  0.00     0.068 A 
HETATM    5  C   UNL     1     -33.386  40.451 -52.872  1.00  0.00     0.039 A 
HETATM    6  C   UNL     1     -32.587  40.587 -51.730  1.00  0.00     0.032 A 
ENDROOT
BRANCH   1   7
HETATM    7  N   UNL     1     -32.278  40.560 -49.347  1.00  0.00    -0.309 N 
HETATM    8  C   UNL     1     -31.629  39.572 -48.641  1.00  0.00     0.321 C 
HETATM    9  N   UNL     1     -30.966  40.087 -47.555  1.00  0.00    -0.332 N 
HETATM   10  O   UNL     1     -31.603  38.378 -48.907  1.00  0.00    -0.247 OA
HETATM   11  H   UNL     1     -31.214  40.999 -47.200  1.00  0.00     0.165 HD
HETATM   12  H   UNL     1     -32.036  41.506 -49.095  1.00  0.00     0.170 HD
BRANCH   9  13
HETATM   13  C   UNL     1     -30.267  39.219 -46.612  1.00  0.00     0.155 C 
HETATM   14  C   UNL     1     -30.686  39.516 -45.171  1.00  0.00     0.041 C 
BRANCH  13  15
HETATM   15  C   UNL     1     -28.788  39.434 -46.790  1.00  0.00     0.169 A 
HETATM   16  N   UNL     1     -28.226  40.646 -46.904  1.00  0.00    -0.156 NA
HETATM   17  N   UNL     1     -26.930  40.333 -47.050  1.00  0.00    -0.270 N 
HETATM   18  H   UNL     1     -26.247  41.075 -47.159  1.00  0.00     0.190 HD
HETATM   19  C   UNL     1     -26.741  38.987 -47.027  1.00  0.00     0.227 A 
HETATM   20  N   UNL     1     -27.895  38.383 -46.864  1.00  0.00    -0.223 NA
ENDBRANCH  13  15
ENDBRANCH   9  13
ENDBRANCH   1   7
BRANCH   4  21
HETATM   21  O   UNL     1     -35.410  40.021 -53.948  1.00  0.00    -0.351 OA
BRANCH  21  22
HETATM   22  C   UNL     1     -34.708  40.442 -55.121  1.00  0.00     0.180 C 
BRANCH  22  23
HETATM   23  C   UNL     1     -35.152  41.869 -55.492  1.00  0.00     0.010 C 
HETATM   24  C   UNL     1     -34.931  42.147 -56.987  1.00  0.00     0.007 C 
HETATM   25  C   UNL     1     -35.931  41.417 -57.883  1.00  0.00     0.000 C 
HETATM   26  C   UNL     1     -37.371  41.715 -57.476  1.00  0.00     0.000 C 
HETATM   27  C   UNL     1     -37.619  41.431 -55.998  1.00  0.00     0.000 C 
HETATM   28  C   UNL     1     -36.612  42.155 -55.106  1.00  0.00     0.007 C 
ENDBRANCH  22  23
ENDBRANCH  21  22
ENDBRANCH   4  21
TORSDOF 6
ENDMDL
MODEL 6
REMARK VINA RESULT:      -7.0      3.609      9.090
REMARK  6 active torsions:
REMARK  status: ('A' for Active; 'I' for Inactive)
REMARK    1  A    between atoms: C_2  and  N_3 
REMARK    2  A    between atoms: C_2  and  C_21 
REMARK       I    between atoms: N_3  and  C_4 
REMARK       I    between atoms: C_4  and  N_5 
REMARK    3  A    between atoms: N_5  and  C_6 
REMARK    4  A    between atoms: C_9  and  O_10 
REMARK    5  A    between atoms: O_10  and  C_11 
REMARK    6  A    between atoms: C_11  and  C_12 
ROOT
HETATM    1  C   UNL     1     -41.554  55.644 -54.813  1.00  0.00     0.036 A 
HETATM    2  C   UNL     1     -42.157  55.069 -55.933  1.00  0.00     0.032 A 
HETATM    3  C   UNL     1     -42.870  55.856 -56.848  1.00  0.00     0.039 A 
HETATM    4  C   UNL     1     -42.993  57.230 -56.653  1.00  0.00     0.068 A 
HETATM    5  C   UNL     1     -42.398  57.807 -55.531  1.00  0.00     0.039 A 
HETATM    6  C   UNL     1     -41.685  57.023 -54.616  1.00  0.00     0.032 A 
ENDROOT
BRANCH   1   7
HETATM    7  N   UNL     1     -40.834  54.910 -53.850  1.00  0.00    -0.309 N 
HETATM    8  C   UNL     1     -41.344  54.204 -52.784  1.00  0.00     0.321 C 
HETATM    9  N   UNL     1     -40.343  53.701 -51.992  1.00  0.00    -0.332 N 
HETATM   10  O   UNL     1     -42.526  54.008 -52.534  1.00  0.00    -0.247 OA
HETATM   11  H   UNL     1     -39.412  54.089 -52.050  1.00  0.00     0.165 HD
HETATM   12  H   UNL     1     -39.842  54.809 -54.005  1.00  0.00     0.170 HD
BRANCH   9  13
HETATM   13  C   UNL     1     -40.641  52.979 -50.759  1.00  0.00     0.155 C 
HETATM   14  C   UNL     1     -39.972  53.641 -49.554  1.00  0.00     0.041 C 
BRANCH  13  15
HETATM   15  C   UNL     1     -40.161  51.562 -50.921  1.00  0.00     0.169 A 
HETATM   16  N   UNL     1     -40.244  50.639 -49.952  1.00  0.00    -0.156 NA
HETATM   17  N   UNL     1     -39.696  49.568 -50.547  1.00  0.00    -0.270 N 
HETATM   18  H   UNL     1     -39.626  48.696 -50.035  1.00  0.00     0.190 HD
HETATM   19  C   UNL     1     -39.302  49.857 -51.815  1.00  0.00     0.227 A 
HETATM   20  N   UNL     1     -39.579  51.110 -52.089  1.00  0.00    -0.223 NA
ENDBRANCH  13  15
ENDBRANCH   9  13
ENDBRANCH   1   7
BRANCH   4  21
HETATM   21  O   UNL     1     -43.659  58.101 -57.471  1.00  0.00    -0.351 OA
BRANCH  21  22
HETATM   22  C   UNL     1     -44.870  57.624 -58.063  1.00  0.00     0.180 C 
BRANCH  22  23
HETATM   23  C   UNL     1     -44.823  57.873 -59.582  1.00  0.00     0.010 C 
HETATM   24  C   UNL     1     -43.763  56.989 -60.257  1.00  0.00     0.007 C 
HETATM   25  C   UNL     1     -44.177  55.520 -60.336  1.00  0.00     0.000 C 
HETATM   26  C   UNL     1     -45.538  55.354 -61.007  1.00  0.00     0.000 C 
HETATM   27  C   UNL     1     -46.610  56.211 -60.344  1.00  0.00     0.000 C 
HETATM   28  C   UNL     1     -46.191  57.678 -60.258  1.00  0.00     0.007 C 
ENDBRANCH  22  23
ENDBRANCH  21  22
ENDBRANCH   4  21
TORSDOF 6
ENDMDL
MODEL 7
REMARK VINA RESULT:      -6.9      2.173      2.754
REMARK  6 active torsions:
REMARK  status: ('A' for Active; 'I' for Inactive)
REMARK    1  A    between atoms: C_2  and  N_3 
REMARK    2  A    between atoms: C_2  and  C_21 
REMARK       I    between atoms: N_3  and  C_4 
REMARK       I    between atoms: C_4  and  N_5 
REMARK    3  A    between atoms: N_5  and  C_6 
REMARK    4  A    between atoms: C_9  and  O_10 
REMARK    5  A    between atoms: O_10  and  C_11 
REMARK    6  A    between atoms: C_11  and  C_12 
ROOT
HETATM    1  C   UNL     1     -42.322  55.894 -56.158  1.00  0.00     0.036 A 
HETATM    2  C   UNL     1     -42.973  54.706 -55.821  1.00  0.00     0.032 A 
HETATM    3  C   UNL     1     -42.800  54.125 -54.557  1.00  0.00     0.039 A 
HETATM    4  C   UNL     1     -41.969  54.724 -53.613  1.00  0.00     0.068 A 
HETATM    5  C   UNL     1     -41.310  55.908 -53.948  1.00  0.00     0.039 A 
HETATM    6  C   UNL     1     -41.483  56.490 -55.209  1.00  0.00     0.032 A 
ENDROOT
BRANCH   1   7
HETATM    7  N   UNL     1     -42.444  56.524 -57.412  1.00  0.00    -0.309 N 
HETATM    8  C   UNL     1     -43.244  57.597 -57.733  1.00  0.00     0.321 C 
HETATM    9  N   UNL     1     -43.190  57.876 -59.076  1.00  0.00    -0.332 N 
HETATM   10  O   UNL     1     -43.926  58.259 -56.963  1.00  0.00    -0.247 OA
HETATM   11  H   UNL     1     -42.855  57.177 -59.723  1.00  0.00     0.165 HD
HETATM   12  H   UNL     1     -41.810  56.221 -58.136  1.00  0.00     0.170 HD
BRANCH   9  13
HETATM   13  C   UNL     1     -44.015  58.927 -59.666  1.00  0.00     0.155 C 
HETATM   14  C   UNL     1     -45.292  58.350 -60.278  1.00  0.00     0.041 C 
BRANCH  13  15
HETATM   15  C   UNL     1     -43.194  59.630 -60.714  1.00  0.00     0.169 A 
HETATM   16  N   UNL     1     -41.900  59.362 -60.940  1.00  0.00    -0.156 NA
HETATM   17  N   UNL     1     -41.613  60.222 -61.929  1.00  0.00    -0.270 N 
HETATM   18  H   UNL     1     -40.675  60.242 -62.315  1.00  0.00     0.190 HD
HETATM   19  C   UNL     1     -42.698  60.969 -62.264  1.00  0.00     0.227 A 
HETATM   20  N   UNL     1     -43.719  60.623 -61.517  1.00  0.00    -0.223 NA
ENDBRANCH  13  15
ENDBRANCH   9  13
ENDBRANCH   1   7
BRANCH   4  21
HETATM   21  O   UNL     1     -41.720  54.258 -52.351  1.00  0.00    -0.351 OA
BRANCH  21  22
HETATM   22  C   UNL     1     -41.417  52.865 -52.232  1.00  0.00     0.180 C 
BRANCH  22  23
HETATM   23  C   UNL     1     -39.978  52.616 -52.720  1.00  0.00     0.010 C 
HETATM   24  C   UNL     1     -39.217  51.692 -51.757  1.00  0.00     0.007 C 
HETATM   25  C   UNL     1     -39.680  50.237 -51.836  1.00  0.00     0.000 C 
HETATM   26  C   UNL     1     -39.622  49.707 -53.266  1.00  0.00     0.000 C 
HETATM   27  C   UNL     1     -40.384  50.600 -54.239  1.00  0.00     0.000 C 
HETATM   28  C   UNL     1     -39.925  52.055 -54.151  1.00  0.00     0.007 C 
ENDBRANCH  22  23
ENDBRANCH  21  22
ENDBRANCH   4  21
TORSDOF 6
ENDMDL
MODEL 8
REMARK VINA RESULT:      -6.8      1.769      2.712
REMARK  6 active torsions:
REMARK  status: ('A' for Active; 'I' for Inactive)
REMARK    1  A    between atoms: C_2  and  N_3 
REMARK    2  A    between atoms: C_2  and  C_21 
REMARK       I    between atoms: N_3  and  C_4 
REMARK       I    between atoms: C_4  and  N_5 
REMARK    3  A    between atoms: N_5  and  C_6 
REMARK    4  A    between atoms: C_9  and  O_10 
REMARK    5  A    between atoms: O_10  and  C_11 
REMARK    6  A    between atoms: C_11  and  C_12 
ROOT
HETATM    1  C   UNL     1     -42.631  55.550 -55.638  1.00  0.00     0.036 A 
HETATM    2  C   UNL     1     -41.418  55.972 -55.092  1.00  0.00     0.032 A 
HETATM    3  C   UNL     1     -40.633  55.100 -54.326  1.00  0.00     0.039 A 
HETATM    4  C   UNL     1     -41.053  53.792 -54.091  1.00  0.00     0.068 A 
HETATM    5  C   UNL     1     -42.269  53.369 -54.629  1.00  0.00     0.039 A 
HETATM    6  C   UNL     1     -43.054  54.238 -55.396  1.00  0.00     0.032 A 
ENDROOT
BRANCH   1   7
HETATM    7  N   UNL     1     -43.472  56.378 -56.408  1.00  0.00    -0.309 N 
HETATM    8  C   UNL     1     -43.375  56.645 -57.755  1.00  0.00     0.321 C 
HETATM    9  N   UNL     1     -44.299  57.581 -58.147  1.00  0.00    -0.332 N 
HETATM   10  O   UNL     1     -42.595  56.136 -58.549  1.00  0.00    -0.247 OA
HETATM   11  H   UNL     1     -44.736  58.177 -57.458  1.00  0.00     0.165 HD
HETATM   12  H   UNL     1     -44.291  56.745 -55.949  1.00  0.00     0.170 HD
BRANCH   9  13
HETATM   13  C   UNL     1     -44.339  58.080 -59.518  1.00  0.00     0.155 C 
HETATM   14  C   UNL     1     -44.521  59.599 -59.549  1.00  0.00     0.041 C 
BRANCH  13  15
HETATM   15  C   UNL     1     -45.474  57.395 -60.231  1.00  0.00     0.169 A 
HETATM   16  N   UNL     1     -45.339  56.233 -60.888  1.00  0.00    -0.156 NA
HETATM   17  N   UNL     1     -46.582  56.036 -61.351  1.00  0.00    -0.270 N 
HETATM   18  H   UNL     1     -46.784  55.207 -61.899  1.00  0.00     0.190 HD
HETATM   19  C   UNL     1     -47.412  57.048 -60.983  1.00  0.00     0.227 A 
HETATM   20  N   UNL     1     -46.747  57.928 -60.273  1.00  0.00    -0.223 NA
ENDBRANCH  13  15
ENDBRANCH   9  13
ENDBRANCH   1   7
BRANCH   4  21
HETATM   21  O   UNL     1     -40.380  52.851 -53.364  1.00  0.00    -0.351 OA
BRANCH  21  22
HETATM   22  C   UNL     1     -39.905  53.254 -52.076  1.00  0.00     0.180 C 
BRANCH  22  23
HETATM   23  C   UNL     1     -40.977  52.934 -51.018  1.00  0.00     0.010 C 
HETATM   24  C   UNL     1     -40.368  52.884 -49.609  1.00  0.00     0.007 C 
HETATM   25  C   UNL     1     -40.001  54.266 -49.069  1.00  0.00     0.000 C 
HETATM   26  C   UNL     1     -41.189  55.223 -49.120  1.00  0.00     0.000 C 
HETATM   27  C   UNL     1     -41.802  55.301 -50.515  1.00  0.00     0.000 C 
HETATM   28  C   UNL     1     -42.159  53.917 -51.055  1.00  0.00     0.007 C 
ENDBRANCH  22  23
ENDBRANCH  21  22
ENDBRANCH   4  21
TORSDOF 6
ENDMDL
MODEL 9
REMARK VINA RESULT:      -6.6      3.127      9.368
REMARK  6 active torsions:
REMARK  status: ('A' for Active; 'I' for Inactive)
REMARK    1  A    between atoms: C_2  and  N_3 
REMARK    2  A    between atoms: C_2  and  C_21 
REMARK       I    between atoms: N_3  and  C_4 
REMARK       I    between atoms: C_4  and  N_5 
REMARK    3  A    between atoms: N_5  and  C_6 
REMARK    4  A    between atoms: C_9  and  O_10 
REMARK    5  A    between atoms: O_10  and  C_11 
REMARK    6  A    between atoms: C_11  and  C_12 
ROOT
HETATM    1  C   UNL     1     -43.114  55.679 -56.503  1.00  0.00     0.036 A 
HETATM    2  C   UNL     1     -43.515  56.915 -55.995  1.00  0.00     0.032 A 
HETATM    3  C   UNL     1     -43.853  57.970 -56.854  1.00  0.00     0.039 A 
HETATM    4  C   UNL     1     -43.789  57.803 -58.236  1.00  0.00     0.068 A 
HETATM    5  C   UNL     1     -43.381  56.571 -58.748  1.00  0.00     0.039 A 
HETATM    6  C   UNL     1     -43.045  55.516 -57.891  1.00  0.00     0.032 A 
ENDROOT
BRANCH   1   7
HETATM    7  N   UNL     1     -42.751  54.582 -55.696  1.00  0.00    -0.309 N 
HETATM    8  C   UNL     1     -41.535  54.355 -55.093  1.00  0.00     0.321 C 
HETATM    9  N   UNL     1     -41.506  53.132 -54.472  1.00  0.00    -0.332 N 
HETATM   10  O   UNL     1     -40.575  55.114 -55.072  1.00  0.00    -0.247 OA
HETATM   11  H   UNL     1     -42.180  52.423 -54.722  1.00  0.00     0.165 HD
HETATM   12  H   UNL     1     -43.486  53.936 -55.453  1.00  0.00     0.170 HD
BRANCH   9  13
HETATM   13  C   UNL     1     -40.293  52.638 -53.826  1.00  0.00     0.155 C 
HETATM   14  C   UNL     1     -40.050  51.164 -54.159  1.00  0.00     0.041 C 
BRANCH  13  15
HETATM   15  C   UNL     1     -40.444  52.829 -52.341  1.00  0.00     0.169 A 
HETATM   16  N   UNL     1     -39.716  52.162 -51.433  1.00  0.00    -0.156 NA
HETATM   17  N   UNL     1     -40.203  52.651 -50.282  1.00  0.00    -0.270 N 
HETATM   18  H   UNL     1     -39.826  52.318 -49.402  1.00  0.00     0.190 HD
HETATM   19  C   UNL     1     -41.183  53.564 -50.509  1.00  0.00     0.227 A 
HETATM   20  N   UNL     1     -41.365  53.705 -51.801  1.00  0.00    -0.223 NA
ENDBRANCH  13  15
ENDBRANCH   9  13
ENDBRANCH   1   7
BRANCH   4  21
HETATM   21  O   UNL     1     -44.092  58.751 -59.174  1.00  0.00    -0.351 OA
BRANCH  21  22
HETATM   22  C   UNL     1     -44.994  58.359 -60.212  1.00  0.00     0.180 C 
BRANCH  22  23
HETATM   23  C   UNL     1     -46.396  58.148 -59.612  1.00  0.00     0.010 C 
HETATM   24  C   UNL     1     -47.409  59.140 -60.205  1.00  0.00     0.007 C 
HETATM   25  C   UNL     1     -47.788  58.812 -61.649  1.00  0.00     0.000 C 
HETATM   26  C   UNL     1     -48.282  57.375 -61.788  1.00  0.00     0.000 C 
HETATM   27  C   UNL     1     -47.286  56.370 -61.219  1.00  0.00     0.000 C 
HETATM   28  C   UNL     1     -46.902  56.705 -59.779  1.00  0.00     0.007 C 
ENDBRANCH  22  23
ENDBRANCH  21  22
ENDBRANCH   4  21
TORSDOF 6
ENDMDL
MODEL 10
REMARK VINA RESULT:      -6.5      3.876      9.293
REMARK  6 active torsions:
REMARK  status: ('A' for Active; 'I' for Inactive)
REMARK    1  A    between atoms: C_2  and  N_3 
REMARK    2  A    between atoms: C_2  and  C_21 
REMARK       I    between atoms: N_3  and  C_4 
REMARK       I    between atoms: C_4  and  N_5 
REMARK    3  A    between atoms: N_5  and  C_6 
REMARK    4  A    between atoms: C_9  and  O_10 
REMARK    5  A    between atoms: O_10  and  C_11 
REMARK    6  A    between atoms: C_11  and  C_12 
ROOT
HETATM    1  C   UNL     1     -41.748  55.650 -54.797  1.00  0.00     0.036 A 
HETATM    2  C   UNL     1     -42.108  56.990 -54.650  1.00  0.00     0.032 A 
HETATM    3  C   UNL     1     -42.858  57.645 -55.637  1.00  0.00     0.039 A 
HETATM    4  C   UNL     1     -43.255  56.968 -56.788  1.00  0.00     0.068 A 
HETATM    5  C   UNL     1     -42.891  55.630 -56.942  1.00  0.00     0.039 A 
HETATM    6  C   UNL     1     -42.142  54.974 -55.957  1.00  0.00     0.032 A 
ENDROOT
BRANCH   1   7
HETATM    7  N   UNL     1     -40.988  54.937 -53.850  1.00  0.00    -0.309 N 
HETATM    8  C   UNL     1     -41.458  54.186 -52.796  1.00  0.00     0.321 C 
HETATM    9  N   UNL     1     -40.430  53.722 -52.015  1.00  0.00    -0.332 N 
HETATM   10  O   UNL     1     -42.627  53.926 -52.546  1.00  0.00    -0.247 OA
HETATM   11  H   UNL     1     -39.520  54.157 -52.068  1.00  0.00     0.165 HD
HETATM   12  H   UNL     1     -39.993  54.890 -54.009  1.00  0.00     0.170 HD
BRANCH   9  13
HETATM   13  C   UNL     1     -40.687  52.963 -50.794  1.00  0.00     0.155 C 
HETATM   14  C   UNL     1     -40.004  53.609 -49.587  1.00  0.00     0.041 C 
BRANCH  13  15
HETATM   15  C   UNL     1     -40.182  51.560 -51.002  1.00  0.00     0.169 A 
HETATM   16  N   UNL     1     -40.239  50.608 -50.060  1.00  0.00    -0.156 NA
HETATM   17  N   UNL     1     -39.677  49.566 -50.692  1.00  0.00    -0.270 N 
HETATM   18  H   UNL     1     -39.586  48.680 -50.207  1.00  0.00     0.190 HD
HETATM   19  C   UNL     1     -39.301  49.899 -51.954  1.00  0.00     0.227 A 
HETATM   20  N   UNL     1     -39.604  51.154 -52.189  1.00  0.00    -0.223 NA
ENDBRANCH  13  15
ENDBRANCH   9  13
ENDBRANCH   1   7
BRANCH   4  21
HETATM   21  O   UNL     1     -43.986  57.494 -57.818  1.00  0.00    -0.351 OA
BRANCH  21  22
HETATM   22  C   UNL     1     -43.650  58.822 -58.228  1.00  0.00     0.180 C 
BRANCH  22  23
HETATM   23  C   UNL     1     -42.173  58.861 -58.661  1.00  0.00     0.010 C 
HETATM   24  C   UNL     1     -42.028  58.568 -60.163  1.00  0.00     0.007 C 
HETATM   25  C   UNL     1     -42.496  59.725 -61.044  1.00  0.00     0.000 C 
HETATM   26  C   UNL     1     -41.802  61.033 -60.670  1.00  0.00     0.000 C 
HETATM   27  C   UNL     1     -41.946  61.353 -59.186  1.00  0.00     0.000 C 
HETATM   28  C   UNL     1     -41.486  60.191 -58.307  1.00  0.00     0.007 C 
ENDBRANCH  22  23
ENDBRANCH  21  22
ENDBRANCH   4  21
TORSDOF 6
ENDMDL
