MODEL 1
REMARK VINA RESULT:      -8.8      0.000      0.000
REMARK  5 active torsions:
REMARK  status: ('A' for Active; 'I' for Inactive)
REMARK    1  A    between atoms: O_2  and  C_3 
REMARK    2  A    between atoms: C_4  and  C_5 
REMARK    3  A    between atoms: C_5  and  C_6 
REMARK       I    between atoms: C_6  and  N_7 
REMARK    4  A    between atoms: N_7  and  C_8 
REMARK    5  A    between atoms: C_9  and  O_10 
ROOT
HETATM    1  C   UNL     1     -41.177  55.296 -54.877  1.00  0.00     0.071 A 
HETATM    2  C   UNL     1     -41.154  55.556 -53.494  1.00  0.00     0.096 A 
HETATM    3  C   UNL     1     -40.798  54.573 -52.559  1.00  0.00     0.054 A 
HETATM    4  C   UNL     1     -40.523  53.278 -53.027  1.00  0.00     0.014 A 
HETATM    5  C   UNL     1     -40.617  53.031 -54.393  1.00  0.00     0.089 A 
HETATM    6  O   UNL     1     -40.327  51.726 -54.658  1.00  0.00    -0.309 OA
HETATM    7  C   UNL     1     -40.046  51.128 -53.466  1.00  0.00     0.087 A 
HETATM    8  C   UNL     1     -40.157  52.041 -52.423  1.00  0.00     0.011 A 
HETATM    9  C   UNL     1     -39.696  49.790 -53.293  1.00  0.00     0.038 A 
HETATM   10  C   UNL     1     -39.453  49.369 -51.981  1.00  0.00     0.003 A 
HETATM   11  C   UNL     1     -39.560  50.256 -50.905  1.00  0.00     0.001 A 
HETATM   12  C   UNL     1     -39.912  51.597 -51.110  1.00  0.00     0.015 A 
HETATM   13  C   UNL     1     -40.957  53.994 -55.346  1.00  0.00     0.070 A 
ENDROOT
BRANCH   1  14
HETATM   14  N   UNL     1     -41.502  56.293 -55.824  1.00  0.00    -0.324 N 
HETATM   15  C   UNL     1     -42.801  56.614 -56.186  1.00  0.00     0.226 C 
HETATM   16  O   UNL     1     -43.807  56.323 -55.540  1.00  0.00    -0.273 OA
HETATM   17  H   UNL     1     -40.793  56.980 -56.055  1.00  0.00     0.169 HD
BRANCH  15  18
HETATM   18  C   UNL     1     -42.919  57.332 -57.515  1.00  0.00     0.144 C 
BRANCH  18  19
HETATM   19  C   UNL     1     -43.875  56.724 -58.510  1.00  0.00    -0.016 A 
HETATM   20  C   UNL     1     -45.148  57.267 -58.733  1.00  0.00     0.074 A 
HETATM   21  C   UNL     1     -46.015  56.709 -59.673  1.00  0.00     0.037 A 
HETATM   22  C   UNL     1     -45.604  55.613 -60.429  1.00  0.00     0.003 A 
HETATM   23  C   UNL     1     -44.340  55.061 -60.224  1.00  0.00     0.001 A 
HETATM   24  C   UNL     1     -43.483  55.608 -59.264  1.00  0.00     0.010 A 
BRANCH  20  25
HETATM   25  O   UNL     1     -45.580  58.304 -57.948  1.00  0.00    -0.355 OA
HETATM   26  C   UNL     1     -46.982  58.185 -57.690  1.00  0.00     0.210 C 
ENDBRANCH  20  25
ENDBRANCH  18  19
ENDBRANCH  15  18
ENDBRANCH   1  14
BRANCH   2  27
HETATM   27  O   UNL     1     -41.541  56.772 -52.979  1.00  0.00    -0.354 OA
HETATM   28  C   UNL     1     -42.693  56.609 -52.150  1.00  0.00     0.210 C 
ENDBRANCH   2  27
TORSDOF 5
ENDMDL
MODEL 2
REMARK VINA RESULT:      -8.6      1.609      2.074
REMARK  5 active torsions:
REMARK  status: ('A' for Active; 'I' for Inactive)
REMARK    1  A    between atoms: O_2  and  C_3 
REMARK    2  A    between atoms: C_4  and  C_5 
REMARK    3  A    between atoms: C_5  and  C_6 
REMARK       I    between atoms: C_6  and  N_7 
REMARK    4  A    between atoms: N_7  and  C_8 
REMARK    5  A    between atoms: C_9  and  O_10 
ROOT
HETATM    1  C   UNL     1     -41.347  55.711 -54.136  1.00  0.00     0.071 A 
HETATM    2  C   UNL     1     -41.271  55.694 -52.730  1.00  0.00     0.096 A 
HETATM    3  C   UNL     1     -40.856  54.556 -52.023  1.00  0.00     0.054 A 
HETATM    4  C   UNL     1     -40.574  53.387 -52.747  1.00  0.00     0.014 A 
HETATM    5  C   UNL     1     -40.720  53.412 -54.130  1.00  0.00     0.089 A 
HETATM    6  O   UNL     1     -40.414  52.193 -54.659  1.00  0.00    -0.309 OA
HETATM    7  C   UNL     1     -40.071  51.380 -53.621  1.00  0.00     0.087 A 
HETATM    8  C   UNL     1     -40.158  52.066 -52.414  1.00  0.00     0.011 A 
HETATM    9  C   UNL     1     -39.687  50.045 -53.730  1.00  0.00     0.038 A 
HETATM   10  C   UNL     1     -39.381  49.380 -52.537  1.00  0.00     0.003 A 
HETATM   11  C   UNL     1     -39.462  50.034 -51.303  1.00  0.00     0.001 A 
HETATM   12  C   UNL     1     -39.849  51.379 -51.225  1.00  0.00     0.015 A 
HETATM   13  C   UNL     1     -41.119  54.533 -54.861  1.00  0.00     0.070 A 
ENDROOT
BRANCH   1  14
HETATM   14  N   UNL     1     -41.732  56.865 -54.853  1.00  0.00    -0.324 N 
HETATM   15  C   UNL     1     -43.047  57.175 -55.161  1.00  0.00     0.226 C 
HETATM   16  O   UNL     1     -44.034  56.690 -54.611  1.00  0.00    -0.273 OA
HETATM   17  H   UNL     1     -41.067  57.629 -54.919  1.00  0.00     0.169 HD
BRANCH  15  18
HETATM   18  C   UNL     1     -43.205  58.152 -56.309  1.00  0.00     0.144 C 
BRANCH  18  19
HETATM   19  C   UNL     1     -42.873  57.619 -57.680  1.00  0.00    -0.016 A 
HETATM   20  C   UNL     1     -42.056  58.331 -58.567  1.00  0.00     0.074 A 
HETATM   21  C   UNL     1     -41.738  57.817 -59.825  1.00  0.00     0.037 A 
HETATM   22  C   UNL     1     -42.210  56.560 -60.198  1.00  0.00     0.003 A 
HETATM   23  C   UNL     1     -43.022  55.835 -59.327  1.00  0.00     0.001 A 
HETATM   24  C   UNL     1     -43.359  56.365 -58.078  1.00  0.00     0.010 A 
BRANCH  20  25
HETATM   25  O   UNL     1     -41.641  59.593 -58.231  1.00  0.00    -0.355 OA
HETATM   26  C   UNL     1     -41.976  60.522 -59.265  1.00  0.00     0.210 C 
ENDBRANCH  20  25
ENDBRANCH  18  19
ENDBRANCH  15  18
ENDBRANCH   1  14
BRANCH   2  27
HETATM   27  O   UNL     1     -41.662  56.773 -51.970  1.00  0.00    -0.354 OA
HETATM   28  C   UNL     1     -41.097  56.680 -50.662  1.00  0.00     0.210 C 
ENDBRANCH   2  27
TORSDOF 5
ENDMDL
MODEL 3
REMARK VINA RESULT:      -8.0      2.919      5.754
REMARK  5 active torsions:
REMARK  status: ('A' for Active; 'I' for Inactive)
REMARK    1  A    between atoms: O_2  and  C_3 
REMARK    2  A    between atoms: C_4  and  C_5 
REMARK    3  A    between atoms: C_5  and  C_6 
REMARK       I    between atoms: C_6  and  N_7 
REMARK    4  A    between atoms: N_7  and  C_8 
REMARK    5  A    between atoms: C_9  and  O_10 
ROOT
HETATM    1  C   UNL     1     -42.105  56.984 -54.152  1.00  0.00     0.071 A 
HETATM    2  C   UNL     1     -41.957  56.215 -55.323  1.00  0.00     0.096 A 
HETATM    3  C   UNL     1     -41.483  54.895 -55.289  1.00  0.00     0.054 A 
HETATM    4  C   UNL     1     -41.086  54.361 -54.053  1.00  0.00     0.014 A 
HETATM    5  C   UNL     1     -41.180  55.165 -52.921  1.00  0.00     0.089 A 
HETATM    6  O   UNL     1     -40.743  54.487 -51.822  1.00  0.00    -0.309 OA
HETATM    7  C   UNL     1     -40.366  53.246 -52.241  1.00  0.00     0.087 A 
HETATM    8  C   UNL     1     -40.553  53.116 -53.613  1.00  0.00     0.011 A 
HETATM    9  C   UNL     1     -39.861  52.234 -51.426  1.00  0.00     0.038 A 
HETATM   10  C   UNL     1     -39.525  51.030 -52.055  1.00  0.00     0.003 A 
HETATM   11  C   UNL     1     -39.692  50.863 -53.434  1.00  0.00     0.001 A 
HETATM   12  C   UNL     1     -40.205  51.898 -54.228  1.00  0.00     0.015 A 
HETATM   13  C   UNL     1     -41.659  56.477 -52.924  1.00  0.00     0.070 A 
ENDROOT
BRANCH   1  14
HETATM   14  N   UNL     1     -42.614  58.301 -54.179  1.00  0.00    -0.324 N 
HETATM   15  C   UNL     1     -41.864  59.421 -53.857  1.00  0.00     0.226 C 
HETATM   16  O   UNL     1     -40.635  59.461 -53.818  1.00  0.00    -0.273 OA
HETATM   17  H   UNL     1     -43.468  58.472 -54.698  1.00  0.00     0.169 HD
BRANCH  15  18
HETATM   18  C   UNL     1     -42.687  60.638 -53.484  1.00  0.00     0.144 C 
BRANCH  18  19
HETATM   19  C   UNL     1     -43.678  60.446 -52.365  1.00  0.00    -0.016 A 
HETATM   20  C   UNL     1     -43.321  60.645 -51.024  1.00  0.00     0.074 A 
HETATM   21  C   UNL     1     -44.254  60.486 -49.998  1.00  0.00     0.037 A 
HETATM   22  C   UNL     1     -45.572  60.155 -50.307  1.00  0.00     0.003 A 
HETATM   23  C   UNL     1     -45.946  59.955 -51.635  1.00  0.00     0.001 A 
HETATM   24  C   UNL     1     -45.003  60.092 -52.658  1.00  0.00     0.010 A 
BRANCH  20  25
HETATM   25  O   UNL     1     -42.013  60.908 -50.712  1.00  0.00    -0.355 OA
HETATM   26  C   UNL     1     -41.379  59.738 -50.188  1.00  0.00     0.210 C 
ENDBRANCH  20  25
ENDBRANCH  18  19
ENDBRANCH  15  18
ENDBRANCH   1  14
BRANCH   2  27
HETATM   27  O   UNL     1     -42.211  56.738 -56.570  1.00  0.00    -0.354 OA
HETATM   28  C   UNL     1     -42.979  55.814 -57.342  1.00  0.00     0.210 C 
ENDBRANCH   2  27
TORSDOF 5
ENDMDL
MODEL 4
REMARK VINA RESULT:      -8.0      2.814      8.920
REMARK  5 active torsions:
REMARK  status: ('A' for Active; 'I' for Inactive)
REMARK    1  A    between atoms: O_2  and  C_3 
REMARK    2  A    between atoms: C_4  and  C_5 
REMARK    3  A    between atoms: C_5  and  C_6 
REMARK       I    between atoms: C_6  and  N_7 
REMARK    4  A    between atoms: N_7  and  C_8 
REMARK    5  A    between atoms: C_9  and  O_10 
ROOT
HETATM    1  C   UNL     1     -42.879  56.537 -57.154  1.00  0.00     0.071 A 
HETATM    2  C   UNL     1     -43.125  56.237 -58.507  1.00  0.00     0.096 A 
HETATM    3  C   UNL     1     -42.854  57.154 -59.532  1.00  0.00     0.054 A 
HETATM    4  C   UNL     1     -42.385  58.429 -59.179  1.00  0.00     0.014 A 
HETATM    5  C   UNL     1     -42.214  58.723 -57.830  1.00  0.00     0.089 A 
HETATM    6  O   UNL     1     -41.765  60.002 -57.678  1.00  0.00    -0.309 OA
HETATM    7  C   UNL     1     -41.648  60.536 -58.927  1.00  0.00     0.087 A 
HETATM    8  C   UNL     1     -42.023  59.608 -59.892  1.00  0.00     0.011 A 
HETATM    9  C   UNL     1     -41.216  61.829 -59.218  1.00  0.00     0.038 A 
HETATM   10  C   UNL     1     -41.173  62.187 -60.570  1.00  0.00     0.003 A 
HETATM   11  C   UNL     1     -41.548  61.284 -61.569  1.00  0.00     0.001 A 
HETATM   12  C   UNL     1     -41.977  59.989 -61.247  1.00  0.00     0.015 A 
HETATM   13  C   UNL     1     -42.463  57.825 -56.789  1.00  0.00     0.070 A 
ENDROOT
BRANCH   1  14
HETATM   14  N   UNL     1     -43.119  55.604 -56.121  1.00  0.00    -0.324 N 
HETATM   15  C   UNL     1     -42.114  55.017 -55.368  1.00  0.00     0.226 C 
HETATM   16  O   UNL     1     -40.963  55.440 -55.274  1.00  0.00    -0.273 OA
HETATM   17  H   UNL     1     -44.054  55.552 -55.733  1.00  0.00     0.169 HD
BRANCH  15  18
HETATM   18  C   UNL     1     -42.523  53.732 -54.676  1.00  0.00     0.144 C 
BRANCH  18  19
HETATM   19  C   UNL     1     -41.471  53.086 -53.810  1.00  0.00    -0.016 A 
HETATM   20  C   UNL     1     -41.310  53.437 -52.463  1.00  0.00     0.074 A 
HETATM   21  C   UNL     1     -40.348  52.816 -51.666  1.00  0.00     0.037 A 
HETATM   22  C   UNL     1     -39.552  51.806 -52.203  1.00  0.00     0.003 A 
HETATM   23  C   UNL     1     -39.700  51.440 -53.540  1.00  0.00     0.001 A 
HETATM   24  C   UNL     1     -40.648  52.082 -54.342  1.00  0.00     0.010 A 
BRANCH  20  25
HETATM   25  O   UNL     1     -42.046  54.473 -51.949  1.00  0.00    -0.355 OA
HETATM   26  C   UNL     1     -41.199  55.391 -51.255  1.00  0.00     0.210 C 
ENDBRANCH  20  25
ENDBRANCH  18  19
ENDBRANCH  15  18
ENDBRANCH   1  14
BRANCH   2  27
HETATM   27  O   UNL     1     -43.704  55.049 -58.892  1.00  0.00    -0.354 OA
HETATM   28  C   UNL     1     -44.267  55.179 -60.198  1.00  0.00     0.210 C 
ENDBRANCH   2  27
TORSDOF 5
ENDMDL
MODEL 5
REMARK VINA RESULT:      -7.9      1.622      2.350
REMARK  5 active torsions:
REMARK  status: ('A' for Active; 'I' for Inactive)
REMARK    1  A    between atoms: O_2  and  C_3 
REMARK    2  A    between atoms: C_4  and  C_5 
REMARK    3  A    between atoms: C_5  and  C_6 
REMARK       I    between atoms: C_6  and  N_7 
REMARK    4  A    between atoms: N_7  and  C_8 
REMARK    5  A    between atoms: C_9  and  O_10 
ROOT
HETATM    1  C   UNL     1     -43.194  55.649 -55.374  1.00  0.00     0.071 A 
HETATM    2  C   UNL     1     -43.583  55.928 -54.050  1.00  0.00     0.096 A 
HETATM    3  C   UNL     1     -43.000  55.279 -52.952  1.00  0.00     0.054 A 
HETATM    4  C   UNL     1     -42.048  54.277 -53.199  1.00  0.00     0.014 A 
HETATM    5  C   UNL     1     -41.730  53.975 -54.519  1.00  0.00     0.089 A 
HETATM    6  O   UNL     1     -40.801  52.977 -54.564  1.00  0.00    -0.309 OA
HETATM    7  C   UNL     1     -40.520  52.633 -53.275  1.00  0.00     0.087 A 
HETATM    8  C   UNL     1     -41.267  53.403 -52.390  1.00  0.00     0.011 A 
HETATM    9  C   UNL     1     -39.615  51.650 -52.878  1.00  0.00     0.038 A 
HETATM   10  C   UNL     1     -39.476  51.445 -51.501  1.00  0.00     0.003 A 
HETATM   11  C   UNL     1     -40.214  52.194 -50.580  1.00  0.00     0.001 A 
HETATM   12  C   UNL     1     -41.115  53.178 -51.009  1.00  0.00     0.015 A 
HETATM   13  C   UNL     1     -42.285  54.613 -55.630  1.00  0.00     0.070 A 
ENDROOT
BRANCH   1  14
HETATM   14  N   UNL     1     -43.754  56.325 -56.480  1.00  0.00    -0.324 N 
HETATM   15  C   UNL     1     -43.467  57.642 -56.802  1.00  0.00     0.226 C 
HETATM   16  O   UNL     1     -42.497  58.275 -56.387  1.00  0.00    -0.273 OA
HETATM   17  H   UNL     1     -44.172  55.768 -57.218  1.00  0.00     0.169 HD
BRANCH  15  18
HETATM   18  C   UNL     1     -44.499  58.306 -57.691  1.00  0.00     0.144 C 
BRANCH  18  19
HETATM   19  C   UNL     1     -45.042  57.461 -58.816  1.00  0.00    -0.016 A 
HETATM   20  C   UNL     1     -44.198  56.714 -59.648  1.00  0.00     0.074 A 
HETATM   21  C   UNL     1     -44.715  55.918 -60.672  1.00  0.00     0.037 A 
HETATM   22  C   UNL     1     -46.094  55.835 -60.854  1.00  0.00     0.003 A 
HETATM   23  C   UNL     1     -46.950  56.569 -60.033  1.00  0.00     0.001 A 
HETATM   24  C   UNL     1     -46.427  57.384 -59.025  1.00  0.00     0.010 A 
BRANCH  20  25
HETATM   25  O   UNL     1     -42.840  56.842 -59.514  1.00  0.00    -0.355 OA
HETATM   26  C   UNL     1     -42.332  57.792 -60.454  1.00  0.00     0.210 C 
ENDBRANCH  20  25
ENDBRANCH  18  19
ENDBRANCH  15  18
ENDBRANCH   1  14
BRANCH   2  27
HETATM   27  O   UNL     1     -44.603  56.808 -53.765  1.00  0.00    -0.354 OA
HETATM   28  C   UNL     1     -44.204  57.697 -52.721  1.00  0.00     0.210 C 
ENDBRANCH   2  27
TORSDOF 5
ENDMDL
MODEL 6
REMARK VINA RESULT:      -7.7      1.944      3.002
REMARK  5 active torsions:
REMARK  status: ('A' for Active; 'I' for Inactive)
REMARK    1  A    between atoms: O_2  and  C_3 
REMARK    2  A    between atoms: C_4  and  C_5 
REMARK    3  A    between atoms: C_5  and  C_6 
REMARK       I    between atoms: C_6  and  N_7 
REMARK    4  A    between atoms: N_7  and  C_8 
REMARK    5  A    between atoms: C_9  and  O_10 
ROOT
HETATM    1  C   UNL     1     -41.209  55.571 -54.429  1.00  0.00     0.071 A 
HETATM    2  C   UNL     1     -41.224  55.626 -53.022  1.00  0.00     0.096 A 
HETATM    3  C   UNL     1     -40.857  54.527 -52.232  1.00  0.00     0.054 A 
HETATM    4  C   UNL     1     -40.530  53.323 -52.877  1.00  0.00     0.014 A 
HETATM    5  C   UNL     1     -40.587  53.277 -54.266  1.00  0.00     0.089 A 
HETATM    6  O   UNL     1     -40.249  52.033 -54.711  1.00  0.00    -0.309 OA
HETATM    7  C   UNL     1     -39.975  51.275 -53.612  1.00  0.00     0.087 A 
HETATM    8  C   UNL     1     -40.138  52.022 -52.451  1.00  0.00     0.011 A 
HETATM    9  C   UNL     1     -39.586  49.937 -53.628  1.00  0.00     0.038 A 
HETATM   10  C   UNL     1     -39.358  49.335 -52.385  1.00  0.00     0.003 A 
HETATM   11  C   UNL     1     -39.517  50.051 -51.195  1.00  0.00     0.001 A 
HETATM   12  C   UNL     1     -39.907  51.397 -51.210  1.00  0.00     0.015 A 
HETATM   13  C   UNL     1     -40.937  54.359 -55.077  1.00  0.00     0.070 A 
ENDROOT
BRANCH   1  14
HETATM   14  N   UNL     1     -41.546  56.687 -55.227  1.00  0.00    -0.324 N 
HETATM   15  C   UNL     1     -42.463  56.640 -56.265  1.00  0.00     0.226 C 
HETATM   16  O   UNL     1     -43.305  55.757 -56.424  1.00  0.00    -0.273 OA
HETATM   17  H   UNL     1     -41.318  57.611 -54.876  1.00  0.00     0.169 HD
BRANCH  15  18
HETATM   18  C   UNL     1     -42.325  57.765 -57.271  1.00  0.00     0.144 C 
BRANCH  18  19
HETATM   19  C   UNL     1     -43.145  59.000 -56.996  1.00  0.00    -0.016 A 
HETATM   20  C   UNL     1     -42.693  60.004 -56.129  1.00  0.00     0.074 A 
HETATM   21  C   UNL     1     -43.451  61.153 -55.900  1.00  0.00     0.037 A 
HETATM   22  C   UNL     1     -44.663  61.327 -56.566  1.00  0.00     0.003 A 
HETATM   23  C   UNL     1     -45.127  60.341 -57.435  1.00  0.00     0.001 A 
HETATM   24  C   UNL     1     -44.377  59.180 -57.643  1.00  0.00     0.010 A 
BRANCH  20  25
HETATM   25  O   UNL     1     -41.534  59.809 -55.425  1.00  0.00    -0.355 OA
HETATM   26  C   UNL     1     -41.769  59.969 -54.023  1.00  0.00     0.210 C 
ENDBRANCH  20  25
ENDBRANCH  18  19
ENDBRANCH  15  18
ENDBRANCH   1  14
BRANCH   2  27
HETATM   27  O   UNL     1     -41.662  56.742 -52.345  1.00  0.00    -0.354 OA
HETATM   28  C   UNL     1     -42.924  56.478 -51.730  1.00  0.00     0.210 C 
ENDBRANCH   2  27
TORSDOF 5
ENDMDL
MODEL 7
REMARK VINA RESULT:      -7.5      2.473      3.700
REMARK  5 active torsions:
REMARK  status: ('A' for Active; 'I' for Inactive)
REMARK    1  A    between atoms: O_2  and  C_3 
REMARK    2  A    between atoms: C_4  and  C_5 
REMARK    3  A    between atoms: C_5  and  C_6 
REMARK       I    between atoms: C_6  and  N_7 
REMARK    4  A    between atoms: N_7  and  C_8 
REMARK    5  A    between atoms: C_9  and  O_10 
ROOT
HETATM    1  C   UNL     1     -41.427  56.019 -53.326  1.00  0.00     0.071 A 
HETATM    2  C   UNL     1     -41.431  55.460 -54.619  1.00  0.00     0.096 A 
HETATM    3  C   UNL     1     -41.099  54.118 -54.848  1.00  0.00     0.054 A 
HETATM    4  C   UNL     1     -40.689  53.337 -53.756  1.00  0.00     0.014 A 
HETATM    5  C   UNL     1     -40.629  53.931 -52.500  1.00  0.00     0.089 A 
HETATM    6  O   UNL     1     -40.203  53.029 -51.571  1.00  0.00    -0.309 OA
HETATM    7  C   UNL     1     -39.986  51.853 -52.224  1.00  0.00     0.087 A 
HETATM    8  C   UNL     1     -40.265  51.988 -53.579  1.00  0.00     0.011 A 
HETATM    9  C   UNL     1     -39.543  50.669 -51.636  1.00  0.00     0.038 A 
HETATM   10  C   UNL     1     -39.375  49.571 -52.486  1.00  0.00     0.003 A 
HETATM   11  C   UNL     1     -39.640  49.668 -53.856  1.00  0.00     0.001 A 
HETATM   12  C   UNL     1     -40.086  50.872 -54.419  1.00  0.00     0.015 A 
HETATM   13  C   UNL     1     -40.966  55.261 -52.241  1.00  0.00     0.070 A 
ENDROOT
BRANCH   1  14
HETATM   14  N   UNL     1     -41.794  57.362 -53.087  1.00  0.00    -0.324 N 
HETATM   15  C   UNL     1     -43.102  57.818 -53.122  1.00  0.00     0.226 C 
HETATM   16  O   UNL     1     -44.101  57.105 -53.051  1.00  0.00    -0.273 OA
HETATM   17  H   UNL     1     -41.125  57.962 -52.616  1.00  0.00     0.169 HD
BRANCH  15  18
HETATM   18  C   UNL     1     -43.235  59.315 -53.319  1.00  0.00     0.144 C 
BRANCH  18  19
HETATM   19  C   UNL     1     -43.269  59.792 -54.749  1.00  0.00    -0.016 A 
HETATM   20  C   UNL     1     -44.424  60.356 -55.308  1.00  0.00     0.074 A 
HETATM   21  C   UNL     1     -44.437  60.814 -56.626  1.00  0.00     0.037 A 
HETATM   22  C   UNL     1     -43.276  60.743 -57.394  1.00  0.00     0.003 A 
HETATM   23  C   UNL     1     -42.117  60.188 -56.854  1.00  0.00     0.001 A 
HETATM   24  C   UNL     1     -42.115  59.708 -55.542  1.00  0.00     0.010 A 
BRANCH  20  25
HETATM   25  O   UNL     1     -45.584  60.370 -54.578  1.00  0.00    -0.355 OA
HETATM   26  C   UNL     1     -46.129  61.691 -54.532  1.00  0.00     0.210 C 
ENDBRANCH  20  25
ENDBRANCH  18  19
ENDBRANCH  15  18
ENDBRANCH   1  14
BRANCH   2  27
HETATM   27  O   UNL     1     -41.700  56.220 -55.735  1.00  0.00    -0.354 OA
HETATM   28  C   UNL     1     -42.820  55.678 -56.437  1.00  0.00     0.210 C 
ENDBRANCH   2  27
TORSDOF 5
ENDMDL
MODEL 8
REMARK VINA RESULT:      -7.3      1.791      8.622
REMARK  5 active torsions:
REMARK  status: ('A' for Active; 'I' for Inactive)
REMARK    1  A    between atoms: O_2  and  C_3 
REMARK    2  A    between atoms: C_4  and  C_5 
REMARK    3  A    between atoms: C_5  and  C_6 
REMARK       I    between atoms: C_6  and  N_7 
REMARK    4  A    between atoms: N_7  and  C_8 
REMARK    5  A    between atoms: C_9  and  O_10 
ROOT
HETATM    1  C   UNL     1     -42.869  56.598 -55.734  1.00  0.00     0.071 A 
HETATM    2  C   UNL     1     -43.531  57.669 -55.104  1.00  0.00     0.096 A 
HETATM    3  C   UNL     1     -44.572  58.369 -55.729  1.00  0.00     0.054 A 
HETATM    4  C   UNL     1     -44.910  58.024 -57.047  1.00  0.00     0.014 A 
HETATM    5  C   UNL     1     -44.195  57.006 -57.671  1.00  0.00     0.089 A 
HETATM    6  O   UNL     1     -44.653  56.818 -58.941  1.00  0.00    -0.309 OA
HETATM    7  C   UNL     1     -45.661  57.714 -59.141  1.00  0.00     0.087 A 
HETATM    8  C   UNL     1     -45.858  58.488 -58.003  1.00  0.00     0.011 A 
HETATM    9  C   UNL     1     -46.401  57.852 -60.314  1.00  0.00     0.038 A 
HETATM   10  C   UNL     1     -47.392  58.840 -60.318  1.00  0.00     0.003 A 
HETATM   11  C   UNL     1     -47.617  59.644 -59.196  1.00  0.00     0.001 A 
HETATM   12  C   UNL     1     -46.857  59.480 -58.029  1.00  0.00     0.015 A 
HETATM   13  C   UNL     1     -43.163  56.284 -57.068  1.00  0.00     0.070 A 
ENDROOT
BRANCH   1  14
HETATM   14  N   UNL     1     -41.842  55.868 -55.094  1.00  0.00    -0.324 N 
HETATM   15  C   UNL     1     -42.074  54.911 -54.120  1.00  0.00     0.226 C 
HETATM   16  O   UNL     1     -43.154  54.360 -53.913  1.00  0.00    -0.273 OA
HETATM   17  H   UNL     1     -40.929  55.843 -55.535  1.00  0.00     0.169 HD
BRANCH  15  18
HETATM   18  C   UNL     1     -40.874  54.609 -53.244  1.00  0.00     0.144 C 
BRANCH  18  19
HETATM   19  C   UNL     1     -40.431  53.168 -53.207  1.00  0.00    -0.016 A 
HETATM   20  C   UNL     1     -39.892  52.594 -52.047  1.00  0.00     0.074 A 
HETATM   21  C   UNL     1     -39.506  51.253 -52.018  1.00  0.00     0.037 A 
HETATM   22  C   UNL     1     -39.687  50.457 -53.147  1.00  0.00     0.003 A 
HETATM   23  C   UNL     1     -40.224  51.009 -54.309  1.00  0.00     0.001 A 
HETATM   24  C   UNL     1     -40.587  52.359 -54.342  1.00  0.00     0.010 A 
BRANCH  20  25
HETATM   25  O   UNL     1     -39.654  53.388 -50.956  1.00  0.00    -0.355 OA
HETATM   26  C   UNL     1     -40.503  53.012 -49.868  1.00  0.00     0.210 C 
ENDBRANCH  20  25
ENDBRANCH  18  19
ENDBRANCH  15  18
ENDBRANCH   1  14
BRANCH   2  27
HETATM   27  O   UNL     1     -43.148  58.128 -53.864  1.00  0.00    -0.354 OA
HETATM   28  C   UNL     1     -42.504  59.396 -53.988  1.00  0.00     0.210 C 
ENDBRANCH   2  27
TORSDOF 5
ENDMDL
MODEL 9
REMARK VINA RESULT:      -7.3     14.477     17.026
REMARK  5 active torsions:
REMARK  status: ('A' for Active; 'I' for Inactive)
REMARK    1  A    between atoms: O_2  and  C_3 
REMARK    2  A    between atoms: C_4  and  C_5 
REMARK    3  A    between atoms: C_5  and  C_6 
REMARK       I    between atoms: C_6  and  N_7 
REMARK    4  A    between atoms: N_7  and  C_8 
REMARK    5  A    between atoms: C_9  and  O_10 
ROOT
HETATM    1  C   UNL     1     -34.011  40.592 -52.465  1.00  0.00     0.071 A 
HETATM    2  C   UNL     1     -34.992  39.691 -52.006  1.00  0.00     0.096 A 
HETATM    3  C   UNL     1     -34.891  39.057 -50.759  1.00  0.00     0.054 A 
HETATM    4  C   UNL     1     -33.742  39.286 -49.986  1.00  0.00     0.014 A 
HETATM    5  C   UNL     1     -32.757  40.128 -50.493  1.00  0.00     0.089 A 
HETATM    6  O   UNL     1     -31.719  40.222 -49.615  1.00  0.00    -0.309 OA
HETATM    7  C   UNL     1     -32.029  39.441 -48.542  1.00  0.00     0.087 A 
HETATM    8  C   UNL     1     -33.267  38.834 -48.721  1.00  0.00     0.011 A 
HETATM    9  C   UNL     1     -31.231  39.260 -47.414  1.00  0.00     0.038 A 
HETATM   10  C   UNL     1     -31.729  38.408 -46.422  1.00  0.00     0.003 A 
HETATM   11  C   UNL     1     -32.967  37.774 -46.568  1.00  0.00     0.001 A 
HETATM   12  C   UNL     1     -33.749  37.977 -47.714  1.00  0.00     0.015 A 
HETATM   13  C   UNL     1     -32.837  40.782 -51.724  1.00  0.00     0.070 A 
ENDROOT
BRANCH   1  14
HETATM   14  N   UNL     1     -34.126  41.259 -53.705  1.00  0.00    -0.324 N 
HETATM   15  C   UNL     1     -35.119  42.182 -53.991  1.00  0.00     0.226 C 
HETATM   16  O   UNL     1     -35.808  42.761 -53.153  1.00  0.00    -0.273 OA
HETATM   17  H   UNL     1     -33.317  41.271 -54.316  1.00  0.00     0.169 HD
BRANCH  15  18
HETATM   18  C   UNL     1     -35.354  42.407 -55.471  1.00  0.00     0.144 C 
BRANCH  18  19
HETATM   19  C   UNL     1     -36.246  41.402 -56.157  1.00  0.00    -0.016 A 
HETATM   20  C   UNL     1     -35.766  40.148 -56.558  1.00  0.00     0.074 A 
HETATM   21  C   UNL     1     -36.607  39.218 -57.173  1.00  0.00     0.037 A 
HETATM   22  C   UNL     1     -37.953  39.522 -57.363  1.00  0.00     0.003 A 
HETATM   23  C   UNL     1     -38.449  40.763 -56.967  1.00  0.00     0.001 A 
HETATM   24  C   UNL     1     -37.598  41.702 -56.375  1.00  0.00     0.010 A 
BRANCH  20  25
HETATM   25  O   UNL     1     -34.431  39.869 -56.431  1.00  0.00    -0.355 OA
HETATM   26  C   UNL     1     -34.239  38.509 -56.035  1.00  0.00     0.210 C 
ENDBRANCH  20  25
ENDBRANCH  18  19
ENDBRANCH  15  18
ENDBRANCH   1  14
BRANCH   2  27
HETATM   27  O   UNL     1     -36.070  39.336 -52.783  1.00  0.00    -0.354 OA
HETATM   28  C   UNL     1     -37.287  39.679 -52.118  1.00  0.00     0.210 C 
ENDBRANCH   2  27
TORSDOF 5
ENDMDL
MODEL 10
REMARK VINA RESULT:      -7.2      3.581      5.445
REMARK  5 active torsions:
REMARK  status: ('A' for Active; 'I' for Inactive)
REMARK    1  A    between atoms: O_2  and  C_3 
REMARK    2  A    between atoms: C_4  and  C_5 
REMARK    3  A    between atoms: C_5  and  C_6 
REMARK       I    between atoms: C_6  and  N_7 
REMARK    4  A    between atoms: N_7  and  C_8 
REMARK    5  A    between atoms: C_9  and  O_10 
ROOT
HETATM    1  C   UNL     1     -42.259  56.684 -53.559  1.00  0.00     0.071 A 
HETATM    2  C   UNL     1     -41.882  56.484 -52.217  1.00  0.00     0.096 A 
HETATM    3  C   UNL     1     -41.255  55.305 -51.790  1.00  0.00     0.054 A 
HETATM    4  C   UNL     1     -41.063  54.276 -52.725  1.00  0.00     0.014 A 
HETATM    5  C   UNL     1     -41.505  54.473 -54.030  1.00  0.00     0.089 A 
HETATM    6  O   UNL     1     -41.245  53.371 -54.788  1.00  0.00    -0.309 OA
HETATM    7  C   UNL     1     -40.637  52.460 -53.977  1.00  0.00     0.087 A 
HETATM    8  C   UNL     1     -40.504  52.966 -52.688  1.00  0.00     0.011 A 
HETATM    9  C   UNL     1     -40.203  51.193 -54.363  1.00  0.00     0.038 A 
HETATM   10  C   UNL     1     -39.607  50.405 -53.372  1.00  0.00     0.003 A 
HETATM   11  C   UNL     1     -39.461  50.876 -52.064  1.00  0.00     0.001 A 
HETATM   12  C   UNL     1     -39.905  52.156 -51.705  1.00  0.00     0.015 A 
HETATM   13  C   UNL     1     -42.121  55.641 -54.485  1.00  0.00     0.070 A 
ENDROOT
BRANCH   1  14
HETATM   14  N   UNL     1     -42.860  57.884 -53.999  1.00  0.00    -0.324 N 
HETATM   15  C   UNL     1     -42.184  59.089 -54.101  1.00  0.00     0.226 C 
HETATM   16  O   UNL     1     -40.961  59.212 -54.130  1.00  0.00    -0.273 OA
HETATM   17  H   UNL     1     -43.735  57.820 -54.509  1.00  0.00     0.169 HD
BRANCH  15  18
HETATM   18  C   UNL     1     -43.083  60.309 -54.118  1.00  0.00     0.144 C 
BRANCH  18  19
HETATM   19  C   UNL     1     -43.031  61.184 -52.891  1.00  0.00    -0.016 A 
HETATM   20  C   UNL     1     -43.227  62.570 -52.967  1.00  0.00     0.074 A 
HETATM   21  C   UNL     1     -43.199  63.366 -51.821  1.00  0.00     0.037 A 
HETATM   22  C   UNL     1     -43.006  62.776 -50.573  1.00  0.00     0.003 A 
HETATM   23  C   UNL     1     -42.812  61.399 -50.478  1.00  0.00     0.001 A 
HETATM   24  C   UNL     1     -42.816  60.608 -51.630  1.00  0.00     0.010 A 
BRANCH  20  25
HETATM   25  O   UNL     1     -43.354  63.162 -54.196  1.00  0.00    -0.355 OA
HETATM   26  C   UNL     1     -44.636  63.783 -54.322  1.00  0.00     0.210 C 
ENDBRANCH  20  25
ENDBRANCH  18  19
ENDBRANCH  15  18
ENDBRANCH   1  14
BRANCH   2  27
HETATM   27  O   UNL     1     -42.167  57.410 -51.239  1.00  0.00    -0.354 OA
HETATM   28  C   UNL     1     -40.993  57.691 -50.475  1.00  0.00     0.210 C 
ENDBRANCH   2  27
TORSDOF 5
ENDMDL
