MODEL 1
REMARK VINA RESULT:      -7.1      0.000      0.000
REMARK  6 active torsions:
REMARK  status: ('A' for Active; 'I' for Inactive)
REMARK    1  A    between atoms: C_2  and  O_3 
REMARK    2  A    between atoms: O_3  and  C_4 
REMARK    3  A    between atoms: C_4  and  C_5 
REMARK    4  A    between atoms: C_6  and  O_7 
REMARK    5  A    between atoms: C_12  and  O_13 
REMARK    6  A    between atoms: C_17  and  C_18 
ROOT
HETATM    1  C   UNL     1     -40.885  55.066 -53.688  1.00  0.00     0.133 C 
HETATM    2  C   UNL     1     -41.204  53.967 -54.754  1.00  0.00     0.073 C 
HETATM    3  C   UNL     1     -41.093  52.536 -54.204  1.00  0.00     0.047 C 
HETATM    4  C   UNL     1     -42.594  54.149 -55.432  1.00  0.00     0.097 C 
HETATM    5  C   UNL     1     -42.777  55.572 -55.804  1.00  0.00     0.042 A 
HETATM    6  C   UNL     1     -42.137  56.657 -55.247  1.00  0.00     0.030 A 
HETATM    7  C   UNL     1     -42.605  57.733 -56.020  1.00  0.00     0.190 A 
HETATM    8  N   UNL     1     -43.476  57.379 -56.958  1.00  0.00    -0.149 NA
HETATM    9  N   UNL     1     -43.560  56.045 -56.815  1.00  0.00    -0.279 N 
HETATM   10  H   UNL     1     -44.155  55.530 -57.455  1.00  0.00     0.189 HD
HETATM   11  C   UNL     1     -41.122  56.537 -54.159  1.00  0.00     0.074 C 
ENDROOT
BRANCH  11  12
HETATM   12  C   UNL     1     -41.513  57.532 -53.072  1.00  0.00    -0.048 A 
HETATM   13  C   UNL     1     -42.844  57.692 -52.633  1.00  0.00     0.011 A 
HETATM   14  C   UNL     1     -43.166  58.607 -51.632  1.00  0.00     0.043 A 
HETATM   15  C   UNL     1     -42.161  59.363 -51.049  1.00  0.00     0.116 A 
HETATM   16  F   UNL     1     -42.467  60.238 -50.083  1.00  0.00    -0.206 F 
HETATM   17  C   UNL     1     -40.838  59.218 -51.450  1.00  0.00     0.043 A 
HETATM   18  C   UNL     1     -40.513  58.304 -52.455  1.00  0.00     0.011 A 
ENDBRANCH  11  12
BRANCH   1  19
HETATM   19  C   UNL     1     -41.560  54.749 -52.369  1.00  0.00     0.267 C 
HETATM   20  O   UNL     1     -42.756  54.547 -52.216  1.00  0.00    -0.265 OA
BRANCH  19  21
HETATM   21  O   UNL     1     -40.614  54.673 -51.389  1.00  0.00    -0.316 OA
BRANCH  21  22
HETATM   22  C   UNL     1     -41.076  54.629 -50.026  1.00  0.00     0.123 C 
HETATM   23  C   UNL     1     -41.334  56.044 -49.528  1.00  0.00     0.040 C 
HETATM   24  C   UNL     1     -39.973  53.964 -49.211  1.00  0.00     0.040 C 
ENDBRANCH  21  22
ENDBRANCH  19  21
ENDBRANCH   1  19
BRANCH   2  25
HETATM   25  O   UNL     1     -40.203  54.068 -55.794  1.00  0.00    -0.389 OA
HETATM   26  H   UNL     1     -39.961  55.004 -55.908  1.00  0.00     0.210 HD
ENDBRANCH   2  25
BRANCH   7  27
HETATM   27  O   UNL     1     -42.307  59.032 -55.946  1.00  0.00    -0.343 OA
HETATM   28  H   UNL     1     -42.630  59.483 -56.740  1.00  0.00     0.219 HD
ENDBRANCH   7  27
TORSDOF 6
ENDMDL
MODEL 2
REMARK VINA RESULT:      -7.0      3.650      5.827
REMARK  6 active torsions:
REMARK  status: ('A' for Active; 'I' for Inactive)
REMARK    1  A    between atoms: C_2  and  O_3 
REMARK    2  A    between atoms: O_3  and  C_4 
REMARK    3  A    between atoms: C_4  and  C_5 
REMARK    4  A    between atoms: C_6  and  O_7 
REMARK    5  A    between atoms: C_12  and  O_13 
REMARK    6  A    between atoms: C_17  and  C_18 
ROOT
HETATM    1  C   UNL     1     -40.727  54.823 -50.940  1.00  0.00     0.133 C 
HETATM    2  C   UNL     1     -40.377  54.135 -49.579  1.00  0.00     0.073 C 
HETATM    3  C   UNL     1     -41.016  54.829 -48.365  1.00  0.00     0.047 C 
HETATM    4  C   UNL     1     -40.728  52.619 -49.545  1.00  0.00     0.097 C 
HETATM    5  C   UNL     1     -40.268  51.980 -50.801  1.00  0.00     0.042 A 
HETATM    6  C   UNL     1     -40.039  52.606 -52.006  1.00  0.00     0.030 A 
HETATM    7  C   UNL     1     -39.539  51.568 -52.813  1.00  0.00     0.190 A 
HETATM    8  N   UNL     1     -39.479  50.393 -52.197  1.00  0.00    -0.149 NA
HETATM    9  N   UNL     1     -39.922  50.671 -50.959  1.00  0.00    -0.279 N 
HETATM   10  H   UNL     1     -39.940  49.920 -50.276  1.00  0.00     0.189 HD
HETATM   11  C   UNL     1     -40.219  54.073 -52.213  1.00  0.00     0.074 C 
ENDROOT
BRANCH  11  12
HETATM   12  C   UNL     1     -41.060  54.248 -53.472  1.00  0.00    -0.048 A 
HETATM   13  C   UNL     1     -42.221  53.486 -53.720  1.00  0.00     0.011 A 
HETATM   14  C   UNL     1     -42.971  53.675 -54.880  1.00  0.00     0.043 A 
HETATM   15  C   UNL     1     -42.578  54.636 -55.798  1.00  0.00     0.116 A 
HETATM   16  F   UNL     1     -43.301  54.825 -56.909  1.00  0.00    -0.206 F 
HETATM   17  C   UNL     1     -41.447  55.413 -55.575  1.00  0.00     0.043 A 
HETATM   18  C   UNL     1     -40.691  55.223 -54.416  1.00  0.00     0.011 A 
ENDBRANCH  11  12
BRANCH   1  19
HETATM   19  C   UNL     1     -42.201  55.170 -51.005  1.00  0.00     0.267 C 
HETATM   20  O   UNL     1     -43.121  54.399 -50.777  1.00  0.00    -0.265 OA
BRANCH  19  21
HETATM   21  O   UNL     1     -42.334  56.495 -51.305  1.00  0.00    -0.316 OA
BRANCH  21  22
HETATM   22  C   UNL     1     -43.444  56.873 -52.141  1.00  0.00     0.123 C 
HETATM   23  C   UNL     1     -42.973  57.865 -53.196  1.00  0.00     0.040 C 
HETATM   24  C   UNL     1     -44.484  57.511 -51.228  1.00  0.00     0.040 C 
ENDBRANCH  21  22
ENDBRANCH  19  21
ENDBRANCH   1  19
BRANCH   2  25
HETATM   25  O   UNL     1     -38.947  54.250 -49.391  1.00  0.00    -0.389 OA
HETATM   26  H   UNL     1     -38.595  54.887 -50.037  1.00  0.00     0.210 HD
ENDBRANCH   2  25
BRANCH   7  27
HETATM   27  O   UNL     1     -39.127  51.596 -54.082  1.00  0.00    -0.343 OA
HETATM   28  H   UNL     1     -39.862  51.349 -54.665  1.00  0.00     0.219 HD
ENDBRANCH   7  27
TORSDOF 6
ENDMDL
MODEL 3
REMARK VINA RESULT:      -6.7      2.555      4.601
REMARK  6 active torsions:
REMARK  status: ('A' for Active; 'I' for Inactive)
REMARK    1  A    between atoms: C_2  and  O_3 
REMARK    2  A    between atoms: O_3  and  C_4 
REMARK    3  A    between atoms: C_4  and  C_5 
REMARK    4  A    between atoms: C_6  and  O_7 
REMARK    5  A    between atoms: C_12  and  O_13 
REMARK    6  A    between atoms: C_17  and  C_18 
ROOT
HETATM    1  C   UNL     1     -42.984  58.187 -53.997  1.00  0.00     0.133 C 
HETATM    2  C   UNL     1     -43.073  59.332 -55.059  1.00  0.00     0.073 C 
HETATM    3  C   UNL     1     -42.665  60.707 -54.506  1.00  0.00     0.047 C 
HETATM    4  C   UNL     1     -42.260  59.038 -56.353  1.00  0.00     0.097 C 
HETATM    5  C   UNL     1     -42.516  57.645 -56.790  1.00  0.00     0.042 A 
HETATM    6  C   UNL     1     -42.954  56.604 -56.002  1.00  0.00     0.030 A 
HETATM    7  C   UNL     1     -43.114  55.553 -56.922  1.00  0.00     0.190 A 
HETATM    8  N   UNL     1     -42.788  55.880 -58.168  1.00  0.00    -0.149 NA
HETATM    9  N   UNL     1     -42.433  57.173 -58.066  1.00  0.00    -0.279 N 
HETATM   10  H   UNL     1     -42.166  57.665 -58.911  1.00  0.00     0.189 HD
HETATM   11  C   UNL     1     -43.252  56.749 -54.546  1.00  0.00     0.074 C 
ENDROOT
BRANCH  11  12
HETATM   12  C   UNL     1     -42.532  55.614 -53.827  1.00  0.00    -0.048 A 
HETATM   13  C   UNL     1     -41.223  55.211 -54.166  1.00  0.00     0.011 A 
HETATM   14  C   UNL     1     -40.591  54.172 -53.484  1.00  0.00     0.043 A 
HETATM   15  C   UNL     1     -41.254  53.534 -52.446  1.00  0.00     0.116 A 
HETATM   16  F   UNL     1     -40.646  52.541 -51.784  1.00  0.00    -0.206 F 
HETATM   17  C   UNL     1     -42.538  53.918 -52.079  1.00  0.00     0.043 A 
HETATM   18  C   UNL     1     -43.175  54.956 -52.763  1.00  0.00     0.011 A 
ENDBRANCH  11  12
BRANCH   1  19
HETATM   19  C   UNL     1     -41.698  58.289 -53.202  1.00  0.00     0.267 C 
HETATM   20  O   UNL     1     -40.578  58.404 -53.678  1.00  0.00    -0.265 OA
BRANCH  19  21
HETATM   21  O   UNL     1     -41.994  58.285 -51.870  1.00  0.00    -0.316 OA
BRANCH  21  22
HETATM   22  C   UNL     1     -40.909  58.046 -50.953  1.00  0.00     0.123 C 
HETATM   23  C   UNL     1     -41.165  56.758 -50.184  1.00  0.00     0.040 C 
HETATM   24  C   UNL     1     -40.866  59.240 -50.006  1.00  0.00     0.040 C 
ENDBRANCH  21  22
ENDBRANCH  19  21
ENDBRANCH   1  19
BRANCH   2  25
HETATM   25  O   UNL     1     -44.462  59.459 -55.443  1.00  0.00    -0.389 OA
HETATM   26  H   UNL     1     -44.872  60.165 -54.914  1.00  0.00     0.210 HD
ENDBRANCH   2  25
BRANCH   7  27
HETATM   27  O   UNL     1     -43.536  54.303 -56.727  1.00  0.00    -0.343 OA
HETATM   28  H   UNL     1     -43.360  54.043 -55.810  1.00  0.00     0.219 HD
ENDBRANCH   7  27
TORSDOF 6
ENDMDL
MODEL 4
REMARK VINA RESULT:      -6.7      3.091      5.116
REMARK  6 active torsions:
REMARK  status: ('A' for Active; 'I' for Inactive)
REMARK    1  A    between atoms: C_2  and  O_3 
REMARK    2  A    between atoms: O_3  and  C_4 
REMARK    3  A    between atoms: C_4  and  C_5 
REMARK    4  A    between atoms: C_6  and  O_7 
REMARK    5  A    between atoms: C_12  and  O_13 
REMARK    6  A    between atoms: C_17  and  C_18 
ROOT
HETATM    1  C   UNL     1     -42.043  54.027 -51.751  1.00  0.00     0.133 C 
HETATM    2  C   UNL     1     -41.537  54.353 -50.308  1.00  0.00     0.073 C 
HETATM    3  C   UNL     1     -40.532  53.322 -49.768  1.00  0.00     0.047 C 
HETATM    4  C   UNL     1     -40.928  55.779 -50.175  1.00  0.00     0.097 C 
HETATM    5  C   UNL     1     -41.811  56.757 -50.854  1.00  0.00     0.042 A 
HETATM    6  C   UNL     1     -42.721  56.488 -51.853  1.00  0.00     0.030 A 
HETATM    7  C   UNL     1     -43.340  57.732 -52.062  1.00  0.00     0.190 A 
HETATM    8  N   UNL     1     -42.860  58.705 -51.295  1.00  0.00    -0.149 NA
HETATM    9  N   UNL     1     -41.928  58.081 -50.553  1.00  0.00    -0.279 N 
HETATM   10  H   UNL     1     -41.431  58.622 -49.853  1.00  0.00     0.189 HD
HETATM   11  C   UNL     1     -42.955  55.118 -52.398  1.00  0.00     0.074 C 
ENDROOT
BRANCH  11  12
HETATM   12  C   UNL     1     -42.895  55.226 -53.918  1.00  0.00    -0.048 A 
HETATM   13  C   UNL     1     -42.210  56.268 -54.577  1.00  0.00     0.011 A 
HETATM   14  C   UNL     1     -42.169  56.333 -55.969  1.00  0.00     0.043 A 
HETATM   15  C   UNL     1     -42.800  55.351 -56.718  1.00  0.00     0.116 A 
HETATM   16  F   UNL     1     -42.756  55.408 -58.055  1.00  0.00    -0.206 F 
HETATM   17  C   UNL     1     -43.470  54.304 -56.096  1.00  0.00     0.043 A 
HETATM   18  C   UNL     1     -43.515  54.238 -54.702  1.00  0.00     0.011 A 
ENDBRANCH  11  12
BRANCH   1  19
HETATM   19  C   UNL     1     -40.892  53.610 -52.645  1.00  0.00     0.267 C 
HETATM   20  O   UNL     1     -39.990  54.342 -53.026  1.00  0.00    -0.265 OA
BRANCH  19  21
HETATM   21  O   UNL     1     -40.993  52.276 -52.911  1.00  0.00    -0.316 OA
BRANCH  21  22
HETATM   22  C   UNL     1     -39.773  51.561 -53.182  1.00  0.00     0.123 C 
HETATM   23  C   UNL     1     -39.987  50.606 -54.347  1.00  0.00     0.040 C 
HETATM   24  C   UNL     1     -39.425  50.793 -51.912  1.00  0.00     0.040 C 
ENDBRANCH  21  22
ENDBRANCH  19  21
ENDBRANCH   1  19
BRANCH   2  25
HETATM   25  O   UNL     1     -42.679  54.289 -49.423  1.00  0.00    -0.389 OA
HETATM   26  H   UNL     1     -43.239  55.071 -49.576  1.00  0.00     0.210 HD
ENDBRANCH   2  25
BRANCH   7  27
HETATM   27  O   UNL     1     -44.319  58.068 -52.904  1.00  0.00    -0.343 OA
HETATM   28  H   UNL     1     -45.119  57.566 -52.686  1.00  0.00     0.219 HD
ENDBRANCH   7  27
TORSDOF 6
ENDMDL
MODEL 5
REMARK VINA RESULT:      -6.7      2.774      4.784
REMARK  6 active torsions:
REMARK  status: ('A' for Active; 'I' for Inactive)
REMARK    1  A    between atoms: C_2  and  O_3 
REMARK    2  A    between atoms: O_3  and  C_4 
REMARK    3  A    between atoms: C_4  and  C_5 
REMARK    4  A    between atoms: C_6  and  O_7 
REMARK    5  A    between atoms: C_12  and  O_13 
REMARK    6  A    between atoms: C_17  and  C_18 
ROOT
HETATM    1  C   UNL     1     -43.910  57.325 -53.964  1.00  0.00     0.133 C 
HETATM    2  C   UNL     1     -44.365  58.795 -54.243  1.00  0.00     0.073 C 
HETATM    3  C   UNL     1     -44.636  59.601 -52.963  1.00  0.00     0.047 C 
HETATM    4  C   UNL     1     -43.375  59.587 -55.146  1.00  0.00     0.097 C 
HETATM    5  C   UNL     1     -42.971  58.740 -56.294  1.00  0.00     0.042 A 
HETATM    6  C   UNL     1     -43.005  57.364 -56.353  1.00  0.00     0.030 A 
HETATM    7  C   UNL     1     -42.610  57.092 -57.674  1.00  0.00     0.190 A 
HETATM    8  N   UNL     1     -42.326  58.180 -58.382  1.00  0.00    -0.149 NA
HETATM    9  N   UNL     1     -42.564  59.182 -57.517  1.00  0.00    -0.279 N 
HETATM   10  H   UNL     1     -42.445  60.135 -57.843  1.00  0.00     0.189 HD
HETATM   11  C   UNL     1     -43.485  56.509 -55.227  1.00  0.00     0.074 C 
ENDROOT
BRANCH  11  12
HETATM   12  C   UNL     1     -42.431  55.431 -55.004  1.00  0.00    -0.048 A 
HETATM   13  C   UNL     1     -41.049  55.714 -54.983  1.00  0.00     0.011 A 
HETATM   14  C   UNL     1     -40.112  54.704 -54.770  1.00  0.00     0.043 A 
HETATM   15  C   UNL     1     -40.544  53.404 -54.562  1.00  0.00     0.116 A 
HETATM   16  F   UNL     1     -39.646  52.433 -54.350  1.00  0.00    -0.206 F 
HETATM   17  C   UNL     1     -41.900  53.096 -54.562  1.00  0.00     0.043 A 
HETATM   18  C   UNL     1     -42.841  54.105 -54.779  1.00  0.00     0.011 A 
ENDBRANCH  11  12
BRANCH   1  19
HETATM   19  C   UNL     1     -42.876  57.282 -52.855  1.00  0.00     0.267 C 
HETATM   20  O   UNL     1     -41.820  57.897 -52.848  1.00  0.00    -0.265 OA
BRANCH  19  21
HETATM   21  O   UNL     1     -43.338  56.491 -51.844  1.00  0.00    -0.316 OA
BRANCH  21  22
HETATM   22  C   UNL     1     -42.495  55.404 -51.418  1.00  0.00     0.123 C 
HETATM   23  C   UNL     1     -43.341  54.161 -51.187  1.00  0.00     0.040 C 
HETATM   24  C   UNL     1     -41.827  55.851 -50.122  1.00  0.00     0.040 C 
ENDBRANCH  21  22
ENDBRANCH  19  21
ENDBRANCH   1  19
BRANCH   2  25
HETATM   25  O   UNL     1     -45.629  58.731 -54.944  1.00  0.00    -0.389 OA
HETATM   26  H   UNL     1     -45.469  58.424 -55.853  1.00  0.00     0.210 HD
ENDBRANCH   2  25
BRANCH   7  27
HETATM   27  O   UNL     1     -42.481  55.923 -58.304  1.00  0.00    -0.343 OA
HETATM   28  H   UNL     1     -43.337  55.470 -58.322  1.00  0.00     0.219 HD
ENDBRANCH   7  27
TORSDOF 6
ENDMDL
MODEL 6
REMARK VINA RESULT:      -6.6      2.586      4.706
REMARK  6 active torsions:
REMARK  status: ('A' for Active; 'I' for Inactive)
REMARK    1  A    between atoms: C_2  and  O_3 
REMARK    2  A    between atoms: O_3  and  C_4 
REMARK    3  A    between atoms: C_4  and  C_5 
REMARK    4  A    between atoms: C_6  and  O_7 
REMARK    5  A    between atoms: C_12  and  O_13 
REMARK    6  A    between atoms: C_17  and  C_18 
ROOT
HETATM    1  C   UNL     1     -43.324  55.373 -52.571  1.00  0.00     0.133 C 
HETATM    2  C   UNL     1     -43.611  55.774 -54.056  1.00  0.00     0.073 C 
HETATM    3  C   UNL     1     -44.422  57.073 -54.189  1.00  0.00     0.047 C 
HETATM    4  C   UNL     1     -42.325  55.882 -54.926  1.00  0.00     0.097 C 
HETATM    5  C   UNL     1     -41.454  54.712 -54.664  1.00  0.00     0.042 A 
HETATM    6  C   UNL     1     -41.456  53.921 -53.537  1.00  0.00     0.030 A 
HETATM    7  C   UNL     1     -40.517  52.922 -53.847  1.00  0.00     0.190 A 
HETATM    8  N   UNL     1     -39.951  53.072 -55.039  1.00  0.00    -0.149 NA
HETATM    9  N   UNL     1     -40.549  54.172 -55.529  1.00  0.00    -0.279 N 
HETATM   10  H   UNL     1     -40.300  54.478 -56.463  1.00  0.00     0.189 HD
HETATM   11  C   UNL     1     -42.383  54.140 -52.387  1.00  0.00     0.074 C 
ENDROOT
BRANCH  11  12
HETATM   12  C   UNL     1     -41.535  54.129 -51.120  1.00  0.00    -0.048 A 
HETATM   13  C   UNL     1     -40.133  54.290 -51.145  1.00  0.00     0.011 A 
HETATM   14  C   UNL     1     -39.387  54.282 -49.968  1.00  0.00     0.043 A 
HETATM   15  C   UNL     1     -40.034  54.126 -48.751  1.00  0.00     0.116 A 
HETATM   16  F   UNL     1     -39.320  54.125 -47.618  1.00  0.00    -0.206 F 
HETATM   17  C   UNL     1     -41.415  53.980 -48.693  1.00  0.00     0.043 A 
HETATM   18  C   UNL     1     -42.164  53.984 -49.872  1.00  0.00     0.011 A 
ENDBRANCH  11  12
BRANCH   1  19
HETATM   19  C   UNL     1     -42.887  56.579 -51.763  1.00  0.00     0.267 C 
HETATM   20  O   UNL     1     -43.522  57.087 -50.850  1.00  0.00    -0.265 OA
BRANCH  19  21
HETATM   21  O   UNL     1     -41.649  56.972 -52.180  1.00  0.00    -0.316 OA
BRANCH  21  22
HETATM   22  C   UNL     1     -41.316  58.366 -52.036  1.00  0.00     0.123 C 
HETATM   23  C   UNL     1     -40.692  58.877 -53.327  1.00  0.00     0.040 C 
HETATM   24  C   UNL     1     -40.324  58.462 -50.883  1.00  0.00     0.040 C 
ENDBRANCH  21  22
ENDBRANCH  19  21
ENDBRANCH   1  19
BRANCH   2  25
HETATM   25  O   UNL     1     -44.435  54.735 -54.634  1.00  0.00    -0.389 OA
HETATM   26  H   UNL     1     -44.530  54.903 -55.588  1.00  0.00     0.210 HD
ENDBRANCH   2  25
BRANCH   7  27
HETATM   27  O   UNL     1     -40.120  51.870 -53.129  1.00  0.00    -0.343 OA
HETATM   28  H   UNL     1     -40.475  51.059 -53.523  1.00  0.00     0.219 HD
ENDBRANCH   7  27
TORSDOF 6
ENDMDL
MODEL 7
REMARK VINA RESULT:      -6.5      3.202      6.239
REMARK  6 active torsions:
REMARK  status: ('A' for Active; 'I' for Inactive)
REMARK    1  A    between atoms: C_2  and  O_3 
REMARK    2  A    between atoms: O_3  and  C_4 
REMARK    3  A    between atoms: C_4  and  C_5 
REMARK    4  A    between atoms: C_6  and  O_7 
REMARK    5  A    between atoms: C_12  and  O_13 
REMARK    6  A    between atoms: C_17  and  C_18 
ROOT
HETATM    1  C   UNL     1     -41.856  57.973 -55.056  1.00  0.00     0.133 C 
HETATM    2  C   UNL     1     -42.474  59.354 -54.659  1.00  0.00     0.073 C 
HETATM    3  C   UNL     1     -43.248  60.027 -55.805  1.00  0.00     0.047 C 
HETATM    4  C   UNL     1     -43.385  59.284 -53.399  1.00  0.00     0.097 C 
HETATM    5  C   UNL     1     -42.712  58.481 -52.350  1.00  0.00     0.042 A 
HETATM    6  C   UNL     1     -41.730  57.534 -52.543  1.00  0.00     0.030 A 
HETATM    7  C   UNL     1     -41.391  57.157 -51.232  1.00  0.00     0.190 A 
HETATM    8  N   UNL     1     -42.100  57.778 -50.296  1.00  0.00    -0.149 NA
HETATM    9  N   UNL     1     -42.899  58.594 -51.005  1.00  0.00    -0.279 N 
HETATM   10  H   UNL     1     -43.527  59.209 -50.498  1.00  0.00     0.189 HD
HETATM   11  C   UNL     1     -41.183  57.186 -53.888  1.00  0.00     0.074 C 
ENDROOT
BRANCH  11  12
HETATM   12  C   UNL     1     -41.210  55.666 -54.001  1.00  0.00    -0.048 A 
HETATM   13  C   UNL     1     -42.221  54.879 -53.411  1.00  0.00     0.011 A 
HETATM   14  C   UNL     1     -42.219  53.491 -53.539  1.00  0.00     0.043 A 
HETATM   15  C   UNL     1     -41.216  52.874 -54.271  1.00  0.00     0.116 A 
HETATM   16  F   UNL     1     -41.216  51.542 -54.402  1.00  0.00    -0.206 F 
HETATM   17  C   UNL     1     -40.214  53.624 -54.877  1.00  0.00     0.043 A 
HETATM   18  C   UNL     1     -40.211  55.014 -54.747  1.00  0.00     0.011 A 
ENDBRANCH  11  12
BRANCH   1  19
HETATM   19  C   UNL     1     -42.856  57.140 -55.834  1.00  0.00     0.267 C 
HETATM   20  O   UNL     1     -44.005  56.910 -55.490  1.00  0.00    -0.265 OA
BRANCH  19  21
HETATM   21  O   UNL     1     -42.284  56.735 -57.005  1.00  0.00    -0.316 OA
BRANCH  21  22
HETATM   22  C   UNL     1     -42.911  57.160 -58.229  1.00  0.00     0.123 C 
HETATM   23  C   UNL     1     -43.070  55.969 -59.163  1.00  0.00     0.040 C 
HETATM   24  C   UNL     1     -41.997  58.212 -58.847  1.00  0.00     0.040 C 
ENDBRANCH  21  22
ENDBRANCH  19  21
ENDBRANCH   1  19
BRANCH   2  25
HETATM   25  O   UNL     1     -41.378  60.246 -54.348  1.00  0.00    -0.389 OA
HETATM   26  H   UNL     1     -41.740  61.113 -54.094  1.00  0.00     0.210 HD
ENDBRANCH   2  25
BRANCH   7  27
HETATM   27  O   UNL     1     -40.479  56.281 -50.803  1.00  0.00    -0.343 OA
HETATM   28  H   UNL     1     -40.927  55.509 -50.426  1.00  0.00     0.219 HD
ENDBRANCH   7  27
TORSDOF 6
ENDMDL
MODEL 8
REMARK VINA RESULT:      -6.4     16.640     18.679
REMARK  6 active torsions:
REMARK  status: ('A' for Active; 'I' for Inactive)
REMARK    1  A    between atoms: C_2  and  O_3 
REMARK    2  A    between atoms: O_3  and  C_4 
REMARK    3  A    between atoms: C_4  and  C_5 
REMARK    4  A    between atoms: C_6  and  O_7 
REMARK    5  A    between atoms: C_12  and  O_13 
REMARK    6  A    between atoms: C_17  and  C_18 
ROOT
HETATM    1  C   UNL     1     -33.906  40.762 -53.429  1.00  0.00     0.133 C 
HETATM    2  C   UNL     1     -33.010  40.203 -52.276  1.00  0.00     0.073 C 
HETATM    3  C   UNL     1     -33.755  40.064 -50.939  1.00  0.00     0.047 C 
HETATM    4  C   UNL     1     -32.328  38.848 -52.625  1.00  0.00     0.097 C 
HETATM    5  C   UNL     1     -31.760  38.921 -53.993  1.00  0.00     0.042 A 
HETATM    6  C   UNL     1     -32.151  39.774 -55.001  1.00  0.00     0.030 A 
HETATM    7  C   UNL     1     -31.239  39.487 -56.031  1.00  0.00     0.190 A 
HETATM    8  N   UNL     1     -30.369  38.531 -55.725  1.00  0.00    -0.149 NA
HETATM    9  N   UNL     1     -30.701  38.204 -54.464  1.00  0.00    -0.279 N 
HETATM   10  H   UNL     1     -30.146  37.499 -53.990  1.00  0.00     0.189 HD
HETATM   11  C   UNL     1     -33.235  40.788 -54.840  1.00  0.00     0.074 C 
ENDROOT
BRANCH  11  12
HETATM   12  C   UNL     1     -34.174  40.631 -56.031  1.00  0.00    -0.048 A 
HETATM   13  C   UNL     1     -34.510  39.372 -56.570  1.00  0.00     0.011 A 
HETATM   14  C   UNL     1     -35.378  39.264 -57.657  1.00  0.00     0.043 A 
HETATM   15  C   UNL     1     -35.930  40.410 -58.207  1.00  0.00     0.116 A 
HETATM   16  F   UNL     1     -36.768  40.309 -59.245  1.00  0.00    -0.206 F 
HETATM   17  C   UNL     1     -35.629  41.664 -57.687  1.00  0.00     0.043 A 
HETATM   18  C   UNL     1     -34.757  41.776 -56.602  1.00  0.00     0.011 A 
ENDBRANCH  11  12
BRANCH   1  19
HETATM   19  C   UNL     1     -35.264  40.088 -53.431  1.00  0.00     0.267 C 
HETATM   20  O   UNL     1     -35.456  38.881 -53.432  1.00  0.00    -0.265 OA
BRANCH  19  21
HETATM   21  O   UNL     1     -36.237  41.043 -53.376  1.00  0.00    -0.316 OA
BRANCH  21  22
HETATM   22  C   UNL     1     -37.587  40.628 -53.653  1.00  0.00     0.123 C 
HETATM   23  C   UNL     1     -38.030  41.191 -54.996  1.00  0.00     0.040 C 
HETATM   24  C   UNL     1     -38.455  41.176 -52.526  1.00  0.00     0.040 C 
ENDBRANCH  21  22
ENDBRANCH  19  21
ENDBRANCH   1  19
BRANCH   2  25
HETATM   25  O   UNL     1     -31.956  41.166 -52.041  1.00  0.00    -0.389 OA
HETATM   26  H   UNL     1     -32.300  41.875 -51.470  1.00  0.00     0.210 HD
ENDBRANCH   2  25
BRANCH   7  27
HETATM   27  O   UNL     1     -31.126  40.026 -57.247  1.00  0.00    -0.343 OA
HETATM   28  H   UNL     1     -31.385  39.373 -57.914  1.00  0.00     0.219 HD
ENDBRANCH   7  27
TORSDOF 6
ENDMDL
MODEL 9
REMARK VINA RESULT:      -6.3      2.532      4.049
REMARK  6 active torsions:
REMARK  status: ('A' for Active; 'I' for Inactive)
REMARK    1  A    between atoms: C_2  and  O_3 
REMARK    2  A    between atoms: O_3  and  C_4 
REMARK    3  A    between atoms: C_4  and  C_5 
REMARK    4  A    between atoms: C_6  and  O_7 
REMARK    5  A    between atoms: C_12  and  O_13 
REMARK    6  A    between atoms: C_17  and  C_18 
ROOT
HETATM    1  C   UNL     1     -41.519  55.496 -53.986  1.00  0.00     0.133 C 
HETATM    2  C   UNL     1     -42.396  56.033 -55.164  1.00  0.00     0.073 C 
HETATM    3  C   UNL     1     -42.439  55.083 -56.372  1.00  0.00     0.047 C 
HETATM    4  C   UNL     1     -43.851  56.388 -54.740  1.00  0.00     0.097 C 
HETATM    5  C   UNL     1     -43.821  57.156 -53.473  1.00  0.00     0.042 A 
HETATM    6  C   UNL     1     -42.812  57.156 -52.535  1.00  0.00     0.030 A 
HETATM    7  C   UNL     1     -43.248  58.109 -51.599  1.00  0.00     0.190 A 
HETATM    8  N   UNL     1     -44.426  58.646 -51.892  1.00  0.00    -0.149 NA
HETATM    9  N   UNL     1     -44.756  58.054 -53.053  1.00  0.00    -0.279 N 
HETATM   10  H   UNL     1     -45.622  58.330 -53.503  1.00  0.00     0.189 HD
HETATM   11  C   UNL     1     -41.559  56.358 -52.683  1.00  0.00     0.074 C 
ENDROOT
BRANCH  11  12
HETATM   12  C   UNL     1     -41.353  55.602 -51.375  1.00  0.00    -0.048 A 
HETATM   13  C   UNL     1     -42.418  55.005 -50.669  1.00  0.00     0.011 A 
HETATM   14  C   UNL     1     -42.194  54.316 -49.478  1.00  0.00     0.043 A 
HETATM   15  C   UNL     1     -40.903  54.203 -48.986  1.00  0.00     0.116 A 
HETATM   16  F   UNL     1     -40.685  53.535 -47.847  1.00  0.00    -0.206 F 
HETATM   17  C   UNL     1     -39.831  54.768 -49.667  1.00  0.00     0.043 A 
HETATM   18  C   UNL     1     -40.053  55.462 -50.859  1.00  0.00     0.011 A 
ENDBRANCH  11  12
BRANCH   1  19
HETATM   19  C   UNL     1     -41.796  54.027 -53.734  1.00  0.00     0.267 C 
HETATM   20  O   UNL     1     -42.896  53.540 -53.524  1.00  0.00    -0.265 OA
BRANCH  19  21
HETATM   21  O   UNL     1     -40.627  53.330 -53.834  1.00  0.00    -0.316 OA
BRANCH  21  22
HETATM   22  C   UNL     1     -40.584  52.025 -53.227  1.00  0.00     0.123 C 
HETATM   23  C   UNL     1     -39.567  52.022 -52.093  1.00  0.00     0.040 C 
HETATM   24  C   UNL     1     -40.174  51.046 -54.321  1.00  0.00     0.040 C 
ENDBRANCH  21  22
ENDBRANCH  19  21
ENDBRANCH   1  19
BRANCH   2  25
HETATM   25  O   UNL     1     -41.779  57.251 -55.644  1.00  0.00    -0.389 OA
HETATM   26  H   UNL     1     -41.935  57.959 -54.995  1.00  0.00     0.210 HD
ENDBRANCH   2  25
BRANCH   7  27
HETATM   27  O   UNL     1     -42.659  58.540 -50.481  1.00  0.00    -0.343 OA
HETATM   28  H   UNL     1     -43.337  58.816 -49.846  1.00  0.00     0.219 HD
ENDBRANCH   7  27
TORSDOF 6
ENDMDL
MODEL 10
REMARK VINA RESULT:      -6.2      1.974      2.984
REMARK  6 active torsions:
REMARK  status: ('A' for Active; 'I' for Inactive)
REMARK    1  A    between atoms: C_2  and  O_3 
REMARK    2  A    between atoms: O_3  and  C_4 
REMARK    3  A    between atoms: C_4  and  C_5 
REMARK    4  A    between atoms: C_6  and  O_7 
REMARK    5  A    between atoms: C_12  and  O_13 
REMARK    6  A    between atoms: C_17  and  C_18 
ROOT
HETATM    1  C   UNL     1     -41.806  56.993 -55.112  1.00  0.00     0.133 C 
HETATM    2  C   UNL     1     -42.714  56.684 -56.348  1.00  0.00     0.073 C 
HETATM    3  C   UNL     1     -42.882  55.180 -56.618  1.00  0.00     0.047 C 
HETATM    4  C   UNL     1     -44.119  57.349 -56.263  1.00  0.00     0.097 C 
HETATM    5  C   UNL     1     -43.970  58.758 -55.827  1.00  0.00     0.042 A 
HETATM    6  C   UNL     1     -42.912  59.295 -55.128  1.00  0.00     0.030 A 
HETATM    7  C   UNL     1     -43.236  60.662 -55.061  1.00  0.00     0.190 A 
HETATM    8  N   UNL     1     -44.395  60.965 -55.635  1.00  0.00    -0.149 NA
HETATM    9  N   UNL     1     -44.825  59.782 -56.108  1.00  0.00    -0.279 N 
HETATM   10  H   UNL     1     -45.697  59.761 -56.626  1.00  0.00     0.189 HD
HETATM   11  C   UNL     1     -41.719  58.499 -54.711  1.00  0.00     0.074 C 
ENDROOT
BRANCH  11  12
HETATM   12  C   UNL     1     -41.486  58.786 -53.232  1.00  0.00    -0.048 A 
HETATM   13  C   UNL     1     -42.545  59.003 -52.326  1.00  0.00     0.011 A 
HETATM   14  C   UNL     1     -42.297  59.257 -50.977  1.00  0.00     0.043 A 
HETATM   15  C   UNL     1     -40.990  59.283 -50.517  1.00  0.00     0.116 A 
HETATM   16  F   UNL     1     -40.749  59.519 -49.221  1.00  0.00    -0.206 F 
HETATM   17  C   UNL     1     -39.926  59.058 -51.383  1.00  0.00     0.043 A 
HETATM   18  C   UNL     1     -40.171  58.807 -52.735  1.00  0.00     0.011 A 
ENDBRANCH  11  12
BRANCH   1  19
HETATM   19  C   UNL     1     -42.155  56.088 -53.947  1.00  0.00     0.267 C 
HETATM   20  O   UNL     1     -43.271  55.948 -53.469  1.00  0.00    -0.265 OA
BRANCH  19  21
HETATM   21  O   UNL     1     -41.036  55.414 -53.553  1.00  0.00    -0.316 OA
BRANCH  21  22
HETATM   22  C   UNL     1     -41.099  53.975 -53.546  1.00  0.00     0.123 C 
HETATM   23  C   UNL     1     -40.568  53.447 -52.222  1.00  0.00     0.040 C 
HETATM   24  C   UNL     1     -40.235  53.493 -54.705  1.00  0.00     0.040 C 
ENDBRANCH  21  22
ENDBRANCH  19  21
ENDBRANCH   1  19
BRANCH   2  25
HETATM   25  O   UNL     1     -42.053  57.222 -57.516  1.00  0.00    -0.389 OA
HETATM   26  H   UNL     1     -41.172  56.815 -57.595  1.00  0.00     0.210 HD
ENDBRANCH   2  25
BRANCH   7  27
HETATM   27  O   UNL     1     -42.561  61.674 -54.514  1.00  0.00    -0.343 OA
HETATM   28  H   UNL     1     -41.870  61.323 -53.932  1.00  0.00     0.219 HD
ENDBRANCH   7  27
TORSDOF 6
ENDMDL
