MODEL 1
REMARK VINA RESULT:      -8.4      0.000      0.000
REMARK  6 active torsions:
REMARK  status: ('A' for Active; 'I' for Inactive)
REMARK    1  A    between atoms: C_2  and  C_3 
REMARK    2  A    between atoms: C_7  and  O_8 
REMARK    3  A    between atoms: O_8  and  C_9 
REMARK    4  A    between atoms: C_9  and  C_10 
REMARK       I    between atoms: C_10  and  N_11 
REMARK    5  A    between atoms: N_11  and  N_12 
REMARK    6  A    between atoms: C_13  and  C_14 
ROOT
HETATM    1  C   UNL     1     -42.266  57.981 -51.442  1.00  0.00     0.261 C 
HETATM    2  N   UNL     1     -42.505  58.399 -52.728  1.00  0.00    -0.246 N 
HETATM    3  O   UNL     1     -41.836  58.781 -50.608  1.00  0.00    -0.269 OA
HETATM    4  H   UNL     1     -42.354  59.384 -52.915  1.00  0.00     0.192 HD
ENDROOT
BRANCH   1   5
HETATM    5  C   UNL     1     -42.504  56.511 -51.111  1.00  0.00     0.280 C 
BRANCH   5   6
HETATM    6  O   UNL     1     -41.298  55.902 -50.669  1.00  0.00    -0.341 OA
BRANCH   6   7
HETATM    7  C   UNL     1     -40.932  54.729 -51.274  1.00  0.00     0.086 A 
HETATM    8  C   UNL     1     -40.419  53.716 -50.455  1.00  0.00     0.044 A 
HETATM    9  C   UNL     1     -39.980  52.504 -51.001  1.00  0.00     0.029 A 
HETATM   10 BR   UNL     1     -40.302  53.930 -48.568  1.00  0.00    -0.048 Br
HETATM   11  C   UNL     1     -40.039  52.276 -52.384  1.00  0.00    -0.053 A 
HETATM   12  C   UNL     1     -40.546  53.295 -53.200  1.00  0.00     0.010 A 
HETATM   13  C   UNL     1     -40.991  54.505 -52.653  1.00  0.00     0.039 A 
BRANCH  11  14
HETATM   14  C   UNL     1     -39.512  50.971 -52.953  1.00  0.00     0.010 C 
HETATM   15  C   UNL     1     -40.189  50.660 -54.291  1.00  0.00     0.015 C 
HETATM   16  C   UNL     1     -39.655  49.788 -51.990  1.00  0.00     0.015 C 
ENDBRANCH  11  14
ENDBRANCH   6   7
ENDBRANCH   5   6
ENDBRANCH   1   5
BRANCH   2  17
HETATM   17  N   UNL     1     -42.972  57.566 -53.699  1.00  0.00    -0.184 NA
HETATM   18  C   UNL     1     -42.183  57.411 -54.714  1.00  0.00     0.152 C 
BRANCH  18  19
HETATM   19  C   UNL     1     -42.590  56.572 -55.821  1.00  0.00     0.011 A 
HETATM   20  C   UNL     1     -42.585  56.910 -57.212  1.00  0.00     0.004 A 
HETATM   21  C   UNL     1     -43.073  55.804 -57.911  1.00  0.00     0.043 A 
HETATM   22  C   UNL     1     -42.206  58.053 -57.949  1.00  0.00     0.014 A 
HETATM   23  C   UNL     1     -43.204  55.786 -59.305  1.00  0.00     0.030 A 
HETATM   24  N   UNL     1     -43.368  54.835 -56.982  1.00  0.00    -0.364 N 
HETATM   25  C   UNL     1     -42.821  56.931 -60.009  1.00  0.00     0.002 A 
HETATM   26  C   UNL     1     -42.329  58.050 -59.343  1.00  0.00     0.001 A 
HETATM   27  H   UNL     1     -43.747  53.924 -57.202  1.00  0.00     0.165 HD
HETATM   28  C   UNL     1     -43.077  55.283 -55.723  1.00  0.00     0.102 A 
ENDBRANCH  18  19
ENDBRANCH   2  17
TORSDOF 6
ENDMDL
MODEL 2
REMARK VINA RESULT:      -8.3      2.706      6.629
REMARK  6 active torsions:
REMARK  status: ('A' for Active; 'I' for Inactive)
REMARK    1  A    between atoms: C_2  and  C_3 
REMARK    2  A    between atoms: C_7  and  O_8 
REMARK    3  A    between atoms: O_8  and  C_9 
REMARK    4  A    between atoms: C_9  and  C_10 
REMARK       I    between atoms: C_10  and  N_11 
REMARK    5  A    between atoms: N_11  and  N_12 
REMARK    6  A    between atoms: C_13  and  C_14 
ROOT
HETATM    1  C   UNL     1     -43.528  57.745 -51.791  1.00  0.00     0.261 C 
HETATM    2  N   UNL     1     -42.993  57.051 -50.733  1.00  0.00    -0.246 N 
HETATM    3  O   UNL     1     -43.852  58.927 -51.647  1.00  0.00    -0.269 OA
HETATM    4  H   UNL     1     -42.846  57.578 -49.879  1.00  0.00     0.192 HD
ENDROOT
BRANCH   1   5
HETATM    5  C   UNL     1     -43.743  56.997 -53.102  1.00  0.00     0.280 C 
BRANCH   5   6
HETATM    6  O   UNL     1     -42.571  57.058 -53.905  1.00  0.00    -0.341 OA
BRANCH   6   7
HETATM    7  C   UNL     1     -42.688  56.661 -55.211  1.00  0.00     0.086 A 
HETATM    8  C   UNL     1     -42.596  57.655 -56.194  1.00  0.00     0.044 A 
HETATM    9  C   UNL     1     -42.750  57.339 -57.550  1.00  0.00     0.029 A 
HETATM   10 BR   UNL     1     -42.250  59.470 -55.743  1.00  0.00    -0.048 Br
HETATM   11  C   UNL     1     -43.003  56.021 -57.956  1.00  0.00    -0.053 A 
HETATM   12  C   UNL     1     -43.102  55.032 -56.968  1.00  0.00     0.010 A 
HETATM   13  C   UNL     1     -42.942  55.347 -55.613  1.00  0.00     0.039 A 
BRANCH  11  14
HETATM   14  C   UNL     1     -43.213  55.716 -59.429  1.00  0.00     0.010 C 
HETATM   15  C   UNL     1     -43.505  57.003 -60.205  1.00  0.00     0.015 C 
HETATM   16  C   UNL     1     -44.309  54.674 -59.681  1.00  0.00     0.015 C 
ENDBRANCH  11  14
ENDBRANCH   6   7
ENDBRANCH   5   6
ENDBRANCH   1   5
BRANCH   2  17
HETATM   17  N   UNL     1     -42.623  55.743 -50.822  1.00  0.00    -0.184 NA
HETATM   18  C   UNL     1     -41.345  55.535 -50.816  1.00  0.00     0.152 C 
BRANCH  18  19
HETATM   19  C   UNL     1     -40.836  54.185 -50.937  1.00  0.00     0.011 A 
HETATM   20  C   UNL     1     -40.533  53.478 -52.146  1.00  0.00     0.004 A 
HETATM   21  C   UNL     1     -40.086  52.207 -51.782  1.00  0.00     0.043 A 
HETATM   22  C   UNL     1     -40.593  53.800 -53.518  1.00  0.00     0.014 A 
HETATM   23  C   UNL     1     -39.699  51.242 -52.721  1.00  0.00     0.030 A 
HETATM   24  N   UNL     1     -40.119  52.141 -50.409  1.00  0.00    -0.364 N 
HETATM   25  C   UNL     1     -39.768  51.588 -54.074  1.00  0.00     0.002 A 
HETATM   26  C   UNL     1     -40.207  52.848 -54.469  1.00  0.00     0.001 A 
HETATM   27  H   UNL     1     -39.855  51.331 -49.866  1.00  0.00     0.165 HD
HETATM   28  C   UNL     1     -40.563  53.326 -49.891  1.00  0.00     0.102 A 
ENDBRANCH  18  19
ENDBRANCH   2  17
TORSDOF 6
ENDMDL
MODEL 3
REMARK VINA RESULT:      -8.2      1.891      2.482
REMARK  6 active torsions:
REMARK  status: ('A' for Active; 'I' for Inactive)
REMARK    1  A    between atoms: C_2  and  C_3 
REMARK    2  A    between atoms: C_7  and  O_8 
REMARK    3  A    between atoms: O_8  and  C_9 
REMARK    4  A    between atoms: C_9  and  C_10 
REMARK       I    between atoms: C_10  and  N_11 
REMARK    5  A    between atoms: N_11  and  N_12 
REMARK    6  A    between atoms: C_13  and  C_14 
ROOT
HETATM    1  C   UNL     1     -41.416  58.926 -52.590  1.00  0.00     0.261 C 
HETATM    2  N   UNL     1     -41.745  59.906 -53.494  1.00  0.00    -0.246 N 
HETATM    3  O   UNL     1     -41.667  59.087 -51.393  1.00  0.00    -0.269 OA
HETATM    4  H   UNL     1     -42.234  60.713 -53.123  1.00  0.00     0.192 HD
ENDROOT
BRANCH   1   5
HETATM    5  C   UNL     1     -40.701  57.683 -53.109  1.00  0.00     0.280 C 
BRANCH   5   6
HETATM    6  O   UNL     1     -41.644  56.675 -53.447  1.00  0.00    -0.341 OA
BRANCH   6   7
HETATM    7  C   UNL     1     -41.179  55.390 -53.539  1.00  0.00     0.086 A 
HETATM    8  C   UNL     1     -41.213  54.609 -52.376  1.00  0.00     0.044 A 
HETATM    9  C   UNL     1     -40.714  53.301 -52.375  1.00  0.00     0.029 A 
HETATM   10 BR   UNL     1     -41.944  55.279 -50.753  1.00  0.00    -0.048 Br
HETATM   11  C   UNL     1     -40.163  52.741 -53.537  1.00  0.00    -0.053 A 
HETATM   12  C   UNL     1     -40.124  53.528 -54.695  1.00  0.00     0.010 A 
HETATM   13  C   UNL     1     -40.629  54.834 -54.698  1.00  0.00     0.039 A 
BRANCH  11  14
HETATM   14  C   UNL     1     -39.586  51.338 -53.493  1.00  0.00     0.010 C 
HETATM   15  C   UNL     1     -40.387  50.402 -54.402  1.00  0.00     0.015 C 
HETATM   16  C   UNL     1     -39.495  50.764 -52.075  1.00  0.00     0.015 C 
ENDBRANCH  11  14
ENDBRANCH   6   7
ENDBRANCH   5   6
ENDBRANCH   1   5
BRANCH   2  17
HETATM   17  N   UNL     1     -41.489  59.795 -54.827  1.00  0.00    -0.184 NA
HETATM   18  C   UNL     1     -42.471  59.338 -55.537  1.00  0.00     0.152 C 
BRANCH  18  19
HETATM   19  C   UNL     1     -42.300  59.149 -56.962  1.00  0.00     0.011 A 
HETATM   20  C   UNL     1     -42.518  57.946 -57.708  1.00  0.00     0.004 A 
HETATM   21  C   UNL     1     -42.215  58.224 -59.042  1.00  0.00     0.043 A 
HETATM   22  C   UNL     1     -42.950  56.644 -57.377  1.00  0.00     0.014 A 
HETATM   23  C   UNL     1     -42.318  57.266 -60.059  1.00  0.00     0.030 A 
HETATM   24  N   UNL     1     -41.824  59.541 -59.104  1.00  0.00    -0.364 N 
HETATM   25  C   UNL     1     -42.749  55.985 -59.703  1.00  0.00     0.002 A 
HETATM   26  C   UNL     1     -43.061  55.676 -58.382  1.00  0.00     0.001 A 
HETATM   27  H   UNL     1     -41.538  60.016 -59.949  1.00  0.00     0.165 HD
HETATM   28  C   UNL     1     -41.877  60.108 -57.861  1.00  0.00     0.102 A 
ENDBRANCH  18  19
ENDBRANCH   2  17
TORSDOF 6
ENDMDL
MODEL 4
REMARK VINA RESULT:      -7.8      3.195      6.854
REMARK  6 active torsions:
REMARK  status: ('A' for Active; 'I' for Inactive)
REMARK    1  A    between atoms: C_2  and  C_3 
REMARK    2  A    between atoms: C_7  and  O_8 
REMARK    3  A    between atoms: O_8  and  C_9 
REMARK    4  A    between atoms: C_9  and  C_10 
REMARK       I    between atoms: C_10  and  N_11 
REMARK    5  A    between atoms: N_11  and  N_12 
REMARK    6  A    between atoms: C_13  and  C_14 
ROOT
HETATM    1  C   UNL     1     -43.423  56.466 -57.570  1.00  0.00     0.261 C 
HETATM    2  N   UNL     1     -43.217  55.180 -57.134  1.00  0.00    -0.246 N 
HETATM    3  O   UNL     1     -44.194  56.678 -58.510  1.00  0.00    -0.269 OA
HETATM    4  H   UNL     1     -43.762  54.458 -57.592  1.00  0.00     0.192 HD
ENDROOT
BRANCH   1   5
HETATM    5  C   UNL     1     -42.641  57.586 -56.893  1.00  0.00     0.280 C 
BRANCH   5   6
HETATM    6  O   UNL     1     -43.361  58.085 -55.773  1.00  0.00    -0.341 OA
BRANCH   6   7
HETATM    7  C   UNL     1     -42.681  58.189 -54.589  1.00  0.00     0.086 A 
HETATM    8  C   UNL     1     -43.326  58.846 -53.533  1.00  0.00     0.044 A 
HETATM    9  C   UNL     1     -42.681  59.034 -52.304  1.00  0.00     0.029 A 
HETATM   10 BR   UNL     1     -45.101  59.505 -53.710  1.00  0.00    -0.048 Br
HETATM   11  C   UNL     1     -41.373  58.572 -52.101  1.00  0.00    -0.053 A 
HETATM   12  C   UNL     1     -40.730  57.921 -53.162  1.00  0.00     0.010 A 
HETATM   13  C   UNL     1     -41.377  57.728 -54.389  1.00  0.00     0.039 A 
BRANCH  11  14
HETATM   14  C   UNL     1     -40.681  58.832 -50.775  1.00  0.00     0.010 C 
HETATM   15  C   UNL     1     -41.449  59.882 -49.968  1.00  0.00     0.015 C 
HETATM   16  C   UNL     1     -39.212  59.238 -50.927  1.00  0.00     0.015 C 
ENDBRANCH  11  14
ENDBRANCH   6   7
ENDBRANCH   5   6
ENDBRANCH   1   5
BRANCH   2  17
HETATM   17  N   UNL     1     -42.374  54.876 -56.109  1.00  0.00    -0.184 NA
HETATM   18  C   UNL     1     -42.887  54.137 -55.178  1.00  0.00     0.152 C 
BRANCH  18  19
HETATM   19  C   UNL     1     -42.092  53.778 -54.024  1.00  0.00     0.011 A 
HETATM   20  C   UNL     1     -42.207  54.300 -52.695  1.00  0.00     0.004 A 
HETATM   21  C   UNL     1     -41.229  53.678 -51.918  1.00  0.00     0.043 A 
HETATM   22  C   UNL     1     -43.056  55.242 -52.076  1.00  0.00     0.014 A 
HETATM   23  C   UNL     1     -41.054  53.953 -50.555  1.00  0.00     0.030 A 
HETATM   24  N   UNL     1     -40.543  52.816 -52.741  1.00  0.00    -0.364 N 
HETATM   25  C   UNL     1     -41.909  54.890 -49.968  1.00  0.00     0.002 A 
HETATM   26  C   UNL     1     -42.896  55.527 -50.714  1.00  0.00     0.001 A 
HETATM   27  H   UNL     1     -39.770  52.235 -52.447  1.00  0.00     0.165 HD
HETATM   28  C   UNL     1     -41.056  52.863 -54.007  1.00  0.00     0.102 A 
ENDBRANCH  18  19
ENDBRANCH   2  17
TORSDOF 6
ENDMDL
MODEL 5
REMARK VINA RESULT:      -7.6     14.793     17.158
REMARK  6 active torsions:
REMARK  status: ('A' for Active; 'I' for Inactive)
REMARK    1  A    between atoms: C_2  and  C_3 
REMARK    2  A    between atoms: C_7  and  O_8 
REMARK    3  A    between atoms: O_8  and  C_9 
REMARK    4  A    between atoms: C_9  and  C_10 
REMARK       I    between atoms: C_10  and  N_11 
REMARK    5  A    between atoms: N_11  and  N_12 
REMARK    6  A    between atoms: C_13  and  C_14 
ROOT
HETATM    1  C   UNL     1     -34.527  41.549 -52.034  1.00  0.00     0.261 C 
HETATM    2  N   UNL     1     -33.404  40.954 -52.555  1.00  0.00    -0.246 N 
HETATM    3  O   UNL     1     -34.436  42.247 -51.021  1.00  0.00    -0.269 OA
HETATM    4  H   UNL     1     -32.528  41.166 -52.091  1.00  0.00     0.192 HD
ENDROOT
BRANCH   1   5
HETATM    5  C   UNL     1     -35.864  41.277 -52.715  1.00  0.00     0.280 C 
BRANCH   5   6
HETATM    6  O   UNL     1     -36.253  42.393 -53.505  1.00  0.00    -0.341 OA
BRANCH   6   7
HETATM    7  C   UNL     1     -36.347  42.199 -54.857  1.00  0.00     0.086 A 
HETATM    8  C   UNL     1     -37.540  41.652 -55.347  1.00  0.00     0.044 A 
HETATM    9  C   UNL     1     -37.698  41.379 -56.712  1.00  0.00     0.029 A 
HETATM   10 BR   UNL     1     -39.000  41.262 -54.193  1.00  0.00    -0.048 Br
HETATM   11  C   UNL     1     -36.664  41.644 -57.622  1.00  0.00    -0.053 A 
HETATM   12  C   UNL     1     -35.470  42.184 -57.126  1.00  0.00     0.010 A 
HETATM   13  C   UNL     1     -35.315  42.462 -55.762  1.00  0.00     0.039 A 
BRANCH  11  14
HETATM   14  C   UNL     1     -36.846  41.295 -59.088  1.00  0.00     0.010 C 
HETATM   15  C   UNL     1     -37.290  42.527 -59.880  1.00  0.00     0.015 C 
HETATM   16  C   UNL     1     -37.814  40.129 -59.317  1.00  0.00     0.015 C 
ENDBRANCH  11  14
ENDBRANCH   6   7
ENDBRANCH   5   6
ENDBRANCH   1   5
BRANCH   2  17
HETATM   17  N   UNL     1     -33.436  40.165 -53.665  1.00  0.00    -0.184 NA
HETATM   18  C   UNL     1     -32.520  40.419 -54.544  1.00  0.00     0.152 C 
BRANCH  18  19
HETATM   19  C   UNL     1     -32.478  39.663 -55.777  1.00  0.00     0.011 A 
HETATM   20  C   UNL     1     -33.563  38.975 -56.410  1.00  0.00     0.004 A 
HETATM   21  C   UNL     1     -33.058  38.375 -57.565  1.00  0.00     0.043 A 
HETATM   22  C   UNL     1     -34.932  38.807 -56.112  1.00  0.00     0.014 A 
HETATM   23  C   UNL     1     -33.851  37.614 -58.433  1.00  0.00     0.030 A 
HETATM   24  N   UNL     1     -31.719  38.682 -57.630  1.00  0.00    -0.364 N 
HETATM   25  C   UNL     1     -35.204  37.465 -58.114  1.00  0.00     0.002 A 
HETATM   26  C   UNL     1     -35.739  38.052 -56.971  1.00  0.00     0.001 A 
HETATM   27  H   UNL     1     -31.094  38.372 -58.362  1.00  0.00     0.165 HD
HETATM   28  C   UNL     1     -31.361  39.460 -56.565  1.00  0.00     0.102 A 
ENDBRANCH  18  19
ENDBRANCH   2  17
TORSDOF 6
ENDMDL
MODEL 6
REMARK VINA RESULT:      -7.5      2.497      2.993
REMARK  6 active torsions:
REMARK  status: ('A' for Active; 'I' for Inactive)
REMARK    1  A    between atoms: C_2  and  C_3 
REMARK    2  A    between atoms: C_7  and  O_8 
REMARK    3  A    between atoms: O_8  and  C_9 
REMARK    4  A    between atoms: C_9  and  C_10 
REMARK       I    between atoms: C_10  and  N_11 
REMARK    5  A    between atoms: N_11  and  N_12 
REMARK    6  A    between atoms: C_13  and  C_14 
ROOT
HETATM    1  C   UNL     1     -43.294  58.099 -53.346  1.00  0.00     0.261 C 
HETATM    2  N   UNL     1     -44.160  58.265 -54.399  1.00  0.00    -0.246 N 
HETATM    3  O   UNL     1     -43.365  58.851 -52.370  1.00  0.00    -0.269 OA
HETATM    4  H   UNL     1     -44.862  58.989 -54.293  1.00  0.00     0.192 HD
ENDROOT
BRANCH   1   5
HETATM    5  C   UNL     1     -42.238  57.005 -53.453  1.00  0.00     0.280 C 
BRANCH   5   6
HETATM    6  O   UNL     1     -42.786  55.748 -53.076  1.00  0.00    -0.341 OA
BRANCH   6   7
HETATM    7  C   UNL     1     -41.932  54.678 -53.046  1.00  0.00     0.086 A 
HETATM    8  C   UNL     1     -41.965  53.799 -54.136  1.00  0.00     0.044 A 
HETATM    9  C   UNL     1     -41.157  52.655 -54.161  1.00  0.00     0.029 A 
HETATM   10 BR   UNL     1     -43.096  54.115 -55.632  1.00  0.00    -0.048 Br
HETATM   11  C   UNL     1     -40.297  52.360 -53.093  1.00  0.00    -0.053 A 
HETATM   12  C   UNL     1     -40.272  53.239 -52.002  1.00  0.00     0.010 A 
HETATM   13  C   UNL     1     -41.076  54.385 -51.980  1.00  0.00     0.039 A 
BRANCH  11  14
HETATM   14  C   UNL     1     -39.467  51.089 -53.126  1.00  0.00     0.010 C 
HETATM   15  C   UNL     1     -39.877  50.214 -54.313  1.00  0.00     0.015 C 
HETATM   16  C   UNL     1     -39.531  50.291 -51.820  1.00  0.00     0.015 C 
ENDBRANCH  11  14
ENDBRANCH   6   7
ENDBRANCH   5   6
ENDBRANCH   1   5
BRANCH   2  17
HETATM   17  N   UNL     1     -44.131  57.476 -55.508  1.00  0.00    -0.184 NA
HETATM   18  C   UNL     1     -43.791  58.081 -56.601  1.00  0.00     0.152 C 
BRANCH  18  19
HETATM   19  C   UNL     1     -43.756  57.347 -57.849  1.00  0.00     0.011 A 
HETATM   20  C   UNL     1     -44.861  57.051 -58.711  1.00  0.00     0.004 A 
HETATM   21  C   UNL     1     -44.363  56.313 -59.786  1.00  0.00     0.043 A 
HETATM   22  C   UNL     1     -46.241  57.345 -58.682  1.00  0.00     0.014 A 
HETATM   23  C   UNL     1     -45.175  55.852 -60.829  1.00  0.00     0.030 A 
HETATM   24  N   UNL     1     -43.011  56.162 -59.584  1.00  0.00    -0.364 N 
HETATM   25  C   UNL     1     -46.538  56.157 -60.776  1.00  0.00     0.002 A 
HETATM   26  C   UNL     1     -47.066  56.893 -59.719  1.00  0.00     0.001 A 
HETATM   27  H   UNL     1     -42.391  55.661 -60.204  1.00  0.00     0.165 HD
HETATM   28  C   UNL     1     -42.635  56.784 -58.426  1.00  0.00     0.102 A 
ENDBRANCH  18  19
ENDBRANCH   2  17
TORSDOF 6
ENDMDL
MODEL 7
REMARK VINA RESULT:      -7.5      3.359      8.237
REMARK  6 active torsions:
REMARK  status: ('A' for Active; 'I' for Inactive)
REMARK    1  A    between atoms: C_2  and  C_3 
REMARK    2  A    between atoms: C_7  and  O_8 
REMARK    3  A    between atoms: O_8  and  C_9 
REMARK    4  A    between atoms: C_9  and  C_10 
REMARK       I    between atoms: C_10  and  N_11 
REMARK    5  A    between atoms: N_11  and  N_12 
REMARK    6  A    between atoms: C_13  and  C_14 
ROOT
HETATM    1  C   UNL     1     -44.688  57.612 -55.191  1.00  0.00     0.261 C 
HETATM    2  N   UNL     1     -44.816  56.504 -54.391  1.00  0.00    -0.246 N 
HETATM    3  O   UNL     1     -45.604  57.925 -55.956  1.00  0.00    -0.269 OA
HETATM    4  H   UNL     1     -45.703  56.014 -54.441  1.00  0.00     0.192 HD
ENDROOT
BRANCH   1   5
HETATM    5  C   UNL     1     -43.379  58.393 -55.130  1.00  0.00     0.280 C 
BRANCH   5   6
HETATM    6  O   UNL     1     -42.461  57.896 -56.095  1.00  0.00    -0.341 OA
BRANCH   6   7
HETATM    7  C   UNL     1     -42.370  58.578 -57.279  1.00  0.00     0.086 A 
HETATM    8  C   UNL     1     -42.621  57.860 -58.456  1.00  0.00     0.044 A 
HETATM    9  C   UNL     1     -42.504  58.472 -59.709  1.00  0.00     0.029 A 
HETATM   10 BR   UNL     1     -43.139  56.030 -58.409  1.00  0.00    -0.048 Br
HETATM   11  C   UNL     1     -42.129  59.819 -59.819  1.00  0.00    -0.053 A 
HETATM   12  C   UNL     1     -41.872  60.531 -58.640  1.00  0.00     0.010 A 
HETATM   13  C   UNL     1     -41.995  59.920 -57.386  1.00  0.00     0.039 A 
BRANCH  11  14
HETATM   14  C   UNL     1     -41.963  60.443 -61.193  1.00  0.00     0.010 C 
HETATM   15  C   UNL     1     -41.243  61.790 -61.085  1.00  0.00     0.015 C 
HETATM   16  C   UNL     1     -43.286  60.599 -61.950  1.00  0.00     0.015 C 
ENDBRANCH  11  14
ENDBRANCH   6   7
ENDBRANCH   5   6
ENDBRANCH   1   5
BRANCH   2  17
HETATM   17  N   UNL     1     -43.840  56.099 -53.531  1.00  0.00    -0.184 NA
HETATM   18  C   UNL     1     -43.347  54.927 -53.775  1.00  0.00     0.152 C 
BRANCH  18  19
HETATM   19  C   UNL     1     -42.326  54.382 -52.906  1.00  0.00     0.011 A 
HETATM   20  C   UNL     1     -41.432  53.300 -53.192  1.00  0.00     0.004 A 
HETATM   21  C   UNL     1     -40.634  53.110 -52.062  1.00  0.00     0.043 A 
HETATM   22  C   UNL     1     -41.221  52.464 -54.309  1.00  0.00     0.014 A 
HETATM   23  C   UNL     1     -39.640  52.126 -51.992  1.00  0.00     0.030 A 
HETATM   24  N   UNL     1     -41.029  54.036 -51.125  1.00  0.00    -0.364 N 
HETATM   25  C   UNL     1     -39.452  51.312 -53.113  1.00  0.00     0.002 A 
HETATM   26  C   UNL     1     -40.229  51.477 -54.256  1.00  0.00     0.001 A 
HETATM   27  H   UNL     1     -40.628  54.126 -50.202  1.00  0.00     0.165 HD
HETATM   28  C   UNL     1     -42.041  54.809 -51.623  1.00  0.00     0.102 A 
ENDBRANCH  18  19
ENDBRANCH   2  17
TORSDOF 6
ENDMDL
MODEL 8
REMARK VINA RESULT:      -7.4      2.111      2.376
REMARK  6 active torsions:
REMARK  status: ('A' for Active; 'I' for Inactive)
REMARK    1  A    between atoms: C_2  and  C_3 
REMARK    2  A    between atoms: C_7  and  O_8 
REMARK    3  A    between atoms: O_8  and  C_9 
REMARK    4  A    between atoms: C_9  and  C_10 
REMARK       I    between atoms: C_10  and  N_11 
REMARK    5  A    between atoms: N_11  and  N_12 
REMARK    6  A    between atoms: C_13  and  C_14 
ROOT
HETATM    1  C   UNL     1     -42.121  57.558 -51.327  1.00  0.00     0.261 C 
HETATM    2  N   UNL     1     -42.625  58.485 -52.206  1.00  0.00    -0.246 N 
HETATM    3  O   UNL     1     -41.315  57.908 -50.461  1.00  0.00    -0.269 OA
HETATM    4  H   UNL     1     -42.332  59.446 -52.060  1.00  0.00     0.192 HD
ENDROOT
BRANCH   1   5
HETATM    5  C   UNL     1     -42.553  56.105 -51.494  1.00  0.00     0.280 C 
BRANCH   5   6
HETATM    6  O   UNL     1     -42.223  55.637 -52.795  1.00  0.00    -0.341 OA
BRANCH   6   7
HETATM    7  C   UNL     1     -41.504  54.474 -52.877  1.00  0.00     0.086 A 
HETATM    8  C   UNL     1     -41.576  53.757 -54.078  1.00  0.00     0.044 A 
HETATM    9  C   UNL     1     -40.907  52.536 -54.227  1.00  0.00     0.029 A 
HETATM   10 BR   UNL     1     -42.573  54.405 -55.563  1.00  0.00    -0.048 Br
HETATM   11  C   UNL     1     -40.151  51.998 -53.175  1.00  0.00    -0.053 A 
HETATM   12  C   UNL     1     -40.088  52.716 -51.973  1.00  0.00     0.010 A 
HETATM   13  C   UNL     1     -40.752  53.940 -51.827  1.00  0.00     0.039 A 
BRANCH  11  14
HETATM   14  C   UNL     1     -39.475  50.650 -53.347  1.00  0.00     0.010 C 
HETATM   15  C   UNL     1     -39.981  49.957 -54.616  1.00  0.00     0.015 C 
HETATM   16  C   UNL     1     -39.637  49.732 -52.131  1.00  0.00     0.015 C 
ENDBRANCH  11  14
ENDBRANCH   6   7
ENDBRANCH   5   6
ENDBRANCH   1   5
BRANCH   2  17
HETATM   17  N   UNL     1     -43.510  58.164 -53.189  1.00  0.00    -0.184 NA
HETATM   18  C   UNL     1     -43.115  58.434 -54.392  1.00  0.00     0.152 C 
BRANCH  18  19
HETATM   19  C   UNL     1     -43.989  58.165 -55.514  1.00  0.00     0.011 A 
HETATM   20  C   UNL     1     -43.608  57.963 -56.879  1.00  0.00     0.004 A 
HETATM   21  C   UNL     1     -44.779  57.750 -57.610  1.00  0.00     0.043 A 
HETATM   22  C   UNL     1     -42.376  57.937 -57.567  1.00  0.00     0.014 A 
HETATM   23  C   UNL     1     -44.779  57.517 -58.991  1.00  0.00     0.030 A 
HETATM   24  N   UNL     1     -45.829  57.823 -56.725  1.00  0.00    -0.364 N 
HETATM   25  C   UNL     1     -43.544  57.496 -59.646  1.00  0.00     0.002 A 
HETATM   26  C   UNL     1     -42.359  57.703 -58.947  1.00  0.00     0.001 A 
HETATM   27  H   UNL     1     -46.801  57.715 -56.978  1.00  0.00     0.165 HD
HETATM   28  C   UNL     1     -45.366  58.066 -55.462  1.00  0.00     0.102 A 
ENDBRANCH  18  19
ENDBRANCH   2  17
TORSDOF 6
ENDMDL
MODEL 9
REMARK VINA RESULT:      -7.4      3.913      6.440
REMARK  6 active torsions:
REMARK  status: ('A' for Active; 'I' for Inactive)
REMARK    1  A    between atoms: C_2  and  C_3 
REMARK    2  A    between atoms: C_7  and  O_8 
REMARK    3  A    between atoms: O_8  and  C_9 
REMARK    4  A    between atoms: C_9  and  C_10 
REMARK       I    between atoms: C_10  and  N_11 
REMARK    5  A    between atoms: N_11  and  N_12 
REMARK    6  A    between atoms: C_13  and  C_14 
ROOT
HETATM    1  C   UNL     1     -43.539  55.404 -51.015  1.00  0.00     0.261 C 
HETATM    2  N   UNL     1     -44.417  56.447 -51.181  1.00  0.00    -0.246 N 
HETATM    3  O   UNL     1     -43.956  54.243 -51.026  1.00  0.00    -0.269 OA
HETATM    4  H   UNL     1     -45.384  56.195 -51.356  1.00  0.00     0.192 HD
ENDROOT
BRANCH   1   5
HETATM    5  C   UNL     1     -42.070  55.737 -50.774  1.00  0.00     0.280 C 
BRANCH   5   6
HETATM    6  O   UNL     1     -41.328  55.604 -51.979  1.00  0.00    -0.341 OA
BRANCH   6   7
HETATM    7  C   UNL     1     -40.810  54.368 -52.261  1.00  0.00     0.086 A 
HETATM    8  C   UNL     1     -40.799  53.966 -53.603  1.00  0.00     0.044 A 
HETATM    9  C   UNL     1     -40.329  52.699 -53.969  1.00  0.00     0.029 A 
HETATM   10 BR   UNL     1     -41.408  55.119 -54.988  1.00  0.00    -0.048 Br
HETATM   11  C   UNL     1     -39.862  51.798 -53.001  1.00  0.00    -0.053 A 
HETATM   12  C   UNL     1     -39.882  52.201 -51.659  1.00  0.00     0.010 A 
HETATM   13  C   UNL     1     -40.347  53.471 -51.294  1.00  0.00     0.039 A 
BRANCH  11  14
HETATM   14  C   UNL     1     -39.403  50.414 -53.422  1.00  0.00     0.010 C 
HETATM   15  C   UNL     1     -40.139  49.969 -54.689  1.00  0.00     0.015 C 
HETATM   16  C   UNL     1     -39.551  49.365 -52.315  1.00  0.00     0.015 C 
ENDBRANCH  11  14
ENDBRANCH   6   7
ENDBRANCH   5   6
ENDBRANCH   1   5
BRANCH   2  17
HETATM   17  N   UNL     1     -44.024  57.751 -51.171  1.00  0.00    -0.184 NA
HETATM   18  C   UNL     1     -44.984  58.611 -51.053  1.00  0.00     0.152 C 
BRANCH  18  19
HETATM   19  C   UNL     1     -44.685  60.027 -51.062  1.00  0.00     0.011 A 
HETATM   20  C   UNL     1     -44.795  60.944 -49.967  1.00  0.00     0.004 A 
HETATM   21  C   UNL     1     -44.418  62.202 -50.438  1.00  0.00     0.043 A 
HETATM   22  C   UNL     1     -45.176  60.822 -48.613  1.00  0.00     0.014 A 
HETATM   23  C   UNL     1     -44.407  63.344 -49.627  1.00  0.00     0.030 A 
HETATM   24  N   UNL     1     -44.096  62.059 -51.767  1.00  0.00    -0.364 N 
HETATM   25  C   UNL     1     -44.789  63.194 -48.291  1.00  0.00     0.002 A 
HETATM   26  C   UNL     1     -45.168  61.953 -47.788  1.00  0.00     0.001 A 
HETATM   27  H   UNL     1     -43.795  62.812 -52.370  1.00  0.00     0.165 HD
HETATM   28  C   UNL     1     -44.248  60.756 -52.151  1.00  0.00     0.102 A 
ENDBRANCH  18  19
ENDBRANCH   2  17
TORSDOF 6
ENDMDL
MODEL 10
REMARK VINA RESULT:      -7.4      3.364      4.660
REMARK  6 active torsions:
REMARK  status: ('A' for Active; 'I' for Inactive)
REMARK    1  A    between atoms: C_2  and  C_3 
REMARK    2  A    between atoms: C_7  and  O_8 
REMARK    3  A    between atoms: O_8  and  C_9 
REMARK    4  A    between atoms: C_9  and  C_10 
REMARK       I    between atoms: C_10  and  N_11 
REMARK    5  A    between atoms: N_11  and  N_12 
REMARK    6  A    between atoms: C_13  and  C_14 
ROOT
HETATM    1  C   UNL     1     -43.515  55.401 -50.804  1.00  0.00     0.261 C 
HETATM    2  N   UNL     1     -44.314  56.370 -51.358  1.00  0.00    -0.246 N 
HETATM    3  O   UNL     1     -43.995  54.301 -50.516  1.00  0.00    -0.269 OA
HETATM    4  H   UNL     1     -45.274  56.105 -51.549  1.00  0.00     0.192 HD
ENDROOT
BRANCH   1   5
HETATM    5  C   UNL     1     -42.057  55.749 -50.521  1.00  0.00     0.280 C 
BRANCH   5   6
HETATM    6  O   UNL     1     -41.287  55.659 -51.712  1.00  0.00    -0.341 OA
BRANCH   6   7
HETATM    7  C   UNL     1     -40.812  54.421 -52.057  1.00  0.00     0.086 A 
HETATM    8  C   UNL     1     -40.782  54.101 -53.420  1.00  0.00     0.044 A 
HETATM    9  C   UNL     1     -40.355  52.839 -53.852  1.00  0.00     0.029 A 
HETATM   10 BR   UNL     1     -41.309  55.358 -54.747  1.00  0.00    -0.048 Br
HETATM   11  C   UNL     1     -39.949  51.864 -52.930  1.00  0.00    -0.053 A 
HETATM   12  C   UNL     1     -39.987  52.186 -51.567  1.00  0.00     0.010 A 
HETATM   13  C   UNL     1     -40.410  53.450 -51.136  1.00  0.00     0.039 A 
BRANCH  11  14
HETATM   14  C   UNL     1     -39.535  50.489 -53.424  1.00  0.00     0.010 C 
HETATM   15  C   UNL     1     -40.436  50.042 -54.579  1.00  0.00     0.015 C 
HETATM   16  C   UNL     1     -39.513  49.430 -52.317  1.00  0.00     0.015 C 
ENDBRANCH  11  14
ENDBRANCH   6   7
ENDBRANCH   5   6
ENDBRANCH   1   5
BRANCH   2  17
HETATM   17  N   UNL     1     -43.850  57.607 -51.690  1.00  0.00    -0.184 NA
HETATM   18  C   UNL     1     -43.766  57.836 -52.961  1.00  0.00     0.152 C 
BRANCH  18  19
HETATM   19  C   UNL     1     -43.255  59.107 -53.430  1.00  0.00     0.011 A 
HETATM   20  C   UNL     1     -43.783  60.409 -53.153  1.00  0.00     0.004 A 
HETATM   21  C   UNL     1     -42.981  61.334 -53.824  1.00  0.00     0.043 A 
HETATM   22  C   UNL     1     -44.867  60.892 -52.390  1.00  0.00     0.014 A 
HETATM   23  C   UNL     1     -43.211  62.715 -53.772  1.00  0.00     0.030 A 
HETATM   24  N   UNL     1     -42.007  60.623 -54.486  1.00  0.00    -0.364 N 
HETATM   25  C   UNL     1     -44.291  63.165 -53.009  1.00  0.00     0.002 A 
HETATM   26  C   UNL     1     -45.109  62.269 -52.326  1.00  0.00     0.001 A 
HETATM   27  H   UNL     1     -41.288  61.036 -55.063  1.00  0.00     0.165 HD
HETATM   28  C   UNL     1     -42.159  59.285 -54.252  1.00  0.00     0.102 A 
ENDBRANCH  18  19
ENDBRANCH   2  17
TORSDOF 6
ENDMDL
