MODEL 1
REMARK VINA RESULT:      -9.5      0.000      0.000
REMARK  7 active torsions:
REMARK  status: ('A' for Active; 'I' for Inactive)
REMARK    1  A    between atoms: C_3  and  C_4 
REMARK    2  A    between atoms: C_4  and  C_5 
REMARK    3  A    between atoms: C_5  and  C_6 
REMARK       I    between atoms: C_6  and  N_7 
REMARK    4  A    between atoms: N_7  and  C_8 
REMARK    5  A    between atoms: C_8  and  C_9 
REMARK    6  A    between atoms: C_9  and  C_10 
REMARK    7  A    between atoms: C_29  and  O_30 
ROOT
HETATM    1  C   UNL     1     -42.935  56.600 -52.528  1.00  0.00     0.107 C 
ENDROOT
BRANCH   1   2
HETATM    2  C   UNL     1     -41.509  56.245 -52.969  1.00  0.00     0.055 C 
BRANCH   2   3
HETATM    3  C   UNL     1     -41.064  54.788 -53.039  1.00  0.00     0.025 A 
HETATM    4  C   UNL     1     -40.736  54.092 -51.922  1.00  0.00    -0.037 A 
HETATM    5  C   UNL     1     -40.711  54.703 -50.537  1.00  0.00     0.050 C 
HETATM    6  C   UNL     1     -40.341  52.671 -52.021  1.00  0.00     0.005 A 
HETATM    7  C   UNL     1     -40.247  52.073 -53.279  1.00  0.00     0.099 A 
HETATM    8  C   UNL     1     -40.049  51.872 -50.908  1.00  0.00     0.017 A 
HETATM    9  O   UNL     1     -40.554  52.826 -54.427  1.00  0.00    -0.274 OA
HETATM   10  C   UNL     1     -39.857  50.731 -53.472  1.00  0.00     0.006 A 
HETATM   11  C   UNL     1     -40.965  54.147 -54.380  1.00  0.00     0.295 A 
HETATM   12  O   UNL     1     -41.215  54.743 -55.422  1.00  0.00    -0.259 OA
HETATM   13  C   UNL     1     -39.760  50.135 -54.847  1.00  0.00     0.054 C 
HETATM   14  C   UNL     1     -39.567  49.978 -52.331  1.00  0.00     0.074 A 
HETATM   15  C   UNL     1     -39.663  50.538 -51.062  1.00  0.00     0.038 A 
BRANCH  14  16
HETATM   16  O   UNL     1     -39.181  48.669 -52.375  1.00  0.00    -0.360 OA
HETATM   17  H   UNL     1     -39.730  48.186 -53.011  1.00  0.00     0.217 HD
ENDBRANCH  14  16
ENDBRANCH   2   3
ENDBRANCH   1   2
BRANCH   1  18
HETATM   18  C   UNL     1     -43.850  56.747 -53.729  1.00  0.00     0.217 C 
HETATM   19  N   UNL     1     -44.131  58.061 -54.046  1.00  0.00    -0.361 N 
HETATM   20  H   UNL     1     -43.946  58.761 -53.339  1.00  0.00     0.162 HD
HETATM   21  O   UNL     1     -44.297  55.794 -54.358  1.00  0.00    -0.274 OA
BRANCH  19  22
HETATM   22  C   UNL     1     -45.102  58.362 -55.085  1.00  0.00     0.127 C 
BRANCH  22  23
HETATM   23  C   UNL     1     -44.462  58.975 -56.330  1.00  0.00     0.060 C 
BRANCH  23  24
HETATM   24  C   UNL     1     -43.764  57.946 -57.162  1.00  0.00    -0.029 A 
HETATM   25  C   UNL     1     -44.318  57.219 -58.264  1.00  0.00    -0.000 A 
HETATM   26  C   UNL     1     -43.313  56.390 -58.767  1.00  0.00     0.043 A 
HETATM   27  C   UNL     1     -45.584  57.197 -58.886  1.00  0.00     0.038 A 
HETATM   28  C   UNL     1     -43.505  55.540 -59.862  1.00  0.00     0.032 A 
HETATM   29  N   UNL     1     -42.194  56.601 -57.996  1.00  0.00    -0.365 N 
HETATM   30  C   UNL     1     -44.769  55.534 -60.463  1.00  0.00     0.026 A 
HETATM   31  C   UNL     1     -45.789  56.349 -59.979  1.00  0.00     0.035 A 
HETATM   32 CL   UNL     1     -47.334  56.315 -60.741  1.00  0.00    -0.084 Cl
HETATM   33  H   UNL     1     -41.308  56.135 -58.135  1.00  0.00     0.165 HD
HETATM   34  C   UNL     1     -42.453  57.532 -57.027  1.00  0.00     0.096 A 
ENDBRANCH  23  24
ENDBRANCH  22  23
ENDBRANCH  19  22
ENDBRANCH   1  18
TORSDOF 7
ENDMDL
MODEL 2
REMARK VINA RESULT:      -9.5      1.184      2.007
REMARK  7 active torsions:
REMARK  status: ('A' for Active; 'I' for Inactive)
REMARK    1  A    between atoms: C_3  and  C_4 
REMARK    2  A    between atoms: C_4  and  C_5 
REMARK    3  A    between atoms: C_5  and  C_6 
REMARK       I    between atoms: C_6  and  N_7 
REMARK    4  A    between atoms: N_7  and  C_8 
REMARK    5  A    between atoms: C_8  and  C_9 
REMARK    6  A    between atoms: C_9  and  C_10 
REMARK    7  A    between atoms: C_29  and  O_30 
ROOT
HETATM    1  C   UNL     1     -42.796  56.774 -52.534  1.00  0.00     0.107 C 
ENDROOT
BRANCH   1   2
HETATM    2  C   UNL     1     -41.382  56.290 -52.878  1.00  0.00     0.055 C 
BRANCH   2   3
HETATM    3  C   UNL     1     -40.989  54.834 -52.653  1.00  0.00     0.025 A 
HETATM    4  C   UNL     1     -40.760  53.992 -53.691  1.00  0.00    -0.037 A 
HETATM    5  C   UNL     1     -40.937  54.389 -55.141  1.00  0.00     0.050 C 
HETATM    6  C   UNL     1     -40.347  52.595 -53.438  1.00  0.00     0.005 A 
HETATM    7  C   UNL     1     -40.260  52.135 -52.123  1.00  0.00     0.099 A 
HETATM    8  C   UNL     1     -40.033  51.686 -54.457  1.00  0.00     0.017 A 
HETATM    9  O   UNL     1     -40.542  53.015 -51.062  1.00  0.00    -0.274 OA
HETATM   10  C   UNL     1     -39.897  50.814 -51.786  1.00  0.00     0.006 A 
HETATM   11  C   UNL     1     -40.894  54.341 -51.250  1.00  0.00     0.295 A 
HETATM   12  O   UNL     1     -41.127  55.052 -50.279  1.00  0.00    -0.259 OA
HETATM   13  C   UNL     1     -39.828  50.362 -50.356  1.00  0.00     0.054 C 
HETATM   14  C   UNL     1     -39.602  49.943 -52.839  1.00  0.00     0.074 A 
HETATM   15  C   UNL     1     -39.665  50.372 -54.160  1.00  0.00     0.038 A 
BRANCH  14  16
HETATM   16  O   UNL     1     -39.235  48.641 -52.654  1.00  0.00    -0.360 OA
HETATM   17  H   UNL     1     -38.625  48.368 -53.355  1.00  0.00     0.217 HD
ENDBRANCH  14  16
ENDBRANCH   2   3
ENDBRANCH   1   2
BRANCH   1  18
HETATM   18  C   UNL     1     -43.699  56.712 -53.752  1.00  0.00     0.217 C 
HETATM   19  N   UNL     1     -44.122  57.953 -54.184  1.00  0.00    -0.361 N 
HETATM   20  H   UNL     1     -44.032  58.727 -53.538  1.00  0.00     0.162 HD
HETATM   21  O   UNL     1     -44.023  55.663 -54.300  1.00  0.00    -0.274 OA
BRANCH  19  22
HETATM   22  C   UNL     1     -45.101  58.051 -55.254  1.00  0.00     0.127 C 
BRANCH  22  23
HETATM   23  C   UNL     1     -44.509  58.618 -56.543  1.00  0.00     0.060 C 
BRANCH  23  24
HETATM   24  C   UNL     1     -43.924  57.545 -57.407  1.00  0.00    -0.029 A 
HETATM   25  C   UNL     1     -44.545  56.923 -58.537  1.00  0.00    -0.000 A 
HETATM   26  C   UNL     1     -43.636  56.003 -59.062  1.00  0.00     0.043 A 
HETATM   27  C   UNL     1     -45.799  57.066 -59.167  1.00  0.00     0.038 A 
HETATM   28  C   UNL     1     -43.913  55.218 -60.187  1.00  0.00     0.032 A 
HETATM   29  N   UNL     1     -42.508  56.059 -58.277  1.00  0.00    -0.365 N 
HETATM   30  C   UNL     1     -45.163  55.375 -60.795  1.00  0.00     0.026 A 
HETATM   31  C   UNL     1     -46.089  56.284 -60.289  1.00  0.00     0.035 A 
HETATM   32 CL   UNL     1     -47.620  56.451 -61.061  1.00  0.00    -0.084 Cl
HETATM   33  H   UNL     1     -41.679  55.501 -58.427  1.00  0.00     0.165 HD
HETATM   34  C   UNL     1     -42.670  56.980 -57.279  1.00  0.00     0.096 A 
ENDBRANCH  23  24
ENDBRANCH  22  23
ENDBRANCH  19  22
ENDBRANCH   1  18
TORSDOF 7
ENDMDL
MODEL 3
REMARK VINA RESULT:      -9.4      2.068      2.428
REMARK  7 active torsions:
REMARK  status: ('A' for Active; 'I' for Inactive)
REMARK    1  A    between atoms: C_3  and  C_4 
REMARK    2  A    between atoms: C_4  and  C_5 
REMARK    3  A    between atoms: C_5  and  C_6 
REMARK       I    between atoms: C_6  and  N_7 
REMARK    4  A    between atoms: N_7  and  C_8 
REMARK    5  A    between atoms: C_8  and  C_9 
REMARK    6  A    between atoms: C_9  and  C_10 
REMARK    7  A    between atoms: C_29  and  O_30 
ROOT
HETATM    1  C   UNL     1     -40.488  57.538 -51.444  1.00  0.00     0.107 C 
ENDROOT
BRANCH   1   2
HETATM    2  C   UNL     1     -41.515  56.410 -51.610  1.00  0.00     0.055 C 
BRANCH   2   3
HETATM    3  C   UNL     1     -41.055  54.990 -51.922  1.00  0.00     0.025 A 
HETATM    4  C   UNL     1     -40.863  54.074 -50.940  1.00  0.00    -0.037 A 
HETATM    5  C   UNL     1     -41.015  54.388 -49.468  1.00  0.00     0.050 C 
HETATM    6  C   UNL     1     -40.450  52.696 -51.280  1.00  0.00     0.005 A 
HETATM    7  C   UNL     1     -40.198  52.367 -52.613  1.00  0.00     0.099 A 
HETATM    8  C   UNL     1     -40.294  51.680 -50.327  1.00  0.00     0.017 A 
HETATM    9  O   UNL     1     -40.364  53.344 -53.611  1.00  0.00    -0.274 OA
HETATM   10  C   UNL     1     -39.779  51.085 -53.028  1.00  0.00     0.006 A 
HETATM   11  C   UNL     1     -40.786  54.635 -53.344  1.00  0.00     0.295 A 
HETATM   12  O   UNL     1     -40.910  55.436 -54.264  1.00  0.00    -0.259 OA
HETATM   13  C   UNL     1     -39.508  50.781 -54.473  1.00  0.00     0.054 C 
HETATM   14  C   UNL     1     -39.628  50.109 -52.039  1.00  0.00     0.074 A 
HETATM   15  C   UNL     1     -39.884  50.399 -50.704  1.00  0.00     0.038 A 
BRANCH  14  16
HETATM   16  O   UNL     1     -39.231  48.829 -52.304  1.00  0.00    -0.360 OA
HETATM   17  H   UNL     1     -39.507  48.577 -53.197  1.00  0.00     0.217 HD
ENDBRANCH  14  16
ENDBRANCH   2   3
ENDBRANCH   1   2
BRANCH   1  18
HETATM   18  C   UNL     1     -40.498  58.457 -52.651  1.00  0.00     0.217 C 
HETATM   19  N   UNL     1     -41.654  58.365 -53.401  1.00  0.00    -0.361 N 
HETATM   20  H   UNL     1     -42.240  57.552 -53.256  1.00  0.00     0.162 HD
HETATM   21  O   UNL     1     -39.571  59.209 -52.936  1.00  0.00    -0.274 OA
BRANCH  19  22
HETATM   22  C   UNL     1     -41.756  59.079 -54.663  1.00  0.00     0.127 C 
BRANCH  22  23
HETATM   23  C   UNL     1     -43.132  58.933 -55.312  1.00  0.00     0.060 C 
BRANCH  23  24
HETATM   24  C   UNL     1     -43.204  57.732 -56.201  1.00  0.00    -0.029 A 
HETATM   25  C   UNL     1     -42.895  57.684 -57.599  1.00  0.00    -0.000 A 
HETATM   26  C   UNL     1     -43.068  56.365 -58.022  1.00  0.00     0.043 A 
HETATM   27  C   UNL     1     -42.475  58.644 -58.543  1.00  0.00     0.038 A 
HETATM   28  C   UNL     1     -42.842  55.952 -59.340  1.00  0.00     0.032 A 
HETATM   29  N   UNL     1     -43.473  55.641 -56.925  1.00  0.00    -0.365 N 
HETATM   30  C   UNL     1     -42.427  56.922 -60.259  1.00  0.00     0.026 A 
HETATM   31  C   UNL     1     -42.249  58.245 -59.864  1.00  0.00     0.035 A 
HETATM   32 CL   UNL     1     -41.740  59.414 -61.023  1.00  0.00    -0.084 Cl
HETATM   33  H   UNL     1     -43.670  54.649 -56.935  1.00  0.00     0.165 HD
HETATM   34  C   UNL     1     -43.560  56.451 -55.826  1.00  0.00     0.096 A 
ENDBRANCH  23  24
ENDBRANCH  22  23
ENDBRANCH  19  22
ENDBRANCH   1  18
TORSDOF 7
ENDMDL
MODEL 4
REMARK VINA RESULT:      -9.3      2.408      3.137
REMARK  7 active torsions:
REMARK  status: ('A' for Active; 'I' for Inactive)
REMARK    1  A    between atoms: C_3  and  C_4 
REMARK    2  A    between atoms: C_4  and  C_5 
REMARK    3  A    between atoms: C_5  and  C_6 
REMARK       I    between atoms: C_6  and  N_7 
REMARK    4  A    between atoms: N_7  and  C_8 
REMARK    5  A    between atoms: C_8  and  C_9 
REMARK    6  A    between atoms: C_9  and  C_10 
REMARK    7  A    between atoms: C_29  and  O_30 
ROOT
HETATM    1  C   UNL     1     -40.579  57.566 -51.436  1.00  0.00     0.107 C 
ENDROOT
BRANCH   1   2
HETATM    2  C   UNL     1     -41.619  56.459 -51.649  1.00  0.00     0.055 C 
BRANCH   2   3
HETATM    3  C   UNL     1     -41.193  54.995 -51.677  1.00  0.00     0.025 A 
HETATM    4  C   UNL     1     -40.856  54.376 -52.836  1.00  0.00    -0.037 A 
HETATM    5  C   UNL     1     -40.939  55.045 -54.191  1.00  0.00     0.050 C 
HETATM    6  C   UNL     1     -40.415  52.965 -52.823  1.00  0.00     0.005 A 
HETATM    7  C   UNL     1     -40.410  52.260 -51.619  1.00  0.00     0.099 A 
HETATM    8  C   UNL     1     -39.992  52.279 -53.970  1.00  0.00     0.017 A 
HETATM    9  O   UNL     1     -40.802  52.911 -50.435  1.00  0.00    -0.274 OA
HETATM   10  C   UNL     1     -40.026  50.907 -51.515  1.00  0.00     0.006 A 
HETATM   11  C   UNL     1     -41.186  54.241 -50.392  1.00  0.00     0.295 A 
HETATM   12  O   UNL     1     -41.516  54.744 -49.324  1.00  0.00    -0.259 OA
HETATM   13  C   UNL     1     -40.049  50.187 -50.198  1.00  0.00     0.054 C 
HETATM   14  C   UNL     1     -39.622  50.264 -52.688  1.00  0.00     0.074 A 
HETATM   15  C   UNL     1     -39.602  50.940 -53.903  1.00  0.00     0.038 A 
BRANCH  14  16
HETATM   16  O   UNL     1     -39.224  48.958 -52.728  1.00  0.00    -0.360 OA
HETATM   17  H   UNL     1     -38.470  48.826 -52.135  1.00  0.00     0.217 HD
ENDBRANCH  14  16
ENDBRANCH   2   3
ENDBRANCH   1   2
BRANCH   1  18
HETATM   18  C   UNL     1     -40.525  58.492 -52.636  1.00  0.00     0.217 C 
HETATM   19  N   UNL     1     -41.696  58.512 -53.366  1.00  0.00    -0.361 N 
HETATM   20  H   UNL     1     -42.352  57.755 -53.216  1.00  0.00     0.162 HD
HETATM   21  O   UNL     1     -39.538  59.158 -52.932  1.00  0.00    -0.274 OA
BRANCH  19  22
HETATM   22  C   UNL     1     -41.755  59.243 -54.621  1.00  0.00     0.127 C 
BRANCH  22  23
HETATM   23  C   UNL     1     -43.113  59.124 -55.309  1.00  0.00     0.060 C 
BRANCH  23  24
HETATM   24  C   UNL     1     -43.206  57.891 -56.151  1.00  0.00    -0.029 A 
HETATM   25  C   UNL     1     -42.905  57.783 -57.547  1.00  0.00    -0.000 A 
HETATM   26  C   UNL     1     -43.099  56.451 -57.916  1.00  0.00     0.043 A 
HETATM   27  C   UNL     1     -42.477  58.700 -58.529  1.00  0.00     0.038 A 
HETATM   28  C   UNL     1     -42.884  55.984 -59.218  1.00  0.00     0.032 A 
HETATM   29  N   UNL     1     -43.508  55.776 -56.790  1.00  0.00    -0.365 N 
HETATM   30  C   UNL     1     -42.461  56.910 -60.176  1.00  0.00     0.026 A 
HETATM   31  C   UNL     1     -42.262  58.246 -59.835  1.00  0.00     0.035 A 
HETATM   32 CL   UNL     1     -41.743  59.361 -61.041  1.00  0.00    -0.084 Cl
HETATM   33  H   UNL     1     -43.719  54.788 -56.760  1.00  0.00     0.165 HD
HETATM   34  C   UNL     1     -43.578  56.631 -55.724  1.00  0.00     0.096 A 
ENDBRANCH  23  24
ENDBRANCH  22  23
ENDBRANCH  19  22
ENDBRANCH   1  18
TORSDOF 7
ENDMDL
MODEL 5
REMARK VINA RESULT:      -9.3      2.250      2.993
REMARK  7 active torsions:
REMARK  status: ('A' for Active; 'I' for Inactive)
REMARK    1  A    between atoms: C_3  and  C_4 
REMARK    2  A    between atoms: C_4  and  C_5 
REMARK    3  A    between atoms: C_5  and  C_6 
REMARK       I    between atoms: C_6  and  N_7 
REMARK    4  A    between atoms: N_7  and  C_8 
REMARK    5  A    between atoms: C_8  and  C_9 
REMARK    6  A    between atoms: C_9  and  C_10 
REMARK    7  A    between atoms: C_29  and  O_30 
ROOT
HETATM    1  C   UNL     1     -40.653  57.586 -51.218  1.00  0.00     0.107 C 
ENDROOT
BRANCH   1   2
HETATM    2  C   UNL     1     -41.634  56.409 -51.127  1.00  0.00     0.055 C 
BRANCH   2   3
HETATM    3  C   UNL     1     -41.165  54.990 -51.428  1.00  0.00     0.025 A 
HETATM    4  C   UNL     1     -41.108  54.515 -52.697  1.00  0.00    -0.037 A 
HETATM    5  C   UNL     1     -41.563  55.308 -53.904  1.00  0.00     0.050 C 
HETATM    6  C   UNL     1     -40.617  53.145 -52.956  1.00  0.00     0.005 A 
HETATM    7  C   UNL     1     -40.275  52.326 -51.879  1.00  0.00     0.099 A 
HETATM    8  C   UNL     1     -40.471  52.609 -54.243  1.00  0.00     0.017 A 
HETATM    9  O   UNL     1     -40.380  52.825 -50.569  1.00  0.00    -0.274 OA
HETATM   10  C   UNL     1     -39.819  50.999 -52.030  1.00  0.00     0.006 A 
HETATM   11  C   UNL     1     -40.798  54.113 -50.280  1.00  0.00     0.295 A 
HETATM   12  O   UNL     1     -40.866  54.483 -49.113  1.00  0.00    -0.259 OA
HETATM   13  C   UNL     1     -39.473  50.152 -50.840  1.00  0.00     0.054 C 
HETATM   14  C   UNL     1     -39.699  50.507 -53.332  1.00  0.00     0.074 A 
HETATM   15  C   UNL     1     -40.018  51.300 -54.429  1.00  0.00     0.038 A 
BRANCH  14  16
HETATM   16  O   UNL     1     -39.268  49.243 -53.619  1.00  0.00    -0.360 OA
HETATM   17  H   UNL     1     -38.328  49.261 -53.851  1.00  0.00     0.217 HD
ENDBRANCH  14  16
ENDBRANCH   2   3
ENDBRANCH   1   2
BRANCH   1  18
HETATM   18  C   UNL     1     -41.020  58.505 -52.367  1.00  0.00     0.217 C 
HETATM   19  N   UNL     1     -42.378  58.565 -52.609  1.00  0.00    -0.361 N 
HETATM   20  H   UNL     1     -42.955  57.832 -52.214  1.00  0.00     0.162 HD
HETATM   21  O   UNL     1     -40.194  59.135 -53.020  1.00  0.00    -0.274 OA
BRANCH  19  22
HETATM   22  C   UNL     1     -42.876  59.293 -53.764  1.00  0.00     0.127 C 
BRANCH  22  23
HETATM   23  C   UNL     1     -43.403  58.369 -54.861  1.00  0.00     0.060 C 
BRANCH  23  24
HETATM   24  C   UNL     1     -42.754  58.643 -56.180  1.00  0.00    -0.029 A 
HETATM   25  C   UNL     1     -42.827  57.828 -57.355  1.00  0.00    -0.000 A 
HETATM   26  C   UNL     1     -42.103  58.472 -58.359  1.00  0.00     0.043 A 
HETATM   27  C   UNL     1     -43.454  56.601 -57.658  1.00  0.00     0.038 A 
HETATM   28  C   UNL     1     -41.971  57.956 -59.654  1.00  0.00     0.032 A 
HETATM   29  N   UNL     1     -41.601  59.631 -57.814  1.00  0.00    -0.365 N 
HETATM   30  C   UNL     1     -42.601  56.738 -59.931  1.00  0.00     0.026 A 
HETATM   31  C   UNL     1     -43.328  56.073 -58.947  1.00  0.00     0.035 A 
HETATM   32 CL   UNL     1     -44.088  54.573 -59.322  1.00  0.00    -0.084 Cl
HETATM   33  H   UNL     1     -41.037  60.302 -58.316  1.00  0.00     0.165 HD
HETATM   34  C   UNL     1     -41.984  59.744 -56.505  1.00  0.00     0.096 A 
ENDBRANCH  23  24
ENDBRANCH  22  23
ENDBRANCH  19  22
ENDBRANCH   1  18
TORSDOF 7
ENDMDL
MODEL 6
REMARK VINA RESULT:      -9.2      3.194      4.608
REMARK  7 active torsions:
REMARK  status: ('A' for Active; 'I' for Inactive)
REMARK    1  A    between atoms: C_3  and  C_4 
REMARK    2  A    between atoms: C_4  and  C_5 
REMARK    3  A    between atoms: C_5  and  C_6 
REMARK       I    between atoms: C_6  and  N_7 
REMARK    4  A    between atoms: N_7  and  C_8 
REMARK    5  A    between atoms: C_8  and  C_9 
REMARK    6  A    between atoms: C_9  and  C_10 
REMARK    7  A    between atoms: C_29  and  O_30 
ROOT
HETATM    1  C   UNL     1     -40.333  57.580 -50.608  1.00  0.00     0.107 C 
ENDROOT
BRANCH   1   2
HETATM    2  C   UNL     1     -41.384  56.463 -50.650  1.00  0.00     0.055 C 
BRANCH   2   3
HETATM    3  C   UNL     1     -40.988  55.046 -51.051  1.00  0.00     0.025 A 
HETATM    4  C   UNL     1     -40.935  54.665 -52.351  1.00  0.00    -0.037 A 
HETATM    5  C   UNL     1     -41.325  55.569 -53.501  1.00  0.00     0.050 C 
HETATM    6  C   UNL     1     -40.514  53.293 -52.707  1.00  0.00     0.005 A 
HETATM    7  C   UNL     1     -40.236  52.378 -51.690  1.00  0.00     0.099 A 
HETATM    8  C   UNL     1     -40.375  52.846 -54.028  1.00  0.00     0.017 A 
HETATM    9  O   UNL     1     -40.337  52.784 -50.347  1.00  0.00    -0.274 OA
HETATM   10  C   UNL     1     -39.850  51.043 -51.934  1.00  0.00     0.006 A 
HETATM   11  C   UNL     1     -40.689  54.068 -49.968  1.00  0.00     0.295 A 
HETATM   12  O   UNL     1     -40.757  54.352 -48.777  1.00  0.00    -0.259 OA
HETATM   13  C   UNL     1     -39.571  50.091 -50.807  1.00  0.00     0.054 C 
HETATM   14  C   UNL     1     -39.735  50.643 -53.268  1.00  0.00     0.074 A 
HETATM   15  C   UNL     1     -39.991  51.533 -54.306  1.00  0.00     0.038 A 
BRANCH  14  16
HETATM   16  O   UNL     1     -39.368  49.382 -53.644  1.00  0.00    -0.360 OA
HETATM   17  H   UNL     1     -39.265  48.823 -52.859  1.00  0.00     0.217 HD
ENDBRANCH  14  16
ENDBRANCH   2   3
ENDBRANCH   1   2
BRANCH   1  18
HETATM   18  C   UNL     1     -40.920  58.891 -51.098  1.00  0.00     0.217 C 
HETATM   19  N   UNL     1     -41.866  59.421 -50.243  1.00  0.00    -0.361 N 
HETATM   20  H   UNL     1     -42.266  58.801 -49.549  1.00  0.00     0.162 HD
HETATM   21  O   UNL     1     -40.588  59.429 -52.149  1.00  0.00    -0.274 OA
BRANCH  19  22
HETATM   22  C   UNL     1     -42.618  60.600 -50.638  1.00  0.00     0.127 C 
BRANCH  22  23
HETATM   23  C   UNL     1     -44.115  60.325 -50.775  1.00  0.00     0.060 C 
BRANCH  23  24
HETATM   24  C   UNL     1     -44.383  59.065 -51.535  1.00  0.00    -0.029 A 
HETATM   25  C   UNL     1     -44.210  58.861 -52.943  1.00  0.00    -0.000 A 
HETATM   26  C   UNL     1     -44.548  57.536 -53.220  1.00  0.00     0.043 A 
HETATM   27  C   UNL     1     -43.788  59.686 -54.006  1.00  0.00     0.038 A 
HETATM   28  C   UNL     1     -44.484  56.987 -54.506  1.00  0.00     0.032 A 
HETATM   29  N   UNL     1     -44.918  56.957 -52.028  1.00  0.00    -0.365 N 
HETATM   30  C   UNL     1     -44.063  57.823 -55.545  1.00  0.00     0.026 A 
HETATM   31  C   UNL     1     -43.723  59.151 -55.296  1.00  0.00     0.035 A 
HETATM   32 CL   UNL     1     -43.212  60.153 -56.601  1.00  0.00    -0.084 Cl
HETATM   33  H   UNL     1     -45.210  55.995 -51.926  1.00  0.00     0.165 HD
HETATM   34  C   UNL     1     -44.825  57.866 -51.010  1.00  0.00     0.096 A 
ENDBRANCH  23  24
ENDBRANCH  22  23
ENDBRANCH  19  22
ENDBRANCH   1  18
TORSDOF 7
ENDMDL
MODEL 7
REMARK VINA RESULT:      -9.2      1.676      1.906
REMARK  7 active torsions:
REMARK  status: ('A' for Active; 'I' for Inactive)
REMARK    1  A    between atoms: C_3  and  C_4 
REMARK    2  A    between atoms: C_4  and  C_5 
REMARK    3  A    between atoms: C_5  and  C_6 
REMARK       I    between atoms: C_6  and  N_7 
REMARK    4  A    between atoms: N_7  and  C_8 
REMARK    5  A    between atoms: C_8  and  C_9 
REMARK    6  A    between atoms: C_9  and  C_10 
REMARK    7  A    between atoms: C_29  and  O_30 
ROOT
HETATM    1  C   UNL     1     -40.675  57.317 -53.590  1.00  0.00     0.107 C 
ENDROOT
BRANCH   1   2
HETATM    2  C   UNL     1     -41.607  56.194 -53.117  1.00  0.00     0.055 C 
BRANCH   2   3
HETATM    3  C   UNL     1     -41.146  54.741 -53.156  1.00  0.00     0.025 A 
HETATM    4  C   UNL     1     -40.776  54.084 -52.029  1.00  0.00    -0.037 A 
HETATM    5  C   UNL     1     -40.719  54.737 -50.665  1.00  0.00     0.050 C 
HETATM    6  C   UNL     1     -40.367  52.665 -52.097  1.00  0.00     0.005 A 
HETATM    7  C   UNL     1     -40.303  52.030 -53.338  1.00  0.00     0.099 A 
HETATM    8  C   UNL     1     -40.032  51.904 -50.968  1.00  0.00     0.017 A 
HETATM    9  O   UNL     1     -40.652  52.743 -54.499  1.00  0.00    -0.274 OA
HETATM   10  C   UNL     1     -39.902  50.687 -53.502  1.00  0.00     0.006 A 
HETATM   11  C   UNL     1     -41.078  54.061 -54.479  1.00  0.00     0.295 A 
HETATM   12  O   UNL     1     -41.367  54.621 -55.531  1.00  0.00    -0.259 OA
HETATM   13  C   UNL     1     -39.838  50.050 -54.860  1.00  0.00     0.054 C 
HETATM   14  C   UNL     1     -39.569  49.973 -52.347  1.00  0.00     0.074 A 
HETATM   15  C   UNL     1     -39.635  50.570 -51.093  1.00  0.00     0.038 A 
BRANCH  14  16
HETATM   16  O   UNL     1     -39.168  48.668 -52.363  1.00  0.00    -0.360 OA
HETATM   17  H   UNL     1     -38.820  48.420 -51.494  1.00  0.00     0.217 HD
ENDBRANCH  14  16
ENDBRANCH   2   3
ENDBRANCH   1   2
BRANCH   1  18
HETATM   18  C   UNL     1     -41.451  58.599 -53.823  1.00  0.00     0.217 C 
HETATM   19  N   UNL     1     -42.772  58.386 -54.161  1.00  0.00    -0.361 N 
HETATM   20  H   UNL     1     -43.029  57.459 -54.476  1.00  0.00     0.162 HD
HETATM   21  O   UNL     1     -40.955  59.717 -53.723  1.00  0.00    -0.274 OA
BRANCH  19  22
HETATM   22  C   UNL     1     -43.609  59.509 -54.550  1.00  0.00     0.127 C 
BRANCH  22  23
HETATM   23  C   UNL     1     -44.289  59.297 -55.902  1.00  0.00     0.060 C 
BRANCH  23  24
HETATM   24  C   UNL     1     -43.294  59.191 -57.015  1.00  0.00    -0.029 A 
HETATM   25  C   UNL     1     -43.176  58.117 -57.955  1.00  0.00    -0.000 A 
HETATM   26  C   UNL     1     -42.140  58.442 -58.833  1.00  0.00     0.043 A 
HETATM   27  C   UNL     1     -43.863  56.900 -58.145  1.00  0.00     0.038 A 
HETATM   28  C   UNL     1     -41.755  57.614 -59.894  1.00  0.00     0.032 A 
HETATM   29  N   UNL     1     -41.644  59.662 -58.437  1.00  0.00    -0.365 N 
HETATM   30  C   UNL     1     -42.450  56.412 -60.062  1.00  0.00     0.026 A 
HETATM   31  C   UNL     1     -43.486  56.063 -59.199  1.00  0.00     0.035 A 
HETATM   32 CL   UNL     1     -44.319  54.574 -59.433  1.00  0.00    -0.084 Cl
HETATM   33  H   UNL     1     -40.886  60.147 -58.897  1.00  0.00     0.165 HD
HETATM   34  C   UNL     1     -42.328  60.120 -57.345  1.00  0.00     0.096 A 
ENDBRANCH  23  24
ENDBRANCH  22  23
ENDBRANCH  19  22
ENDBRANCH   1  18
TORSDOF 7
ENDMDL
MODEL 8
REMARK VINA RESULT:      -8.8      2.458      2.895
REMARK  7 active torsions:
REMARK  status: ('A' for Active; 'I' for Inactive)
REMARK    1  A    between atoms: C_3  and  C_4 
REMARK    2  A    between atoms: C_4  and  C_5 
REMARK    3  A    between atoms: C_5  and  C_6 
REMARK       I    between atoms: C_6  and  N_7 
REMARK    4  A    between atoms: N_7  and  C_8 
REMARK    5  A    between atoms: C_8  and  C_9 
REMARK    6  A    between atoms: C_9  and  C_10 
REMARK    7  A    between atoms: C_29  and  O_30 
ROOT
HETATM    1  C   UNL     1     -42.876  56.675 -52.522  1.00  0.00     0.107 C 
ENDROOT
BRANCH   1   2
HETATM    2  C   UNL     1     -41.392  56.297 -52.605  1.00  0.00     0.055 C 
BRANCH   2   3
HETATM    3  C   UNL     1     -40.974  54.837 -52.744  1.00  0.00     0.025 A 
HETATM    4  C   UNL     1     -40.693  54.072 -51.660  1.00  0.00    -0.037 A 
HETATM    5  C   UNL     1     -40.698  54.604 -50.243  1.00  0.00     0.050 C 
HETATM    6  C   UNL     1     -40.324  52.651 -51.828  1.00  0.00     0.005 A 
HETATM    7  C   UNL     1     -40.205  52.123 -53.115  1.00  0.00     0.099 A 
HETATM    8  C   UNL     1     -40.082  51.784 -50.754  1.00  0.00     0.017 A 
HETATM    9  O   UNL     1     -40.461  52.946 -54.227  1.00  0.00    -0.274 OA
HETATM   10  C   UNL     1     -39.836  50.786 -53.372  1.00  0.00     0.006 A 
HETATM   11  C   UNL     1     -40.847  54.271 -54.116  1.00  0.00     0.295 A 
HETATM   12  O   UNL     1     -41.054  54.929 -55.129  1.00  0.00    -0.259 OA
HETATM   13  C   UNL     1     -39.709  50.266 -54.775  1.00  0.00     0.054 C 
HETATM   14  C   UNL     1     -39.596  49.964 -52.268  1.00  0.00     0.074 A 
HETATM   15  C   UNL     1     -39.719  50.453 -50.972  1.00  0.00     0.038 A 
BRANCH  14  16
HETATM   16  O   UNL     1     -39.234  48.651 -52.375  1.00  0.00    -0.360 OA
HETATM   17  H   UNL     1     -38.286  48.556 -52.198  1.00  0.00     0.217 HD
ENDBRANCH  14  16
ENDBRANCH   2   3
ENDBRANCH   1   2
BRANCH   1  18
HETATM   18  C   UNL     1     -43.315  57.414 -53.773  1.00  0.00     0.217 C 
HETATM   19  N   UNL     1     -43.674  56.573 -54.808  1.00  0.00    -0.361 N 
HETATM   20  H   UNL     1     -43.373  55.608 -54.751  1.00  0.00     0.162 HD
HETATM   21  O   UNL     1     -43.348  58.637 -53.859  1.00  0.00    -0.274 OA
BRANCH  19  22
HETATM   22  C   UNL     1     -43.984  57.128 -56.115  1.00  0.00     0.127 C 
BRANCH  22  23
HETATM   23  C   UNL     1     -42.964  56.729 -57.181  1.00  0.00     0.060 C 
BRANCH  23  24
HETATM   24  C   UNL     1     -43.250  57.381 -58.497  1.00  0.00    -0.029 A 
HETATM   25  C   UNL     1     -42.743  58.639 -58.956  1.00  0.00    -0.000 A 
HETATM   26  C   UNL     1     -43.237  58.846 -60.245  1.00  0.00     0.043 A 
HETATM   27  C   UNL     1     -41.898  59.619 -58.394  1.00  0.00     0.038 A 
HETATM   28  C   UNL     1     -42.932  59.981 -61.005  1.00  0.00     0.032 A 
HETATM   29  N   UNL     1     -44.021  57.759 -60.555  1.00  0.00    -0.365 N 
HETATM   30  C   UNL     1     -42.093  60.940 -60.426  1.00  0.00     0.026 A 
HETATM   31  C   UNL     1     -41.588  60.759 -59.141  1.00  0.00     0.035 A 
HETATM   32 CL   UNL     1     -40.560  61.961 -58.458  1.00  0.00    -0.084 Cl
HETATM   33  H   UNL     1     -44.507  57.635 -61.432  1.00  0.00     0.165 HD
HETATM   34  C   UNL     1     -44.038  56.873 -59.512  1.00  0.00     0.096 A 
ENDBRANCH  23  24
ENDBRANCH  22  23
ENDBRANCH  19  22
ENDBRANCH   1  18
TORSDOF 7
ENDMDL
MODEL 9
REMARK VINA RESULT:      -8.7      1.334      1.851
REMARK  7 active torsions:
REMARK  status: ('A' for Active; 'I' for Inactive)
REMARK    1  A    between atoms: C_3  and  C_4 
REMARK    2  A    between atoms: C_4  and  C_5 
REMARK    3  A    between atoms: C_5  and  C_6 
REMARK       I    between atoms: C_6  and  N_7 
REMARK    4  A    between atoms: N_7  and  C_8 
REMARK    5  A    between atoms: C_8  and  C_9 
REMARK    6  A    between atoms: C_9  and  C_10 
REMARK    7  A    between atoms: C_29  and  O_30 
ROOT
HETATM    1  C   UNL     1     -42.884  56.661 -52.990  1.00  0.00     0.107 C 
ENDROOT
BRANCH   1   2
HETATM    2  C   UNL     1     -41.401  56.273 -53.036  1.00  0.00     0.055 C 
BRANCH   2   3
HETATM    3  C   UNL     1     -40.989  54.806 -53.096  1.00  0.00     0.025 A 
HETATM    4  C   UNL     1     -40.667  54.113 -51.976  1.00  0.00    -0.037 A 
HETATM    5  C   UNL     1     -40.617  54.735 -50.597  1.00  0.00     0.050 C 
HETATM    6  C   UNL     1     -40.304  52.683 -52.066  1.00  0.00     0.005 A 
HETATM    7  C   UNL     1     -40.234  52.072 -53.319  1.00  0.00     0.099 A 
HETATM    8  C   UNL     1     -40.021  51.887 -50.947  1.00  0.00     0.017 A 
HETATM    9  O   UNL     1     -40.533  52.821 -54.471  1.00  0.00    -0.274 OA
HETATM   10  C   UNL     1     -39.876  50.720 -53.503  1.00  0.00     0.006 A 
HETATM   11  C   UNL     1     -40.915  54.152 -54.432  1.00  0.00     0.295 A 
HETATM   12  O   UNL     1     -41.161  54.743 -55.477  1.00  0.00    -0.259 OA
HETATM   13  C   UNL     1     -39.804  50.110 -54.872  1.00  0.00     0.054 C 
HETATM   14  C   UNL     1     -39.593  49.971 -52.357  1.00  0.00     0.074 A 
HETATM   15  C   UNL     1     -39.667  50.543 -51.092  1.00  0.00     0.038 A 
BRANCH  14  16
HETATM   16  O   UNL     1     -39.237  48.653 -52.393  1.00  0.00    -0.360 OA
HETATM   17  H   UNL     1     -38.388  48.530 -51.941  1.00  0.00     0.217 HD
ENDBRANCH  14  16
ENDBRANCH   2   3
ENDBRANCH   1   2
BRANCH   1  18
HETATM   18  C   UNL     1     -43.176  57.790 -53.960  1.00  0.00     0.217 C 
HETATM   19  N   UNL     1     -42.157  58.013 -54.864  1.00  0.00    -0.361 N 
HETATM   20  H   UNL     1     -41.248  57.622 -54.648  1.00  0.00     0.162 HD
HETATM   21  O   UNL     1     -44.215  58.443 -53.945  1.00  0.00    -0.274 OA
BRANCH  19  22
HETATM   22  C   UNL     1     -42.227  59.149 -55.768  1.00  0.00     0.127 C 
BRANCH  22  23
HETATM   23  C   UNL     1     -42.487  58.734 -57.216  1.00  0.00     0.060 C 
BRANCH  23  24
HETATM   24  C   UNL     1     -43.943  58.780 -57.556  1.00  0.00    -0.029 A 
HETATM   25  C   UNL     1     -44.648  57.883 -58.422  1.00  0.00    -0.000 A 
HETATM   26  C   UNL     1     -45.988  58.273 -58.430  1.00  0.00     0.043 A 
HETATM   27  C   UNL     1     -44.266  56.767 -59.196  1.00  0.00     0.038 A 
HETATM   28  C   UNL     1     -46.971  57.604 -59.170  1.00  0.00     0.032 A 
HETATM   29  N   UNL     1     -46.093  59.369 -57.606  1.00  0.00    -0.365 N 
HETATM   30  C   UNL     1     -46.569  56.501 -59.930  1.00  0.00     0.026 A 
HETATM   31  C   UNL     1     -45.238  56.093 -59.942  1.00  0.00     0.035 A 
HETATM   32 CL   UNL     1     -44.777  54.731 -60.892  1.00  0.00    -0.084 Cl
HETATM   33  H   UNL     1     -46.955  59.862 -57.417  1.00  0.00     0.165 HD
HETATM   34  C   UNL     1     -44.872  59.684 -57.077  1.00  0.00     0.096 A 
ENDBRANCH  23  24
ENDBRANCH  22  23
ENDBRANCH  19  22
ENDBRANCH   1  18
TORSDOF 7
ENDMDL
MODEL 10
REMARK VINA RESULT:      -8.6      2.683      3.487
REMARK  7 active torsions:
REMARK  status: ('A' for Active; 'I' for Inactive)
REMARK    1  A    between atoms: C_3  and  C_4 
REMARK    2  A    between atoms: C_4  and  C_5 
REMARK    3  A    between atoms: C_5  and  C_6 
REMARK       I    between atoms: C_6  and  N_7 
REMARK    4  A    between atoms: N_7  and  C_8 
REMARK    5  A    between atoms: C_8  and  C_9 
REMARK    6  A    between atoms: C_9  and  C_10 
REMARK    7  A    between atoms: C_29  and  O_30 
ROOT
HETATM    1  C   UNL     1     -42.828  56.723 -52.299  1.00  0.00     0.107 C 
ENDROOT
BRANCH   1   2
HETATM    2  C   UNL     1     -41.361  56.312 -52.114  1.00  0.00     0.055 C 
BRANCH   2   3
HETATM    3  C   UNL     1     -40.975  54.838 -52.048  1.00  0.00     0.025 A 
HETATM    4  C   UNL     1     -40.669  54.134 -53.166  1.00  0.00    -0.037 A 
HETATM    5  C   UNL     1     -40.748  54.713 -54.562  1.00  0.00     0.050 C 
HETATM    6  C   UNL     1     -40.266  52.715 -53.063  1.00  0.00     0.005 A 
HETATM    7  C   UNL     1     -40.268  52.093 -51.814  1.00  0.00     0.099 A 
HETATM    8  C   UNL     1     -39.875  51.943 -54.165  1.00  0.00     0.017 A 
HETATM    9  O   UNL     1     -40.629  52.832 -50.673  1.00  0.00    -0.274 OA
HETATM   10  C   UNL     1     -39.921  50.739 -51.623  1.00  0.00     0.006 A 
HETATM   11  C   UNL     1     -40.976  54.171 -50.716  1.00  0.00     0.295 A 
HETATM   12  O   UNL     1     -41.280  54.754 -49.680  1.00  0.00    -0.259 OA
HETATM   13  C   UNL     1     -39.949  50.109 -50.260  1.00  0.00     0.054 C 
HETATM   14  C   UNL     1     -39.547  50.008 -52.754  1.00  0.00     0.074 A 
HETATM   15  C   UNL     1     -39.521  50.600 -54.011  1.00  0.00     0.038 A 
BRANCH  14  16
HETATM   16  O   UNL     1     -39.186  48.691 -52.710  1.00  0.00    -0.360 OA
HETATM   17  H   UNL     1     -39.842  48.187 -52.205  1.00  0.00     0.217 HD
ENDBRANCH  14  16
ENDBRANCH   2   3
ENDBRANCH   1   2
BRANCH   1  18
HETATM   18  C   UNL     1     -43.021  57.451 -53.616  1.00  0.00     0.217 C 
HETATM   19  N   UNL     1     -43.676  56.696 -54.568  1.00  0.00    -0.361 N 
HETATM   20  H   UNL     1     -43.723  55.695 -54.418  1.00  0.00     0.162 HD
HETATM   21  O   UNL     1     -42.635  58.597 -53.817  1.00  0.00    -0.274 OA
BRANCH  19  22
HETATM   22  C   UNL     1     -43.814  57.202 -55.923  1.00  0.00     0.127 C 
BRANCH  22  23
HETATM   23  C   UNL     1     -42.763  56.632 -56.875  1.00  0.00     0.060 C 
BRANCH  23  24
HETATM   24  C   UNL     1     -42.928  57.157 -58.266  1.00  0.00    -0.029 A 
HETATM   25  C   UNL     1     -42.490  58.429 -58.758  1.00  0.00    -0.000 A 
HETATM   26  C   UNL     1     -42.820  58.491 -60.113  1.00  0.00     0.043 A 
HETATM   27  C   UNL     1     -41.832  59.531 -58.173  1.00  0.00     0.038 A 
HETATM   28  C   UNL     1     -42.526  59.599 -60.917  1.00  0.00     0.032 A 
HETATM   29  N   UNL     1     -43.441  57.306 -60.431  1.00  0.00    -0.365 N 
HETATM   30  C   UNL     1     -41.875  60.681 -60.315  1.00  0.00     0.026 A 
HETATM   31  C   UNL     1     -41.537  60.645 -58.965  1.00  0.00     0.035 A 
HETATM   32 CL   UNL     1     -40.738  61.996 -58.255  1.00  0.00    -0.084 Cl
HETATM   33  H   UNL     1     -43.786  57.070 -61.351  1.00  0.00     0.165 HD
HETATM   34  C   UNL     1     -43.514  56.498 -59.329  1.00  0.00     0.096 A 
ENDBRANCH  23  24
ENDBRANCH  22  23
ENDBRANCH  19  22
ENDBRANCH   1  18
TORSDOF 7
ENDMDL
