MODEL 1
REMARK VINA RESULT:      -9.1      0.000      0.000
REMARK  8 active torsions:
REMARK  status: ('A' for Active; 'I' for Inactive)
REMARK    1  A    between atoms: C_4  and  C_5 
REMARK    2  A    between atoms: C_5  and  N_6 
REMARK    3  A    between atoms: C_11  and  C_12 
REMARK       I    between atoms: C_12  and  N_13 
REMARK    4  A    between atoms: C_15  and  N_16 
REMARK       I    between atoms: N_16  and  C_17 
REMARK    5  A    between atoms: C_17  and  C_18 
REMARK    6  A    between atoms: C_18  and  C_19 
REMARK    7  A    between atoms: C_19  and  S_20 
REMARK    8  A    between atoms: S_20  and  C_21 
ROOT
HETATM    1  N   UNL     1     -41.818  53.796 -54.234  1.00  0.00    -0.063 N 
HETATM    2  H   UNL     1     -42.279  52.947 -54.572  1.00  0.00     0.280 HD
HETATM    3  C   UNL     1     -42.535  54.166 -52.939  1.00  0.00     0.282 C 
HETATM    4  C   UNL     1     -42.300  55.591 -52.581  1.00  0.00     0.018 C 
HETATM    5  C   UNL     1     -41.792  56.559 -53.423  1.00  0.00    -0.023 C 
HETATM    6  C   UNL     1     -41.611  57.823 -52.740  1.00  0.00     0.073 C 
HETATM    7  C   UNL     1     -42.205  57.784 -51.482  1.00  0.00     0.093 C 
HETATM    8  S   UNL     1     -42.702  56.210 -51.060  1.00  0.00    -0.074 SA
HETATM    9  C   UNL     1     -41.442  56.238 -54.852  1.00  0.00     0.068 C 
HETATM   10  C   UNL     1     -42.023  54.877 -55.292  1.00  0.00     0.240 C 
ENDROOT
BRANCH   7  11
HETATM   11  N   UNL     1     -42.457  58.859 -50.641  1.00  0.00    -0.320 N 
HETATM   12  C   UNL     1     -43.293  59.934 -50.888  1.00  0.00     0.223 C 
HETATM   13  O   UNL     1     -44.117  60.035 -51.791  1.00  0.00    -0.273 OA
HETATM   14  H   UNL     1     -41.937  58.876 -49.766  1.00  0.00     0.169 HD
BRANCH  12  15
HETATM   15  C   UNL     1     -43.121  61.056 -49.880  1.00  0.00     0.113 C 
BRANCH  15  16
HETATM   16  C   UNL     1     -44.387  61.884 -49.698  1.00  0.00     0.088 C 
BRANCH  16  17
HETATM   17  S   UNL     1     -45.564  61.045 -48.576  1.00  0.00    -0.130 SA
BRANCH  17  18
HETATM   18  C   UNL     1     -45.202  61.749 -46.973  1.00  0.00     0.000 A 
HETATM   19  C   UNL     1     -45.334  63.100 -46.642  1.00  0.00     0.020 A 
HETATM   20  C   UNL     1     -45.017  63.554 -45.355  1.00  0.00     0.025 A 
HETATM   21  C   UNL     1     -44.568  62.657 -44.391  1.00  0.00     0.034 A 
HETATM   22 CL   UNL     1     -44.181  63.217 -42.812  1.00  0.00    -0.084 Cl
HETATM   23  C   UNL     1     -44.429  61.309 -44.702  1.00  0.00     0.025 A 
HETATM   24  C   UNL     1     -44.744  60.859 -45.988  1.00  0.00     0.020 A 
ENDBRANCH  17  18
ENDBRANCH  16  17
ENDBRANCH  15  16
ENDBRANCH  12  15
ENDBRANCH   7  11
BRANCH   6  25
HETATM   25  C   UNL     1     -40.949  58.983 -53.334  1.00  0.00     0.252 C 
HETATM   26  N   UNL     1     -41.748  59.835 -54.040  1.00  0.00    -0.366 N 
HETATM   27  H   UNL     1     -42.757  59.819 -53.961  1.00  0.00     0.159 HD
HETATM   28  H   UNL     1     -41.329  60.712 -54.325  1.00  0.00     0.159 HD
HETATM   29  O   UNL     1     -39.766  59.240 -53.147  1.00  0.00    -0.268 OA
ENDBRANCH   6  25
BRANCH   1  30
HETATM   30  C   UNL     1     -40.358  53.438 -54.062  1.00  0.00     0.273 C 
BRANCH  30  31
HETATM   31  C   UNL     1     -40.097  52.061 -53.515  1.00  0.00    -0.033 A 
HETATM   32  C   UNL     1     -40.122  50.925 -54.338  1.00  0.00     0.009 A 
HETATM   33  C   UNL     1     -39.868  49.661 -53.800  1.00  0.00     0.001 A 
HETATM   34  C   UNL     1     -39.571  49.521 -52.446  1.00  0.00     0.000 A 
HETATM   35  C   UNL     1     -39.528  50.644 -51.624  1.00  0.00     0.001 A 
HETATM   36  C   UNL     1     -39.790  51.906 -52.154  1.00  0.00     0.009 A 
ENDBRANCH  30  31
ENDBRANCH   1  30
TORSDOF 8
ENDMDL
MODEL 2
REMARK VINA RESULT:      -8.4      5.398      7.251
REMARK  8 active torsions:
REMARK  status: ('A' for Active; 'I' for Inactive)
REMARK    1  A    between atoms: C_4  and  C_5 
REMARK    2  A    between atoms: C_5  and  N_6 
REMARK    3  A    between atoms: C_11  and  C_12 
REMARK       I    between atoms: C_12  and  N_13 
REMARK    4  A    between atoms: C_15  and  N_16 
REMARK       I    between atoms: N_16  and  C_17 
REMARK    5  A    between atoms: C_17  and  C_18 
REMARK    6  A    between atoms: C_18  and  C_19 
REMARK    7  A    between atoms: C_19  and  S_20 
REMARK    8  A    between atoms: S_20  and  C_21 
ROOT
HETATM    1  N   UNL     1     -41.060  53.889 -50.428  1.00  0.00    -0.063 N 
HETATM    2  H   UNL     1     -40.963  53.403 -49.532  1.00  0.00     0.280 HD
HETATM    3  C   UNL     1     -41.148  55.372 -50.084  1.00  0.00     0.282 C 
HETATM    4  C   UNL     1     -41.742  56.151 -51.205  1.00  0.00     0.018 C 
HETATM    5  C   UNL     1     -42.426  55.619 -52.280  1.00  0.00    -0.023 C 
HETATM    6  C   UNL     1     -42.802  56.642 -53.234  1.00  0.00     0.073 C 
HETATM    7  C   UNL     1     -42.571  57.908 -52.705  1.00  0.00     0.093 C 
HETATM    8  S   UNL     1     -41.689  57.840 -51.249  1.00  0.00    -0.074 SA
HETATM    9  C   UNL     1     -42.658  54.137 -52.395  1.00  0.00     0.068 C 
HETATM   10  C   UNL     1     -42.357  53.404 -51.069  1.00  0.00     0.240 C 
ENDROOT
BRANCH   7  11
HETATM   11  N   UNL     1     -43.025  59.120 -53.206  1.00  0.00    -0.320 N 
HETATM   12  C   UNL     1     -42.328  60.002 -54.015  1.00  0.00     0.223 C 
HETATM   13  O   UNL     1     -41.274  59.786 -54.603  1.00  0.00    -0.273 OA
HETATM   14  H   UNL     1     -43.956  59.408 -52.912  1.00  0.00     0.169 HD
BRANCH  12  15
HETATM   15  C   UNL     1     -43.018  61.348 -54.147  1.00  0.00     0.113 C 
BRANCH  15  16
HETATM   16  C   UNL     1     -43.413  61.669 -55.583  1.00  0.00     0.088 C 
BRANCH  16  17
HETATM   17  S   UNL     1     -44.826  60.637 -56.122  1.00  0.00    -0.130 SA
BRANCH  17  18
HETATM   18  C   UNL     1     -44.077  59.409 -57.184  1.00  0.00     0.000 A 
HETATM   19  C   UNL     1     -42.756  59.440 -57.639  1.00  0.00     0.020 A 
HETATM   20  C   UNL     1     -42.265  58.429 -58.475  1.00  0.00     0.025 A 
HETATM   21  C   UNL     1     -43.094  57.380 -58.860  1.00  0.00     0.034 A 
HETATM   22 CL   UNL     1     -42.488  56.141 -59.886  1.00  0.00    -0.084 Cl
HETATM   23  C   UNL     1     -44.411  57.333 -58.419  1.00  0.00     0.025 A 
HETATM   24  C   UNL     1     -44.899  58.344 -57.586  1.00  0.00     0.020 A 
ENDBRANCH  17  18
ENDBRANCH  16  17
ENDBRANCH  15  16
ENDBRANCH  12  15
ENDBRANCH   7  11
BRANCH   6  25
HETATM   25  C   UNL     1     -43.398  56.359 -54.538  1.00  0.00     0.252 C 
HETATM   26  N   UNL     1     -44.759  56.256 -54.568  1.00  0.00    -0.366 N 
HETATM   27  H   UNL     1     -45.342  56.592 -53.812  1.00  0.00     0.159 HD
HETATM   28  H   UNL     1     -45.187  56.211 -55.485  1.00  0.00     0.159 HD
HETATM   29  O   UNL     1     -42.741  56.302 -55.571  1.00  0.00    -0.268 OA
ENDBRANCH   6  25
BRANCH   1  30
HETATM   30  C   UNL     1     -39.844  53.505 -51.244  1.00  0.00     0.273 C 
BRANCH  30  31
HETATM   31  C   UNL     1     -39.804  52.073 -51.699  1.00  0.00    -0.033 A 
HETATM   32  C   UNL     1     -39.731  51.733 -53.058  1.00  0.00     0.009 A 
HETATM   33  C   UNL     1     -39.689  50.392 -53.448  1.00  0.00     0.001 A 
HETATM   34  C   UNL     1     -39.700  49.382 -52.488  1.00  0.00     0.000 A 
HETATM   35  C   UNL     1     -39.756  49.708 -51.135  1.00  0.00     0.001 A 
HETATM   36  C   UNL     1     -39.808  51.045 -50.742  1.00  0.00     0.009 A 
ENDBRANCH  30  31
ENDBRANCH   1  30
TORSDOF 8
ENDMDL
MODEL 3
REMARK VINA RESULT:      -8.3      5.802      8.112
REMARK  8 active torsions:
REMARK  status: ('A' for Active; 'I' for Inactive)
REMARK    1  A    between atoms: C_4  and  C_5 
REMARK    2  A    between atoms: C_5  and  N_6 
REMARK    3  A    between atoms: C_11  and  C_12 
REMARK       I    between atoms: C_12  and  N_13 
REMARK    4  A    between atoms: C_15  and  N_16 
REMARK       I    between atoms: N_16  and  C_17 
REMARK    5  A    between atoms: C_17  and  C_18 
REMARK    6  A    between atoms: C_18  and  C_19 
REMARK    7  A    between atoms: C_19  and  S_20 
REMARK    8  A    between atoms: S_20  and  C_21 
ROOT
HETATM    1  N   UNL     1     -41.157  54.076 -50.828  1.00  0.00    -0.063 N 
HETATM    2  H   UNL     1     -41.285  53.728 -49.873  1.00  0.00     0.280 HD
HETATM    3  C   UNL     1     -41.229  55.597 -50.723  1.00  0.00     0.282 C 
HETATM    4  C   UNL     1     -41.519  56.215 -52.046  1.00  0.00     0.018 C 
HETATM    5  C   UNL     1     -41.985  55.547 -53.160  1.00  0.00    -0.023 C 
HETATM    6  C   UNL     1     -42.085  56.424 -54.308  1.00  0.00     0.073 C 
HETATM    7  C   UNL     1     -41.899  57.749 -53.924  1.00  0.00     0.093 C 
HETATM    8  S   UNL     1     -41.358  57.876 -52.314  1.00  0.00    -0.074 SA
HETATM    9  C   UNL     1     -42.275  54.070 -53.116  1.00  0.00     0.068 C 
HETATM   10  C   UNL     1     -42.312  53.537 -51.667  1.00  0.00     0.240 C 
ENDROOT
BRANCH   7  11
HETATM   11  N   UNL     1     -42.161  58.884 -54.678  1.00  0.00    -0.320 N 
HETATM   12  C   UNL     1     -43.401  59.431 -54.960  1.00  0.00     0.223 C 
HETATM   13  O   UNL     1     -44.470  59.143 -54.433  1.00  0.00    -0.273 OA
HETATM   14  H   UNL     1     -41.354  59.338 -55.102  1.00  0.00     0.169 HD
BRANCH  12  15
HETATM   15  C   UNL     1     -43.339  60.504 -56.032  1.00  0.00     0.113 C 
BRANCH  15  16
HETATM   16  C   UNL     1     -42.123  60.361 -56.939  1.00  0.00     0.088 C 
BRANCH  16  17
HETATM   17  S   UNL     1     -42.610  60.407 -58.703  1.00  0.00    -0.130 SA
BRANCH  17  18
HETATM   18  C   UNL     1     -43.043  58.712 -59.071  1.00  0.00     0.000 A 
HETATM   19  C   UNL     1     -42.131  57.701 -59.386  1.00  0.00     0.020 A 
HETATM   20  C   UNL     1     -42.574  56.402 -59.665  1.00  0.00     0.025 A 
HETATM   21  C   UNL     1     -43.933  56.107 -59.629  1.00  0.00     0.034 A 
HETATM   22 CL   UNL     1     -44.473  54.511 -59.970  1.00  0.00    -0.084 Cl
HETATM   23  C   UNL     1     -44.855  57.100 -59.318  1.00  0.00     0.025 A 
HETATM   24  C   UNL     1     -44.411  58.396 -59.042  1.00  0.00     0.020 A 
ENDBRANCH  17  18
ENDBRANCH  16  17
ENDBRANCH  15  16
ENDBRANCH  12  15
ENDBRANCH   7  11
BRANCH   6  25
HETATM   25  C   UNL     1     -42.401  55.966 -55.660  1.00  0.00     0.252 C 
HETATM   26  N   UNL     1     -41.506  55.105 -56.228  1.00  0.00    -0.366 N 
HETATM   27  H   UNL     1     -40.807  54.617 -55.683  1.00  0.00     0.159 HD
HETATM   28  H   UNL     1     -41.791  54.669 -57.097  1.00  0.00     0.159 HD
HETATM   29  O   UNL     1     -43.445  56.255 -56.232  1.00  0.00    -0.268 OA
ENDBRANCH   6  25
BRANCH   1  30
HETATM   30  C   UNL     1     -39.819  53.542 -51.290  1.00  0.00     0.273 C 
BRANCH  30  31
HETATM   31  C   UNL     1     -39.790  52.071 -51.599  1.00  0.00    -0.033 A 
HETATM   32  C   UNL     1     -39.963  51.104 -50.597  1.00  0.00     0.009 A 
HETATM   33  C   UNL     1     -39.937  49.745 -50.919  1.00  0.00     0.001 A 
HETATM   34  C   UNL     1     -39.757  49.340 -52.240  1.00  0.00     0.000 A 
HETATM   35  C   UNL     1     -39.602  50.291 -53.244  1.00  0.00     0.001 A 
HETATM   36  C   UNL     1     -39.617  51.648 -52.927  1.00  0.00     0.009 A 
ENDBRANCH  30  31
ENDBRANCH   1  30
TORSDOF 8
ENDMDL
MODEL 4
REMARK VINA RESULT:      -8.3      5.888      9.908
REMARK  8 active torsions:
REMARK  status: ('A' for Active; 'I' for Inactive)
REMARK    1  A    between atoms: C_4  and  C_5 
REMARK    2  A    between atoms: C_5  and  N_6 
REMARK    3  A    between atoms: C_11  and  C_12 
REMARK       I    between atoms: C_12  and  N_13 
REMARK    4  A    between atoms: C_15  and  N_16 
REMARK       I    between atoms: N_16  and  C_17 
REMARK    5  A    between atoms: C_17  and  C_18 
REMARK    6  A    between atoms: C_18  and  C_19 
REMARK    7  A    between atoms: C_19  and  S_20 
REMARK    8  A    between atoms: S_20  and  C_21 
ROOT
HETATM    1  N   UNL     1     -44.865  58.066 -59.162  1.00  0.00    -0.063 N 
HETATM    2  H   UNL     1     -44.957  58.753 -59.917  1.00  0.00     0.280 HD
HETATM    3  C   UNL     1     -44.788  58.879 -57.874  1.00  0.00     0.282 C 
HETATM    4  C   UNL     1     -44.202  58.078 -56.765  1.00  0.00     0.018 C 
HETATM    5  C   UNL     1     -43.515  56.890 -56.907  1.00  0.00    -0.023 C 
HETATM    6  C   UNL     1     -43.149  56.326 -55.625  1.00  0.00     0.073 C 
HETATM    7  C   UNL     1     -43.388  57.242 -54.606  1.00  0.00     0.093 C 
HETATM    8  S   UNL     1     -44.268  58.592 -55.156  1.00  0.00    -0.074 SA
HETATM    9  C   UNL     1     -43.271  56.293 -58.268  1.00  0.00     0.068 C 
HETATM   10  C   UNL     1     -43.564  57.303 -59.398  1.00  0.00     0.240 C 
ENDROOT
BRANCH   7  11
HETATM   11  N   UNL     1     -42.945  57.168 -53.293  1.00  0.00    -0.320 N 
HETATM   12  C   UNL     1     -41.632  57.148 -52.855  1.00  0.00     0.223 C 
HETATM   13  O   UNL     1     -40.630  57.397 -53.518  1.00  0.00    -0.273 OA
HETATM   14  H   UNL     1     -43.665  57.080 -52.579  1.00  0.00     0.169 HD
BRANCH  12  15
HETATM   15  C   UNL     1     -41.508  56.785 -51.386  1.00  0.00     0.113 C 
BRANCH  15  16
HETATM   16  C   UNL     1     -41.927  55.350 -51.096  1.00  0.00     0.088 C 
BRANCH  16  17
HETATM   17  S   UNL     1     -40.566  54.414 -50.306  1.00  0.00    -0.130 SA
BRANCH  17  18
HETATM   18  C   UNL     1     -40.233  53.089 -51.459  1.00  0.00     0.000 A 
HETATM   19  C   UNL     1     -39.822  51.801 -51.103  1.00  0.00     0.020 A 
HETATM   20  C   UNL     1     -39.580  50.833 -52.086  1.00  0.00     0.025 A 
HETATM   21  C   UNL     1     -39.751  51.147 -53.431  1.00  0.00     0.034 A 
HETATM   22 CL   UNL     1     -39.455  49.956 -54.634  1.00  0.00    -0.084 Cl
HETATM   23  C   UNL     1     -40.158  52.423 -53.803  1.00  0.00     0.025 A 
HETATM   24  C   UNL     1     -40.397  53.389 -52.820  1.00  0.00     0.020 A 
ENDBRANCH  17  18
ENDBRANCH  16  17
ENDBRANCH  15  16
ENDBRANCH  12  15
ENDBRANCH   7  11
BRANCH   6  25
HETATM   25  C   UNL     1     -42.552  55.002 -55.458  1.00  0.00     0.252 C 
HETATM   26  N   UNL     1     -41.304  54.833 -55.986  1.00  0.00    -0.366 N 
HETATM   27  H   UNL     1     -40.722  55.616 -56.254  1.00  0.00     0.159 HD
HETATM   28  H   UNL     1     -40.826  53.973 -55.745  1.00  0.00     0.159 HD
HETATM   29  O   UNL     1     -43.085  54.110 -54.809  1.00  0.00    -0.268 OA
ENDBRANCH   6  25
BRANCH   1  30
HETATM   30  C   UNL     1     -46.079  57.168 -59.265  1.00  0.00     0.273 C 
BRANCH  30  31
HETATM   31  C   UNL     1     -46.993  57.459 -60.422  1.00  0.00    -0.033 A 
HETATM   32  C   UNL     1     -47.455  56.441 -61.271  1.00  0.00     0.009 A 
HETATM   33  C   UNL     1     -48.310  56.744 -62.334  1.00  0.00     0.001 A 
HETATM   34  C   UNL     1     -48.726  58.056 -62.547  1.00  0.00     0.000 A 
HETATM   35  C   UNL     1     -48.288  59.071 -61.701  1.00  0.00     0.001 A 
HETATM   36  C   UNL     1     -47.427  58.776 -60.646  1.00  0.00     0.009 A 
ENDBRANCH  30  31
ENDBRANCH   1  30
TORSDOF 8
ENDMDL
MODEL 5
REMARK VINA RESULT:      -8.2      2.079      2.690
REMARK  8 active torsions:
REMARK  status: ('A' for Active; 'I' for Inactive)
REMARK    1  A    between atoms: C_4  and  C_5 
REMARK    2  A    between atoms: C_5  and  N_6 
REMARK    3  A    between atoms: C_11  and  C_12 
REMARK       I    between atoms: C_12  and  N_13 
REMARK    4  A    between atoms: C_15  and  N_16 
REMARK       I    between atoms: N_16  and  C_17 
REMARK    5  A    between atoms: C_17  and  C_18 
REMARK    6  A    between atoms: C_18  and  C_19 
REMARK    7  A    between atoms: C_19  and  S_20 
REMARK    8  A    between atoms: S_20  and  C_21 
ROOT
HETATM    1  N   UNL     1     -40.760  54.110 -50.904  1.00  0.00    -0.063 N 
HETATM    2  H   UNL     1     -40.161  53.430 -50.427  1.00  0.00     0.280 HD
HETATM    3  C   UNL     1     -40.262  55.481 -50.456  1.00  0.00     0.282 C 
HETATM    4  C   UNL     1     -41.294  56.530 -50.684  1.00  0.00     0.018 C 
HETATM    5  C   UNL     1     -42.628  56.301 -50.951  1.00  0.00    -0.023 C 
HETATM    6  C   UNL     1     -43.343  57.534 -51.204  1.00  0.00     0.073 C 
HETATM    7  C   UNL     1     -42.546  58.630 -50.890  1.00  0.00     0.093 C 
HETATM    8  S   UNL     1     -40.933  58.178 -50.578  1.00  0.00    -0.074 SA
HETATM    9  C   UNL     1     -43.178  54.901 -51.010  1.00  0.00     0.068 C 
HETATM   10  C   UNL     1     -42.189  53.871 -50.423  1.00  0.00     0.240 C 
ENDROOT
BRANCH   7  11
HETATM   11  N   UNL     1     -42.950  59.952 -50.764  1.00  0.00    -0.320 N 
HETATM   12  C   UNL     1     -43.279  60.825 -51.787  1.00  0.00     0.223 C 
HETATM   13  O   UNL     1     -43.474  60.541 -52.964  1.00  0.00    -0.273 OA
HETATM   14  H   UNL     1     -42.967  60.329 -49.819  1.00  0.00     0.169 HD
BRANCH  12  15
HETATM   15  C   UNL     1     -43.409  62.262 -51.314  1.00  0.00     0.113 C 
BRANCH  15  16
HETATM   16  C   UNL     1     -44.781  62.856 -51.604  1.00  0.00     0.088 C 
BRANCH  16  17
HETATM   17  S   UNL     1     -46.100  61.906 -50.761  1.00  0.00    -0.130 SA
BRANCH  17  18
HETATM   18  C   UNL     1     -45.732  62.115 -49.024  1.00  0.00     0.000 A 
HETATM   19  C   UNL     1     -45.678  63.343 -48.357  1.00  0.00     0.020 A 
HETATM   20  C   UNL     1     -45.375  63.401 -46.991  1.00  0.00     0.025 A 
HETATM   21  C   UNL     1     -45.125  62.230 -46.283  1.00  0.00     0.034 A 
HETATM   22 CL   UNL     1     -44.754  62.304 -44.606  1.00  0.00    -0.084 Cl
HETATM   23  C   UNL     1     -45.173  60.999 -46.929  1.00  0.00     0.025 A 
HETATM   24  C   UNL     1     -45.474  60.945 -48.293  1.00  0.00     0.020 A 
ENDBRANCH  17  18
ENDBRANCH  16  17
ENDBRANCH  15  16
ENDBRANCH  12  15
ENDBRANCH   7  11
BRANCH   6  25
HETATM   25  C   UNL     1     -44.730  57.593 -51.663  1.00  0.00     0.252 C 
HETATM   26  N   UNL     1     -44.921  57.522 -53.013  1.00  0.00    -0.366 N 
HETATM   27  H   UNL     1     -44.196  57.203 -53.643  1.00  0.00     0.159 HD
HETATM   28  H   UNL     1     -45.877  57.411 -53.327  1.00  0.00     0.159 HD
HETATM   29  O   UNL     1     -45.683  57.616 -50.894  1.00  0.00    -0.268 OA
ENDBRANCH   6  25
BRANCH   1  30
HETATM   30  C   UNL     1     -40.604  53.839 -52.384  1.00  0.00     0.273 C 
BRANCH  30  31
HETATM   31  C   UNL     1     -40.276  52.417 -52.743  1.00  0.00    -0.033 A 
HETATM   32  C   UNL     1     -40.442  51.929 -54.049  1.00  0.00     0.009 A 
HETATM   33  C   UNL     1     -40.122  50.603 -54.352  1.00  0.00     0.001 A 
HETATM   34  C   UNL     1     -39.617  49.761 -53.363  1.00  0.00     0.000 A 
HETATM   35  C   UNL     1     -39.432  50.239 -52.069  1.00  0.00     0.001 A 
HETATM   36  C   UNL     1     -39.760  51.558 -51.760  1.00  0.00     0.009 A 
ENDBRANCH  30  31
ENDBRANCH   1  30
TORSDOF 8
ENDMDL
MODEL 6
REMARK VINA RESULT:      -8.1      5.388      8.803
REMARK  8 active torsions:
REMARK  status: ('A' for Active; 'I' for Inactive)
REMARK    1  A    between atoms: C_4  and  C_5 
REMARK    2  A    between atoms: C_5  and  N_6 
REMARK    3  A    between atoms: C_11  and  C_12 
REMARK       I    between atoms: C_12  and  N_13 
REMARK    4  A    between atoms: C_15  and  N_16 
REMARK       I    between atoms: N_16  and  C_17 
REMARK    5  A    between atoms: C_17  and  C_18 
REMARK    6  A    between atoms: C_18  and  C_19 
REMARK    7  A    between atoms: C_19  and  S_20 
REMARK    8  A    between atoms: S_20  and  C_21 
ROOT
HETATM    1  N   UNL     1     -43.847  59.634 -58.214  1.00  0.00    -0.063 N 
HETATM    2  H   UNL     1     -44.345  60.312 -58.799  1.00  0.00     0.280 HD
HETATM    3  C   UNL     1     -44.916  58.983 -57.341  1.00  0.00     0.282 C 
HETATM    4  C   UNL     1     -44.312  58.332 -56.146  1.00  0.00     0.018 C 
HETATM    5  C   UNL     1     -43.030  58.537 -55.681  1.00  0.00    -0.023 C 
HETATM    6  C   UNL     1     -42.729  57.688 -54.547  1.00  0.00     0.073 C 
HETATM    7  C   UNL     1     -43.884  57.059 -54.092  1.00  0.00     0.093 C 
HETATM    8  S   UNL     1     -45.192  57.275 -55.162  1.00  0.00    -0.074 SA
HETATM    9  C   UNL     1     -42.101  59.504 -56.365  1.00  0.00     0.068 C 
HETATM   10  C   UNL     1     -42.854  60.415 -57.359  1.00  0.00     0.240 C 
ENDROOT
BRANCH   7  11
HETATM   11  N   UNL     1     -44.049  56.373 -52.897  1.00  0.00    -0.320 N 
HETATM   12  C   UNL     1     -43.888  56.877 -51.617  1.00  0.00     0.223 C 
HETATM   13  O   UNL     1     -43.775  58.056 -51.298  1.00  0.00    -0.273 OA
HETATM   14  H   UNL     1     -44.274  55.384 -52.973  1.00  0.00     0.169 HD
BRANCH  12  15
HETATM   15  C   UNL     1     -43.876  55.791 -50.556  1.00  0.00     0.113 C 
BRANCH  15  16
HETATM   16  C   UNL     1     -43.157  54.529 -51.013  1.00  0.00     0.088 C 
BRANCH  16  17
HETATM   17  S   UNL     1     -41.343  54.777 -51.033  1.00  0.00    -0.130 SA
BRANCH  17  18
HETATM   18  C   UNL     1     -40.730  53.371 -51.952  1.00  0.00     0.000 A 
HETATM   19  C   UNL     1     -39.858  52.402 -51.448  1.00  0.00     0.020 A 
HETATM   20  C   UNL     1     -39.431  51.339 -52.254  1.00  0.00     0.025 A 
HETATM   21  C   UNL     1     -39.874  51.239 -53.569  1.00  0.00     0.034 A 
HETATM   22 CL   UNL     1     -39.348  49.933 -54.555  1.00  0.00    -0.084 Cl
HETATM   23  C   UNL     1     -40.740  52.195 -54.088  1.00  0.00     0.025 A 
HETATM   24  C   UNL     1     -41.164  53.256 -53.282  1.00  0.00     0.020 A 
ENDBRANCH  17  18
ENDBRANCH  16  17
ENDBRANCH  15  16
ENDBRANCH  12  15
ENDBRANCH   7  11
BRANCH   6  25
HETATM   25  C   UNL     1     -41.403  57.575 -53.942  1.00  0.00     0.252 C 
HETATM   26  N   UNL     1     -41.042  58.579 -53.091  1.00  0.00    -0.366 N 
HETATM   27  H   UNL     1     -41.718  59.226 -52.703  1.00  0.00     0.159 HD
HETATM   28  H   UNL     1     -40.194  58.434 -52.556  1.00  0.00     0.159 HD
HETATM   29  O   UNL     1     -40.679  56.601 -54.107  1.00  0.00    -0.268 OA
ENDBRANCH   6  25
BRANCH   1  30
HETATM   30  C   UNL     1     -43.155  58.687 -59.169  1.00  0.00     0.273 C 
BRANCH  30  31
HETATM   31  C   UNL     1     -43.919  57.434 -59.494  1.00  0.00    -0.033 A 
HETATM   32  C   UNL     1     -45.141  57.473 -60.183  1.00  0.00     0.009 A 
HETATM   33  C   UNL     1     -45.824  56.290 -60.476  1.00  0.00     0.001 A 
HETATM   34  C   UNL     1     -45.286  55.060 -60.103  1.00  0.00     0.000 A 
HETATM   35  C   UNL     1     -44.066  55.008 -59.434  1.00  0.00     0.001 A 
HETATM   36  C   UNL     1     -43.387  56.186 -59.131  1.00  0.00     0.009 A 
ENDBRANCH  30  31
ENDBRANCH   1  30
TORSDOF 8
ENDMDL
MODEL 7
REMARK VINA RESULT:      -7.8      5.121      7.217
REMARK  8 active torsions:
REMARK  status: ('A' for Active; 'I' for Inactive)
REMARK    1  A    between atoms: C_4  and  C_5 
REMARK    2  A    between atoms: C_5  and  N_6 
REMARK    3  A    between atoms: C_11  and  C_12 
REMARK       I    between atoms: C_12  and  N_13 
REMARK    4  A    between atoms: C_15  and  N_16 
REMARK       I    between atoms: N_16  and  C_17 
REMARK    5  A    between atoms: C_17  and  C_18 
REMARK    6  A    between atoms: C_18  and  C_19 
REMARK    7  A    between atoms: C_19  and  S_20 
REMARK    8  A    between atoms: S_20  and  C_21 
ROOT
HETATM    1  N   UNL     1     -41.224  54.118 -51.386  1.00  0.00    -0.063 N 
HETATM    2  H   UNL     1     -40.965  53.587 -50.550  1.00  0.00     0.280 HD
HETATM    3  C   UNL     1     -41.074  55.587 -51.003  1.00  0.00     0.282 C 
HETATM    4  C   UNL     1     -41.837  56.467 -51.931  1.00  0.00     0.018 C 
HETATM    5  C   UNL     1     -42.810  56.050 -52.816  1.00  0.00    -0.023 C 
HETATM    6  C   UNL     1     -43.297  57.144 -53.630  1.00  0.00     0.073 C 
HETATM    7  C   UNL     1     -42.817  58.358 -53.149  1.00  0.00     0.093 C 
HETATM    8  S   UNL     1     -41.622  58.143 -51.955  1.00  0.00    -0.074 SA
HETATM    9  C   UNL     1     -43.215  54.602 -52.899  1.00  0.00     0.068 C 
HETATM   10  C   UNL     1     -42.681  53.788 -51.701  1.00  0.00     0.240 C 
ENDROOT
BRANCH   7  11
HETATM   11  N   UNL     1     -43.250  59.628 -53.502  1.00  0.00    -0.320 N 
HETATM   12  C   UNL     1     -44.292  60.342 -52.935  1.00  0.00     0.223 C 
HETATM   13  O   UNL     1     -44.886  60.078 -51.894  1.00  0.00    -0.273 OA
HETATM   14  H   UNL     1     -42.774  60.064 -54.289  1.00  0.00     0.169 HD
BRANCH  12  15
HETATM   15  C   UNL     1     -44.668  61.574 -53.740  1.00  0.00     0.113 C 
BRANCH  15  16
HETATM   16  C   UNL     1     -44.880  61.269 -55.217  1.00  0.00     0.088 C 
BRANCH  16  17
HETATM   17  S   UNL     1     -43.722  62.230 -56.259  1.00  0.00    -0.130 SA
BRANCH  17  18
HETATM   18  C   UNL     1     -43.118  61.033 -57.442  1.00  0.00     0.000 A 
HETATM   19  C   UNL     1     -42.385  61.342 -58.592  1.00  0.00     0.020 A 
HETATM   20  C   UNL     1     -41.962  60.328 -59.461  1.00  0.00     0.025 A 
HETATM   21  C   UNL     1     -42.268  58.999 -59.184  1.00  0.00     0.034 A 
HETATM   22 CL   UNL     1     -41.745  57.758 -60.251  1.00  0.00    -0.084 Cl
HETATM   23  C   UNL     1     -42.997  58.674 -58.045  1.00  0.00     0.025 A 
HETATM   24  C   UNL     1     -43.420  59.688 -57.181  1.00  0.00     0.020 A 
ENDBRANCH  17  18
ENDBRANCH  16  17
ENDBRANCH  15  16
ENDBRANCH  12  15
ENDBRANCH   7  11
BRANCH   6  25
HETATM   25  C   UNL     1     -44.216  56.976 -54.755  1.00  0.00     0.252 C 
HETATM   26  N   UNL     1     -43.808  56.129 -55.744  1.00  0.00    -0.366 N 
HETATM   27  H   UNL     1     -43.051  55.469 -55.611  1.00  0.00     0.159 HD
HETATM   28  H   UNL     1     -44.497  55.893 -56.448  1.00  0.00     0.159 HD
HETATM   29  O   UNL     1     -45.328  57.488 -54.786  1.00  0.00    -0.268 OA
ENDBRANCH   6  25
BRANCH   1  30
HETATM   30  C   UNL     1     -40.287  53.656 -52.481  1.00  0.00     0.273 C 
BRANCH  30  31
HETATM   31  C   UNL     1     -40.020  52.177 -52.512  1.00  0.00    -0.033 A 
HETATM   32  C   UNL     1     -39.771  51.447 -51.339  1.00  0.00     0.009 A 
HETATM   33  C   UNL     1     -39.533  50.072 -51.401  1.00  0.00     0.001 A 
HETATM   34  C   UNL     1     -39.559  49.412 -52.628  1.00  0.00     0.000 A 
HETATM   35  C   UNL     1     -39.822  50.122 -53.796  1.00  0.00     0.001 A 
HETATM   36  C   UNL     1     -40.050  51.496 -53.739  1.00  0.00     0.009 A 
ENDBRANCH  30  31
ENDBRANCH   1  30
TORSDOF 8
ENDMDL
MODEL 8
REMARK VINA RESULT:      -7.7      6.819     10.865
REMARK  8 active torsions:
REMARK  status: ('A' for Active; 'I' for Inactive)
REMARK    1  A    between atoms: C_4  and  C_5 
REMARK    2  A    between atoms: C_5  and  N_6 
REMARK    3  A    between atoms: C_11  and  C_12 
REMARK       I    between atoms: C_12  and  N_13 
REMARK    4  A    between atoms: C_15  and  N_16 
REMARK       I    between atoms: N_16  and  C_17 
REMARK    5  A    between atoms: C_17  and  C_18 
REMARK    6  A    between atoms: C_18  and  C_19 
REMARK    7  A    between atoms: C_19  and  S_20 
REMARK    8  A    between atoms: S_20  and  C_21 
ROOT
HETATM    1  N   UNL     1     -43.042  60.533 -61.319  1.00  0.00    -0.063 N 
HETATM    2  H   UNL     1     -42.671  60.657 -62.266  1.00  0.00     0.280 HD
HETATM    3  C   UNL     1     -42.300  59.332 -60.741  1.00  0.00     0.282 C 
HETATM    4  C   UNL     1     -43.033  58.752 -59.582  1.00  0.00     0.018 C 
HETATM    5  C   UNL     1     -44.345  59.017 -59.247  1.00  0.00    -0.023 C 
HETATM    6  C   UNL     1     -44.727  58.356 -58.017  1.00  0.00     0.073 C 
HETATM    7  C   UNL     1     -43.743  57.455 -57.624  1.00  0.00     0.093 C 
HETATM    8  S   UNL     1     -42.322  57.619 -58.549  1.00  0.00    -0.074 SA
HETATM    9  C   UNL     1     -45.189  59.941 -60.085  1.00  0.00     0.068 C 
HETATM   10  C   UNL     1     -44.533  60.235 -61.451  1.00  0.00     0.240 C 
ENDROOT
BRANCH   7  11
HETATM   11  N   UNL     1     -43.849  56.471 -56.652  1.00  0.00    -0.320 N 
HETATM   12  C   UNL     1     -43.573  56.599 -55.301  1.00  0.00     0.223 C 
HETATM   13  O   UNL     1     -43.388  57.642 -54.682  1.00  0.00    -0.273 OA
HETATM   14  H   UNL     1     -44.119  55.545 -56.976  1.00  0.00     0.169 HD
BRANCH  12  15
HETATM   15  C   UNL     1     -43.528  55.263 -54.581  1.00  0.00     0.113 C 
BRANCH  15  16
HETATM   16  C   UNL     1     -42.580  54.270 -55.240  1.00  0.00     0.088 C 
BRANCH  16  17
HETATM   17  S   UNL     1     -40.842  54.619 -54.784  1.00  0.00    -0.130 SA
BRANCH  17  18
HETATM   18  C   UNL     1     -40.378  53.221 -53.770  1.00  0.00     0.000 A 
HETATM   19  C   UNL     1     -39.994  51.968 -54.259  1.00  0.00     0.020 A 
HETATM   20  C   UNL     1     -39.654  50.934 -53.378  1.00  0.00     0.025 A 
HETATM   21  C   UNL     1     -39.694  51.146 -52.004  1.00  0.00     0.034 A 
HETATM   22 CL   UNL     1     -39.274  49.874 -50.927  1.00  0.00    -0.084 Cl
HETATM   23  C   UNL     1     -40.075  52.385 -51.500  1.00  0.00     0.025 A 
HETATM   24  C   UNL     1     -40.415  53.416 -52.381  1.00  0.00     0.020 A 
ENDBRANCH  17  18
ENDBRANCH  16  17
ENDBRANCH  15  16
ENDBRANCH  12  15
ENDBRANCH   7  11
BRANCH   6  25
HETATM   25  C   UNL     1     -46.003  58.575 -57.337  1.00  0.00     0.252 C 
HETATM   26  N   UNL     1     -46.995  57.680 -57.617  1.00  0.00    -0.366 N 
HETATM   27  H   UNL     1     -46.809  56.790 -58.061  1.00  0.00     0.159 HD
HETATM   28  H   UNL     1     -47.827  57.735 -57.041  1.00  0.00     0.159 HD
HETATM   29  O   UNL     1     -46.165  59.450 -56.495  1.00  0.00    -0.268 OA
ENDBRANCH   6  25
BRANCH   1  30
HETATM   30  C   UNL     1     -42.784  61.837 -60.596  1.00  0.00     0.273 C 
BRANCH  30  31
HETATM   31  C   UNL     1     -41.400  62.400 -60.765  1.00  0.00    -0.033 A 
HETATM   32  C   UNL     1     -40.864  62.671 -62.034  1.00  0.00     0.009 A 
HETATM   33  C   UNL     1     -39.578  63.200 -62.156  1.00  0.00     0.001 A 
HETATM   34  C   UNL     1     -38.823  63.480 -61.019  1.00  0.00     0.000 A 
HETATM   35  C   UNL     1     -39.351  63.231 -59.755  1.00  0.00     0.001 A 
HETATM   36  C   UNL     1     -40.631  62.693 -59.628  1.00  0.00     0.009 A 
ENDBRANCH  30  31
ENDBRANCH   1  30
TORSDOF 8
ENDMDL
MODEL 9
REMARK VINA RESULT:      -7.7      2.037      2.775
REMARK  8 active torsions:
REMARK  status: ('A' for Active; 'I' for Inactive)
REMARK    1  A    between atoms: C_4  and  C_5 
REMARK    2  A    between atoms: C_5  and  N_6 
REMARK    3  A    between atoms: C_11  and  C_12 
REMARK       I    between atoms: C_12  and  N_13 
REMARK    4  A    between atoms: C_15  and  N_16 
REMARK       I    between atoms: N_16  and  C_17 
REMARK    5  A    between atoms: C_17  and  C_18 
REMARK    6  A    between atoms: C_18  and  C_19 
REMARK    7  A    between atoms: C_19  and  S_20 
REMARK    8  A    between atoms: S_20  and  C_21 
ROOT
HETATM    1  N   UNL     1     -42.242  55.362 -54.623  1.00  0.00    -0.063 N 
HETATM    2  H   UNL     1     -42.156  54.870 -55.518  1.00  0.00     0.280 HD
HETATM    3  C   UNL     1     -43.324  56.416 -54.837  1.00  0.00     0.282 C 
HETATM    4  C   UNL     1     -43.242  57.489 -53.808  1.00  0.00     0.018 C 
HETATM    5  C   UNL     1     -42.172  57.716 -52.967  1.00  0.00    -0.023 C 
HETATM    6  C   UNL     1     -42.446  58.784 -52.028  1.00  0.00     0.073 C 
HETATM    7  C   UNL     1     -43.623  59.442 -52.371  1.00  0.00     0.093 C 
HETATM    8  S   UNL     1     -44.479  58.621 -53.594  1.00  0.00    -0.074 SA
HETATM    9  C   UNL     1     -40.929  56.870 -53.046  1.00  0.00     0.068 C 
HETATM   10  C   UNL     1     -40.896  56.021 -54.335  1.00  0.00     0.240 C 
ENDROOT
BRANCH   7  11
HETATM   11  N   UNL     1     -44.082  60.652 -51.872  1.00  0.00    -0.320 N 
HETATM   12  C   UNL     1     -43.759  61.920 -52.327  1.00  0.00     0.223 C 
HETATM   13  O   UNL     1     -43.181  62.202 -53.371  1.00  0.00    -0.273 OA
HETATM   14  H   UNL     1     -44.691  60.602 -51.058  1.00  0.00     0.169 HD
BRANCH  12  15
HETATM   15  C   UNL     1     -44.218  63.017 -51.384  1.00  0.00     0.113 C 
BRANCH  15  16
HETATM   16  C   UNL     1     -43.381  63.088 -50.112  1.00  0.00     0.088 C 
BRANCH  16  17
HETATM   17  S   UNL     1     -44.340  63.823 -48.736  1.00  0.00    -0.130 SA
BRANCH  17  18
HETATM   18  C   UNL     1     -44.988  62.404 -47.862  1.00  0.00     0.000 A 
HETATM   19  C   UNL     1     -45.380  61.203 -48.461  1.00  0.00     0.020 A 
HETATM   20  C   UNL     1     -45.882  60.150 -47.686  1.00  0.00     0.025 A 
HETATM   21  C   UNL     1     -45.993  60.291 -46.307  1.00  0.00     0.034 A 
HETATM   22 CL   UNL     1     -46.608  58.996 -45.358  1.00  0.00    -0.084 Cl
HETATM   23  C   UNL     1     -45.608  61.479 -45.693  1.00  0.00     0.025 A 
HETATM   24  C   UNL     1     -45.110  62.529 -46.469  1.00  0.00     0.020 A 
ENDBRANCH  17  18
ENDBRANCH  16  17
ENDBRANCH  15  16
ENDBRANCH  12  15
ENDBRANCH   7  11
BRANCH   6  25
HETATM   25  C   UNL     1     -41.561  59.143 -50.922  1.00  0.00     0.252 C 
HETATM   26  N   UNL     1     -41.304  58.158 -50.013  1.00  0.00    -0.366 N 
HETATM   27  H   UNL     1     -41.497  57.183 -50.205  1.00  0.00     0.159 HD
HETATM   28  H   UNL     1     -40.579  58.351 -49.332  1.00  0.00     0.159 HD
HETATM   29  O   UNL     1     -41.003  60.231 -50.844  1.00  0.00    -0.268 OA
ENDBRANCH   6  25
BRANCH   1  30
HETATM   30  C   UNL     1     -42.590  54.305 -53.598  1.00  0.00     0.273 C 
BRANCH  30  31
HETATM   31  C   UNL     1     -41.497  53.318 -53.300  1.00  0.00    -0.033 A 
HETATM   32  C   UNL     1     -40.883  53.255 -52.040  1.00  0.00     0.009 A 
HETATM   33  C   UNL     1     -39.874  52.321 -51.793  1.00  0.00     0.001 A 
HETATM   34  C   UNL     1     -39.483  51.431 -52.792  1.00  0.00     0.000 A 
HETATM   35  C   UNL     1     -40.097  51.473 -54.041  1.00  0.00     0.001 A 
HETATM   36  C   UNL     1     -41.097  52.410 -54.295  1.00  0.00     0.009 A 
ENDBRANCH  30  31
ENDBRANCH   1  30
TORSDOF 8
ENDMDL
MODEL 10
REMARK VINA RESULT:      -7.7      5.456      7.559
REMARK  8 active torsions:
REMARK  status: ('A' for Active; 'I' for Inactive)
REMARK    1  A    between atoms: C_4  and  C_5 
REMARK    2  A    between atoms: C_5  and  N_6 
REMARK    3  A    between atoms: C_11  and  C_12 
REMARK       I    between atoms: C_12  and  N_13 
REMARK    4  A    between atoms: C_15  and  N_16 
REMARK       I    between atoms: N_16  and  C_17 
REMARK    5  A    between atoms: C_17  and  C_18 
REMARK    6  A    between atoms: C_18  and  C_19 
REMARK    7  A    between atoms: C_19  and  S_20 
REMARK    8  A    between atoms: S_20  and  C_21 
ROOT
HETATM    1  N   UNL     1     -41.109  53.962 -50.608  1.00  0.00    -0.063 N 
HETATM    2  H   UNL     1     -40.990  53.458 -49.724  1.00  0.00     0.280 HD
HETATM    3  C   UNL     1     -41.153  55.441 -50.237  1.00  0.00     0.282 C 
HETATM    4  C   UNL     1     -41.771  56.251 -51.322  1.00  0.00     0.018 C 
HETATM    5  C   UNL     1     -42.504  55.753 -52.379  1.00  0.00    -0.023 C 
HETATM    6  C   UNL     1     -42.892  56.799 -53.302  1.00  0.00     0.073 C 
HETATM    7  C   UNL     1     -42.616  58.050 -52.761  1.00  0.00     0.093 C 
HETATM    8  S   UNL     1     -41.683  57.939 -51.340  1.00  0.00    -0.074 SA
HETATM    9  C   UNL     1     -42.772  54.277 -52.511  1.00  0.00     0.068 C 
HETATM   10  C   UNL     1     -42.439  53.516 -51.210  1.00  0.00     0.240 C 
ENDROOT
BRANCH   7  11
HETATM   11  N   UNL     1     -43.061  59.280 -53.224  1.00  0.00    -0.320 N 
HETATM   12  C   UNL     1     -42.382  60.154 -54.056  1.00  0.00     0.223 C 
HETATM   13  O   UNL     1     -41.364  59.919 -54.699  1.00  0.00    -0.273 OA
HETATM   14  H   UNL     1     -43.968  59.589 -52.881  1.00  0.00     0.169 HD
BRANCH  12  15
HETATM   15  C   UNL     1     -43.041  61.519 -54.138  1.00  0.00     0.113 C 
BRANCH  15  16
HETATM   16  C   UNL     1     -43.717  61.767 -55.481  1.00  0.00     0.088 C 
BRANCH  16  17
HETATM   17  S   UNL     1     -43.651  60.272 -56.535  1.00  0.00    -0.130 SA
BRANCH  17  18
HETATM   18  C   UNL     1     -42.807  60.826 -58.011  1.00  0.00     0.000 A 
HETATM   19  C   UNL     1     -43.268  60.638 -59.317  1.00  0.00     0.020 A 
HETATM   20  C   UNL     1     -42.526  61.107 -60.409  1.00  0.00     0.025 A 
HETATM   21  C   UNL     1     -41.319  61.766 -60.200  1.00  0.00     0.034 A 
HETATM   22 CL   UNL     1     -40.412  62.341 -61.543  1.00  0.00    -0.084 Cl
HETATM   23  C   UNL     1     -40.844  61.961 -58.908  1.00  0.00     0.025 A 
HETATM   24  C   UNL     1     -41.585  61.491 -57.820  1.00  0.00     0.020 A 
ENDBRANCH  17  18
ENDBRANCH  16  17
ENDBRANCH  15  16
ENDBRANCH  12  15
ENDBRANCH   7  11
BRANCH   6  25
HETATM   25  C   UNL     1     -43.542  56.552 -54.588  1.00  0.00     0.252 C 
HETATM   26  N   UNL     1     -44.886  56.321 -54.549  1.00  0.00    -0.366 N 
HETATM   27  H   UNL     1     -45.448  56.545 -53.738  1.00  0.00     0.159 HD
HETATM   28  H   UNL     1     -45.365  56.298 -55.441  1.00  0.00     0.159 HD
HETATM   29  O   UNL     1     -42.948  56.630 -55.657  1.00  0.00    -0.268 OA
ENDBRANCH   6  25
BRANCH   1  30
HETATM   30  C   UNL     1     -39.932  53.567 -51.474  1.00  0.00     0.273 C 
BRANCH  30  31
HETATM   31  C   UNL     1     -39.856  52.107 -51.824  1.00  0.00    -0.033 A 
HETATM   32  C   UNL     1     -39.807  51.670 -53.157  1.00  0.00     0.009 A 
HETATM   33  C   UNL     1     -39.729  50.306 -53.449  1.00  0.00     0.001 A 
HETATM   34  C   UNL     1     -39.682  49.370 -52.417  1.00  0.00     0.000 A 
HETATM   35  C   UNL     1     -39.714  49.793 -51.092  1.00  0.00     0.001 A 
HETATM   36  C   UNL     1     -39.801  51.153 -50.796  1.00  0.00     0.009 A 
ENDBRANCH  30  31
ENDBRANCH   1  30
TORSDOF 8
ENDMDL
