MODEL 1
REMARK VINA RESULT:      -8.4      0.000      0.000
REMARK  5 active torsions:
REMARK  status: ('A' for Active; 'I' for Inactive)
REMARK    1  A    between atoms: C_5  and  C_6 
REMARK    2  A    between atoms: C_10  and  C_11 
REMARK       I    between atoms: C_11  and  N_12 
REMARK    3  A    between atoms: N_12  and  C_13 
REMARK    4  A    between atoms: C_14  and  C_15 
REMARK       I    between atoms: C_15  and  N_16 
REMARK    5  A    between atoms: N_16  and  C_17 
ROOT
HETATM    1  C   UNL     1     -42.972  57.005 -55.878  1.00  0.00     0.274 C 
HETATM    2  N   UNL     1     -42.060  57.323 -56.861  1.00  0.00    -0.321 N 
HETATM    3  O   UNL     1     -44.158  57.303 -55.887  1.00  0.00    -0.266 OA
HETATM    4  H   UNL     1     -41.264  56.706 -56.931  1.00  0.00     0.169 HD
ENDROOT
BRANCH   1   5
HETATM    5  C   UNL     1     -42.392  56.255 -54.790  1.00  0.00     0.120 A 
HETATM    6  N   UNL     1     -41.901  56.860 -53.666  1.00  0.00    -0.272 N 
HETATM    7  N   UNL     1     -41.262  56.023 -52.829  1.00  0.00    -0.174 NA
HETATM    8  H   UNL     1     -41.929  57.851 -53.446  1.00  0.00     0.189 HD
HETATM    9  C   UNL     1     -41.375  54.818 -53.407  1.00  0.00     0.089 A 
HETATM   10  C   UNL     1     -42.103  54.916 -54.624  1.00  0.00     0.071 A 
BRANCH   9  11
HETATM   11  C   UNL     1     -40.748  53.615 -52.866  1.00  0.00    -0.006 A 
HETATM   12  C   UNL     1     -40.660  53.420 -51.480  1.00  0.00     0.014 A 
HETATM   13  C   UNL     1     -40.153  52.224 -50.963  1.00  0.00     0.007 A 
HETATM   14  C   UNL     1     -39.719  51.208 -51.822  1.00  0.00    -0.062 A 
HETATM   15  C   UNL     1     -39.244  49.899 -51.266  1.00  0.00     0.048 C 
HETATM   16  C   UNL     1     -39.799  51.406 -53.205  1.00  0.00     0.007 A 
HETATM   17  C   UNL     1     -40.299  52.604 -53.723  1.00  0.00     0.014 A 
ENDBRANCH   9  11
ENDBRANCH   1   5
BRANCH   2  18
HETATM   18  C   UNL     1     -42.164  58.309 -57.867  1.00  0.00     0.050 A 
HETATM   19  C   UNL     1     -42.498  58.116 -59.218  1.00  0.00     0.058 A 
HETATM   20  C   UNL     1     -42.529  59.222 -60.093  1.00  0.00     0.019 A 
HETATM   21  C   UNL     1     -42.283  60.514 -59.631  1.00  0.00     0.001 A 
HETATM   22  C   UNL     1     -42.004  60.717 -58.287  1.00  0.00     0.002 A 
HETATM   23  C   UNL     1     -41.949  59.626 -57.415  1.00  0.00     0.030 A 
BRANCH  19  24
HETATM   24  C   UNL     1     -42.928  56.849 -59.851  1.00  0.00     0.254 C 
HETATM   25  N   UNL     1     -44.259  56.489 -59.856  1.00  0.00    -0.352 N 
HETATM   26  H   UNL     1     -44.416  55.609 -60.336  1.00  0.00     0.163 HD
HETATM   27  O   UNL     1     -42.109  56.184 -60.484  1.00  0.00    -0.268 OA
BRANCH  25  28
HETATM   28  C   UNL     1     -45.383  57.165 -59.304  1.00  0.00     0.084 A 
HETATM   29  C   UNL     1     -46.269  58.082 -60.098  1.00  0.00     0.027 A 
HETATM   30  C   UNL     1     -46.770  56.727 -59.699  1.00  0.00     0.027 A 
ENDBRANCH  25  28
ENDBRANCH  19  24
ENDBRANCH   2  18
TORSDOF 5
ENDMDL
MODEL 2
REMARK VINA RESULT:      -8.4      5.575      7.132
REMARK  5 active torsions:
REMARK  status: ('A' for Active; 'I' for Inactive)
REMARK    1  A    between atoms: C_5  and  C_6 
REMARK    2  A    between atoms: C_10  and  C_11 
REMARK       I    between atoms: C_11  and  N_12 
REMARK    3  A    between atoms: N_12  and  C_13 
REMARK    4  A    between atoms: C_14  and  C_15 
REMARK       I    between atoms: C_15  and  N_16 
REMARK    5  A    between atoms: N_16  and  C_17 
ROOT
HETATM    1  C   UNL     1     -41.714  57.931 -50.686  1.00  0.00     0.274 C 
HETATM    2  N   UNL     1     -42.940  58.243 -51.232  1.00  0.00    -0.321 N 
HETATM    3  O   UNL     1     -40.951  58.726 -50.156  1.00  0.00    -0.266 OA
HETATM    4  H   UNL     1     -43.607  57.485 -51.264  1.00  0.00     0.169 HD
ENDROOT
BRANCH   1   5
HETATM    5  C   UNL     1     -41.389  56.530 -50.790  1.00  0.00     0.120 A 
HETATM    6  N   UNL     1     -40.786  55.841 -49.772  1.00  0.00    -0.272 N 
HETATM    7  N   UNL     1     -40.421  54.589 -50.100  1.00  0.00    -0.174 NA
HETATM    8  H   UNL     1     -40.553  56.198 -48.851  1.00  0.00     0.189 HD
HETATM    9  C   UNL     1     -40.837  54.438 -51.366  1.00  0.00     0.089 A 
HETATM   10  C   UNL     1     -41.476  55.622 -51.825  1.00  0.00     0.071 A 
BRANCH   9  11
HETATM   11  C   UNL     1     -40.573  53.235 -52.151  1.00  0.00    -0.006 A 
HETATM   12  C   UNL     1     -40.954  53.165 -53.498  1.00  0.00     0.014 A 
HETATM   13  C   UNL     1     -40.611  52.055 -54.276  1.00  0.00     0.007 A 
HETATM   14  C   UNL     1     -39.889  50.995 -53.718  1.00  0.00    -0.062 A 
HETATM   15  C   UNL     1     -39.458  49.839 -54.572  1.00  0.00     0.048 C 
HETATM   16  C   UNL     1     -39.515  51.060 -52.370  1.00  0.00     0.007 A 
HETATM   17  C   UNL     1     -39.864  52.166 -51.590  1.00  0.00     0.014 A 
ENDBRANCH   9  11
ENDBRANCH   1   5
BRANCH   2  18
HETATM   18  C   UNL     1     -43.430  59.509 -51.622  1.00  0.00     0.050 A 
HETATM   19  C   UNL     1     -44.610  60.136 -51.190  1.00  0.00     0.058 A 
HETATM   20  C   UNL     1     -44.958  61.401 -51.709  1.00  0.00     0.019 A 
HETATM   21  C   UNL     1     -44.125  62.065 -52.608  1.00  0.00     0.001 A 
HETATM   22  C   UNL     1     -42.932  61.474 -52.997  1.00  0.00     0.002 A 
HETATM   23  C   UNL     1     -42.588  60.212 -52.507  1.00  0.00     0.030 A 
BRANCH  19  24
HETATM   24  C   UNL     1     -45.537  59.652 -50.142  1.00  0.00     0.254 C 
HETATM   25  N   UNL     1     -45.511  60.205 -48.880  1.00  0.00    -0.352 N 
HETATM   26  H   UNL     1     -46.207  59.794 -48.267  1.00  0.00     0.163 HD
HETATM   27  O   UNL     1     -46.415  58.844 -50.441  1.00  0.00    -0.268 OA
BRANCH  25  28
HETATM   28  C   UNL     1     -44.675  61.232 -48.356  1.00  0.00     0.084 A 
HETATM   29  C   UNL     1     -45.153  62.629 -48.083  1.00  0.00     0.027 A 
HETATM   30  C   UNL     1     -44.885  61.698 -46.939  1.00  0.00     0.027 A 
ENDBRANCH  25  28
ENDBRANCH  19  24
ENDBRANCH   2  18
TORSDOF 5
ENDMDL
MODEL 3
REMARK VINA RESULT:      -8.3      4.257      5.982
REMARK  5 active torsions:
REMARK  status: ('A' for Active; 'I' for Inactive)
REMARK    1  A    between atoms: C_5  and  C_6 
REMARK    2  A    between atoms: C_10  and  C_11 
REMARK       I    between atoms: C_11  and  N_12 
REMARK    3  A    between atoms: N_12  and  C_13 
REMARK    4  A    between atoms: C_14  and  C_15 
REMARK       I    between atoms: C_15  and  N_16 
REMARK    5  A    between atoms: N_16  and  C_17 
ROOT
HETATM    1  C   UNL     1     -41.558  58.427 -51.601  1.00  0.00     0.274 C 
HETATM    2  N   UNL     1     -42.504  58.901 -50.718  1.00  0.00    -0.321 N 
HETATM    3  O   UNL     1     -40.920  59.109 -52.390  1.00  0.00    -0.266 OA
HETATM    4  H   UNL     1     -42.648  58.337 -49.893  1.00  0.00     0.169 HD
ENDROOT
BRANCH   1   5
HETATM    5  C   UNL     1     -41.370  56.999 -51.515  1.00  0.00     0.120 A 
HETATM    6  N   UNL     1     -41.075  56.370 -50.337  1.00  0.00    -0.272 N 
HETATM    7  N   UNL     1     -40.784  55.064 -50.472  1.00  0.00    -0.174 NA
HETATM    8  H   UNL     1     -41.007  56.799 -49.418  1.00  0.00     0.189 HD
HETATM    9  C   UNL     1     -40.935  54.820 -51.781  1.00  0.00     0.089 A 
HETATM   10  C   UNL     1     -41.331  56.000 -52.466  1.00  0.00     0.071 A 
BRANCH   9  11
HETATM   11  C   UNL     1     -40.639  53.523 -52.386  1.00  0.00    -0.006 A 
HETATM   12  C   UNL     1     -41.020  53.251 -53.708  1.00  0.00     0.014 A 
HETATM   13  C   UNL     1     -40.649  52.050 -54.319  1.00  0.00     0.007 A 
HETATM   14  C   UNL     1     -39.897  51.101 -53.619  1.00  0.00    -0.062 A 
HETATM   15  C   UNL     1     -39.437  49.846 -54.301  1.00  0.00     0.048 C 
HETATM   16  C   UNL     1     -39.523  51.369 -52.297  1.00  0.00     0.007 A 
HETATM   17  C   UNL     1     -39.901  52.566 -51.682  1.00  0.00     0.014 A 
ENDBRANCH   9  11
ENDBRANCH   1   5
BRANCH   2  18
HETATM   18  C   UNL     1     -43.191  60.134 -50.748  1.00  0.00     0.050 A 
HETATM   19  C   UNL     1     -44.539  60.351 -51.080  1.00  0.00     0.058 A 
HETATM   20  C   UNL     1     -45.054  61.664 -51.082  1.00  0.00     0.019 A 
HETATM   21  C   UNL     1     -44.262  62.750 -50.710  1.00  0.00     0.001 A 
HETATM   22  C   UNL     1     -42.946  62.535 -50.329  1.00  0.00     0.002 A 
HETATM   23  C   UNL     1     -42.418  61.241 -50.345  1.00  0.00     0.030 A 
BRANCH  19  24
HETATM   24  C   UNL     1     -45.560  59.316 -51.359  1.00  0.00     0.254 C 
HETATM   25  N   UNL     1     -45.594  58.681 -52.581  1.00  0.00    -0.352 N 
HETATM   26  H   UNL     1     -46.330  57.985 -52.632  1.00  0.00     0.163 HD
HETATM   27  O   UNL     1     -46.294  58.934 -50.448  1.00  0.00    -0.268 OA
BRANCH  25  28
HETATM   28  C   UNL     1     -44.766  58.869 -53.724  1.00  0.00     0.084 A 
HETATM   29  C   UNL     1     -43.979  57.763 -54.367  1.00  0.00     0.027 A 
HETATM   30  C   UNL     1     -45.202  58.298 -55.049  1.00  0.00     0.027 A 
ENDBRANCH  25  28
ENDBRANCH  19  24
ENDBRANCH   2  18
TORSDOF 5
ENDMDL
MODEL 4
REMARK VINA RESULT:      -8.3      2.317      8.885
REMARK  5 active torsions:
REMARK  status: ('A' for Active; 'I' for Inactive)
REMARK    1  A    between atoms: C_5  and  C_6 
REMARK    2  A    between atoms: C_10  and  C_11 
REMARK       I    between atoms: C_11  and  N_12 
REMARK    3  A    between atoms: N_12  and  C_13 
REMARK    4  A    between atoms: C_14  and  C_15 
REMARK       I    between atoms: C_15  and  N_16 
REMARK    5  A    between atoms: N_16  and  C_17 
ROOT
HETATM    1  C   UNL     1     -43.023  55.093 -54.505  1.00  0.00     0.274 C 
HETATM    2  N   UNL     1     -41.831  55.206 -53.823  1.00  0.00    -0.321 N 
HETATM    3  O   UNL     1     -44.013  54.494 -54.109  1.00  0.00    -0.266 OA
HETATM    4  H   UNL     1     -41.274  56.016 -54.054  1.00  0.00     0.169 HD
ENDROOT
BRANCH   1   5
HETATM    5  C   UNL     1     -43.012  55.771 -55.778  1.00  0.00     0.120 A 
HETATM    6  N   UNL     1     -43.264  55.120 -56.955  1.00  0.00    -0.272 N 
HETATM    7  N   UNL     1     -43.062  55.873 -58.051  1.00  0.00    -0.174 NA
HETATM    8  H   UNL     1     -43.526  54.145 -57.068  1.00  0.00     0.189 HD
HETATM    9  C   UNL     1     -42.704  57.074 -57.572  1.00  0.00     0.089 A 
HETATM   10  C   UNL     1     -42.690  57.060 -56.151  1.00  0.00     0.071 A 
BRANCH   9  11
HETATM   11  C   UNL     1     -42.311  58.187 -58.433  1.00  0.00    -0.006 A 
HETATM   12  C   UNL     1     -42.322  58.047 -59.828  1.00  0.00     0.014 A 
HETATM   13  C   UNL     1     -42.045  59.141 -60.652  1.00  0.00     0.007 A 
HETATM   14  C   UNL     1     -41.744  60.389 -60.097  1.00  0.00    -0.062 A 
HETATM   15  C   UNL     1     -41.519  61.578 -60.983  1.00  0.00     0.048 C 
HETATM   16  C   UNL     1     -41.724  60.528 -58.704  1.00  0.00     0.007 A 
HETATM   17  C   UNL     1     -41.995  59.432 -57.878  1.00  0.00     0.014 A 
ENDBRANCH   9  11
ENDBRANCH   1   5
BRANCH   2  18
HETATM   18  C   UNL     1     -41.356  54.417 -52.752  1.00  0.00     0.050 A 
HETATM   19  C   UNL     1     -41.659  54.561 -51.388  1.00  0.00     0.058 A 
HETATM   20  C   UNL     1     -41.068  53.692 -50.447  1.00  0.00     0.019 A 
HETATM   21  C   UNL     1     -40.225  52.658 -50.851  1.00  0.00     0.001 A 
HETATM   22  C   UNL     1     -39.964  52.478 -52.201  1.00  0.00     0.002 A 
HETATM   23  C   UNL     1     -40.526  53.346 -53.140  1.00  0.00     0.030 A 
BRANCH  19  24
HETATM   24  C   UNL     1     -42.637  55.500 -50.793  1.00  0.00     0.254 C 
HETATM   25  N   UNL     1     -42.266  56.792 -50.487  1.00  0.00    -0.352 N 
HETATM   26  H   UNL     1     -43.035  57.331 -50.102  1.00  0.00     0.163 HD
HETATM   27  O   UNL     1     -43.815  55.159 -50.693  1.00  0.00    -0.268 OA
BRANCH  25  28
HETATM   28  C   UNL     1     -41.005  57.433 -50.640  1.00  0.00     0.084 A 
HETATM   29  C   UNL     1     -40.693  58.395 -51.750  1.00  0.00     0.027 A 
HETATM   30  C   UNL     1     -40.892  58.909 -50.356  1.00  0.00     0.027 A 
ENDBRANCH  25  28
ENDBRANCH  19  24
ENDBRANCH   2  18
TORSDOF 5
ENDMDL
MODEL 5
REMARK VINA RESULT:      -8.2      5.212      7.028
REMARK  5 active torsions:
REMARK  status: ('A' for Active; 'I' for Inactive)
REMARK    1  A    between atoms: C_5  and  C_6 
REMARK    2  A    between atoms: C_10  and  C_11 
REMARK       I    between atoms: C_11  and  N_12 
REMARK    3  A    between atoms: N_12  and  C_13 
REMARK    4  A    between atoms: C_14  and  C_15 
REMARK       I    between atoms: C_15  and  N_16 
REMARK    5  A    between atoms: N_16  and  C_17 
ROOT
HETATM    1  C   UNL     1     -44.398  57.524 -51.298  1.00  0.00     0.274 C 
HETATM    2  N   UNL     1     -44.144  58.531 -52.204  1.00  0.00    -0.321 N 
HETATM    3  O   UNL     1     -45.368  57.466 -50.555  1.00  0.00    -0.266 OA
HETATM    4  H   UNL     1     -43.570  58.271 -52.992  1.00  0.00     0.169 HD
ENDROOT
BRANCH   1   5
HETATM    5  C   UNL     1     -43.387  56.496 -51.298  1.00  0.00     0.120 A 
HETATM    6  N   UNL     1     -42.303  56.537 -50.463  1.00  0.00    -0.272 N 
HETATM    7  N   UNL     1     -41.389  55.580 -50.706  1.00  0.00    -0.174 NA
HETATM    8  H   UNL     1     -42.113  57.229 -49.745  1.00  0.00     0.189 HD
HETATM    9  C   UNL     1     -41.914  54.862 -51.709  1.00  0.00     0.089 A 
HETATM   10  C   UNL     1     -43.179  55.385 -52.089  1.00  0.00     0.071 A 
BRANCH   9  11
HETATM   11  C   UNL     1     -41.206  53.754 -52.347  1.00  0.00    -0.006 A 
HETATM   12  C   UNL     1     -40.353  52.929 -51.600  1.00  0.00     0.014 A 
HETATM   13  C   UNL     1     -39.757  51.809 -52.186  1.00  0.00     0.007 A 
HETATM   14  C   UNL     1     -39.996  51.501 -53.530  1.00  0.00    -0.062 A 
HETATM   15  C   UNL     1     -39.413  50.259 -54.136  1.00  0.00     0.048 C 
HETATM   16  C   UNL     1     -40.840  52.328 -54.279  1.00  0.00     0.007 A 
HETATM   17  C   UNL     1     -41.432  53.453 -53.695  1.00  0.00     0.014 A 
ENDBRANCH   9  11
ENDBRANCH   1   5
BRANCH   2  18
HETATM   18  C   UNL     1     -44.694  59.831 -52.247  1.00  0.00     0.050 A 
HETATM   19  C   UNL     1     -44.495  60.871 -51.323  1.00  0.00     0.058 A 
HETATM   20  C   UNL     1     -45.149  62.106 -51.512  1.00  0.00     0.019 A 
HETATM   21  C   UNL     1     -45.953  62.333 -52.628  1.00  0.00     0.001 A 
HETATM   22  C   UNL     1     -46.112  61.327 -53.571  1.00  0.00     0.002 A 
HETATM   23  C   UNL     1     -45.486  60.092 -53.383  1.00  0.00     0.030 A 
BRANCH  19  24
HETATM   24  C   UNL     1     -43.570  60.863 -50.167  1.00  0.00     0.254 C 
HETATM   25  N   UNL     1     -44.062  60.819 -48.881  1.00  0.00    -0.352 N 
HETATM   26  H   UNL     1     -43.321  60.802 -48.187  1.00  0.00     0.163 HD
HETATM   27  O   UNL     1     -42.359  60.766 -50.366  1.00  0.00    -0.268 OA
BRANCH  25  28
HETATM   28  C   UNL     1     -45.410  60.793 -48.427  1.00  0.00     0.084 A 
HETATM   29  C   UNL     1     -45.796  60.606 -46.987  1.00  0.00     0.027 A 
HETATM   30  C   UNL     1     -45.938  61.955 -47.624  1.00  0.00     0.027 A 
ENDBRANCH  25  28
ENDBRANCH  19  24
ENDBRANCH   2  18
TORSDOF 5
ENDMDL
MODEL 6
REMARK VINA RESULT:      -8.1      6.143      8.255
REMARK  5 active torsions:
REMARK  status: ('A' for Active; 'I' for Inactive)
REMARK    1  A    between atoms: C_5  and  C_6 
REMARK    2  A    between atoms: C_10  and  C_11 
REMARK       I    between atoms: C_11  and  N_12 
REMARK    3  A    between atoms: N_12  and  C_13 
REMARK    4  A    between atoms: C_14  and  C_15 
REMARK       I    between atoms: C_15  and  N_16 
REMARK    5  A    between atoms: N_16  and  C_17 
ROOT
HETATM    1  C   UNL     1     -43.148  59.245 -51.479  1.00  0.00     0.274 C 
HETATM    2  N   UNL     1     -42.687  60.154 -50.552  1.00  0.00    -0.321 N 
HETATM    3  O   UNL     1     -43.963  59.480 -52.359  1.00  0.00    -0.266 OA
HETATM    4  H   UNL     1     -41.773  59.960 -50.170  1.00  0.00     0.169 HD
ENDROOT
BRANCH   1   5
HETATM    5  C   UNL     1     -42.563  57.935 -51.325  1.00  0.00     0.120 A 
HETATM    6  N   UNL     1     -41.785  57.604 -50.249  1.00  0.00    -0.272 N 
HETATM    7  N   UNL     1     -41.203  56.396 -50.347  1.00  0.00    -0.174 NA
HETATM    8  H   UNL     1     -41.577  58.189 -49.446  1.00  0.00     0.189 HD
HETATM    9  C   UNL     1     -41.649  55.900 -51.511  1.00  0.00     0.089 A 
HETATM   10  C   UNL     1     -42.528  56.822 -52.140  1.00  0.00     0.071 A 
BRANCH   9  11
HETATM   11  C   UNL     1     -41.199  54.622 -52.054  1.00  0.00    -0.006 A 
HETATM   12  C   UNL     1     -41.319  54.348 -53.424  1.00  0.00     0.014 A 
HETATM   13  C   UNL     1     -40.797  53.167 -53.960  1.00  0.00     0.007 A 
HETATM   14  C   UNL     1     -40.152  52.239 -53.135  1.00  0.00    -0.062 A 
HETATM   15  C   UNL     1     -39.528  51.008 -53.724  1.00  0.00     0.048 C 
HETATM   16  C   UNL     1     -40.039  52.508 -51.766  1.00  0.00     0.007 A 
HETATM   17  C   UNL     1     -40.567  53.684 -51.228  1.00  0.00     0.014 A 
ENDBRANCH   9  11
ENDBRANCH   1   5
BRANCH   2  18
HETATM   18  C   UNL     1     -43.261  61.388 -50.174  1.00  0.00     0.050 A 
HETATM   19  C   UNL     1     -44.466  61.590 -49.480  1.00  0.00     0.058 A 
HETATM   20  C   UNL     1     -44.901  62.904 -49.207  1.00  0.00     0.019 A 
HETATM   21  C   UNL     1     -44.133  64.008 -49.571  1.00  0.00     0.001 A 
HETATM   22  C   UNL     1     -42.917  63.813 -50.210  1.00  0.00     0.002 A 
HETATM   23  C   UNL     1     -42.486  62.517 -50.504  1.00  0.00     0.030 A 
BRANCH  19  24
HETATM   24  C   UNL     1     -45.334  60.545 -48.892  1.00  0.00     0.254 C 
HETATM   25  N   UNL     1     -45.376  60.360 -47.527  1.00  0.00    -0.352 N 
HETATM   26  H   UNL     1     -46.022  59.625 -47.259  1.00  0.00     0.163 HD
HETATM   27  O   UNL     1     -46.114  59.932 -49.619  1.00  0.00    -0.268 OA
BRANCH  25  28
HETATM   28  C   UNL     1     -44.664  61.039 -46.498  1.00  0.00     0.084 A 
HETATM   29  C   UNL     1     -45.295  62.046 -45.580  1.00  0.00     0.027 A 
HETATM   30  C   UNL     1     -44.940  60.686 -45.059  1.00  0.00     0.027 A 
ENDBRANCH  25  28
ENDBRANCH  19  24
ENDBRANCH   2  18
TORSDOF 5
ENDMDL
MODEL 7
REMARK VINA RESULT:      -8.1      2.177      8.756
REMARK  5 active torsions:
REMARK  status: ('A' for Active; 'I' for Inactive)
REMARK    1  A    between atoms: C_5  and  C_6 
REMARK    2  A    between atoms: C_10  and  C_11 
REMARK       I    between atoms: C_11  and  N_12 
REMARK    3  A    between atoms: N_12  and  C_13 
REMARK    4  A    between atoms: C_14  and  C_15 
REMARK       I    between atoms: C_15  and  N_16 
REMARK    5  A    between atoms: N_16  and  C_17 
ROOT
HETATM    1  C   UNL     1     -43.171  55.031 -55.740  1.00  0.00     0.274 C 
HETATM    2  N   UNL     1     -42.761  55.591 -54.550  1.00  0.00    -0.321 N 
HETATM    3  O   UNL     1     -43.530  53.872 -55.892  1.00  0.00    -0.266 OA
HETATM    4  H   UNL     1     -42.879  56.591 -54.477  1.00  0.00     0.169 HD
ENDROOT
BRANCH   1   5
HETATM    5  C   UNL     1     -43.145  55.963 -56.841  1.00  0.00     0.120 A 
HETATM    6  N   UNL     1     -43.571  55.623 -58.096  1.00  0.00    -0.272 N 
HETATM    7  N   UNL     1     -43.333  56.563 -59.028  1.00  0.00    -0.174 NA
HETATM    8  H   UNL     1     -43.983  54.740 -58.381  1.00  0.00     0.189 HD
HETATM    9  C   UNL     1     -42.768  57.573 -58.350  1.00  0.00     0.089 A 
HETATM   10  C   UNL     1     -42.659  57.248 -56.971  1.00  0.00     0.071 A 
BRANCH   9  11
HETATM   11  C   UNL     1     -42.271  58.785 -58.997  1.00  0.00    -0.006 A 
HETATM   12  C   UNL     1     -42.290  58.905 -60.394  1.00  0.00     0.014 A 
HETATM   13  C   UNL     1     -41.911  60.102 -61.008  1.00  0.00     0.007 A 
HETATM   14  C   UNL     1     -41.500  61.195 -60.237  1.00  0.00    -0.062 A 
HETATM   15  C   UNL     1     -41.164  62.501 -60.893  1.00  0.00     0.048 C 
HETATM   16  C   UNL     1     -41.473  61.073 -58.843  1.00  0.00     0.007 A 
HETATM   17  C   UNL     1     -41.845  59.874 -58.228  1.00  0.00     0.014 A 
ENDBRANCH   9  11
ENDBRANCH   1   5
BRANCH   2  18
HETATM   18  C   UNL     1     -42.330  54.936 -53.375  1.00  0.00     0.050 A 
HETATM   19  C   UNL     1     -41.224  54.082 -53.232  1.00  0.00     0.058 A 
HETATM   20  C   UNL     1     -40.957  53.491 -51.979  1.00  0.00     0.019 A 
HETATM   21  C   UNL     1     -41.743  53.777 -50.865  1.00  0.00     0.001 A 
HETATM   22  C   UNL     1     -42.805  54.661 -50.987  1.00  0.00     0.002 A 
HETATM   23  C   UNL     1     -43.092  55.236 -52.228  1.00  0.00     0.030 A 
BRANCH  19  24
HETATM   24  C   UNL     1     -40.202  53.778 -54.259  1.00  0.00     0.254 C 
HETATM   25  N   UNL     1     -39.924  52.473 -54.601  1.00  0.00    -0.352 N 
HETATM   26  H   UNL     1     -39.217  52.409 -55.327  1.00  0.00     0.163 HD
HETATM   27  O   UNL     1     -39.695  54.702 -54.895  1.00  0.00    -0.268 OA
BRANCH  25  28
HETATM   28  C   UNL     1     -40.477  51.264 -54.093  1.00  0.00     0.084 A 
HETATM   29  C   UNL     1     -40.124  49.904 -54.622  1.00  0.00     0.027 A 
HETATM   30  C   UNL     1     -39.604  50.339 -53.285  1.00  0.00     0.027 A 
ENDBRANCH  25  28
ENDBRANCH  19  24
ENDBRANCH   2  18
TORSDOF 5
ENDMDL
MODEL 8
REMARK VINA RESULT:      -7.9      4.491      5.688
REMARK  5 active torsions:
REMARK  status: ('A' for Active; 'I' for Inactive)
REMARK    1  A    between atoms: C_5  and  C_6 
REMARK    2  A    between atoms: C_10  and  C_11 
REMARK       I    between atoms: C_11  and  N_12 
REMARK    3  A    between atoms: N_12  and  C_13 
REMARK    4  A    between atoms: C_14  and  C_15 
REMARK       I    between atoms: C_15  and  N_16 
REMARK    5  A    between atoms: N_16  and  C_17 
ROOT
HETATM    1  C   UNL     1     -44.171  57.214 -51.635  1.00  0.00     0.274 C 
HETATM    2  N   UNL     1     -44.009  57.898 -52.820  1.00  0.00    -0.321 N 
HETATM    3  O   UNL     1     -44.827  57.599 -50.677  1.00  0.00    -0.266 OA
HETATM    4  H   UNL     1     -43.802  57.327 -53.626  1.00  0.00     0.169 HD
ENDROOT
BRANCH   1   5
HETATM    5  C   UNL     1     -43.477  55.950 -51.612  1.00  0.00     0.120 A 
HETATM    6  N   UNL     1     -43.219  55.278 -50.449  1.00  0.00    -0.272 N 
HETATM    7  N   UNL     1     -42.432  54.198 -50.604  1.00  0.00    -0.174 NA
HETATM    8  H   UNL     1     -43.512  55.544 -49.514  1.00  0.00     0.189 HD
HETATM    9  C   UNL     1     -42.201  54.137 -51.924  1.00  0.00     0.089 A 
HETATM   10  C   UNL     1     -42.863  55.200 -52.595  1.00  0.00     0.071 A 
BRANCH   9  11
HETATM   11  C   UNL     1     -41.316  53.146 -52.530  1.00  0.00    -0.006 A 
HETATM   12  C   UNL     1     -40.381  52.453 -51.748  1.00  0.00     0.014 A 
HETATM   13  C   UNL     1     -39.606  51.433 -52.308  1.00  0.00     0.007 A 
HETATM   14  C   UNL     1     -39.746  51.095 -53.658  1.00  0.00    -0.062 A 
HETATM   15  C   UNL     1     -38.966  49.952 -54.238  1.00  0.00     0.048 C 
HETATM   16  C   UNL     1     -40.673  51.792 -54.441  1.00  0.00     0.007 A 
HETATM   17  C   UNL     1     -41.444  52.817 -53.885  1.00  0.00     0.014 A 
ENDBRANCH   9  11
ENDBRANCH   1   5
BRANCH   2  18
HETATM   18  C   UNL     1     -44.231  59.269 -53.078  1.00  0.00     0.050 A 
HETATM   19  C   UNL     1     -43.283  60.226 -53.475  1.00  0.00     0.058 A 
HETATM   20  C   UNL     1     -43.682  61.566 -53.665  1.00  0.00     0.019 A 
HETATM   21  C   UNL     1     -45.013  61.950 -53.514  1.00  0.00     0.001 A 
HETATM   22  C   UNL     1     -45.964  60.998 -53.174  1.00  0.00     0.002 A 
HETATM   23  C   UNL     1     -45.576  59.673 -52.962  1.00  0.00     0.030 A 
BRANCH  19  24
HETATM   24  C   UNL     1     -41.865  59.977 -53.821  1.00  0.00     0.254 C 
HETATM   25  N   UNL     1     -40.957  59.640 -52.841  1.00  0.00    -0.352 N 
HETATM   26  H   UNL     1     -40.028  59.481 -53.217  1.00  0.00     0.163 HD
HETATM   27  O   UNL     1     -41.531  59.946 -55.005  1.00  0.00    -0.268 OA
BRANCH  25  28
HETATM   28  C   UNL     1     -41.150  59.490 -51.439  1.00  0.00     0.084 A 
HETATM   29  C   UNL     1     -40.711  58.279 -50.667  1.00  0.00     0.027 A 
HETATM   30  C   UNL     1     -39.957  59.567 -50.521  1.00  0.00     0.027 A 
ENDBRANCH  25  28
ENDBRANCH  19  24
ENDBRANCH   2  18
TORSDOF 5
ENDMDL
MODEL 9
REMARK VINA RESULT:      -7.9      1.574      2.012
REMARK  5 active torsions:
REMARK  status: ('A' for Active; 'I' for Inactive)
REMARK    1  A    between atoms: C_5  and  C_6 
REMARK    2  A    between atoms: C_10  and  C_11 
REMARK       I    between atoms: C_11  and  N_12 
REMARK    3  A    between atoms: N_12  and  C_13 
REMARK    4  A    between atoms: C_14  and  C_15 
REMARK       I    between atoms: C_15  and  N_16 
REMARK    5  A    between atoms: N_16  and  C_17 
ROOT
HETATM    1  C   UNL     1     -44.064  57.377 -55.715  1.00  0.00     0.274 C 
HETATM    2  N   UNL     1     -43.562  57.128 -56.974  1.00  0.00    -0.321 N 
HETATM    3  O   UNL     1     -44.897  58.228 -55.439  1.00  0.00    -0.266 OA
HETATM    4  H   UNL     1     -43.216  56.192 -57.126  1.00  0.00     0.169 HD
ENDROOT
BRANCH   1   5
HETATM    5  C   UNL     1     -43.506  56.513 -54.703  1.00  0.00     0.120 A 
HETATM    6  N   UNL     1     -43.549  56.825 -53.372  1.00  0.00    -0.272 N 
HETATM    7  N   UNL     1     -42.848  55.983 -52.590  1.00  0.00    -0.174 NA
HETATM    8  H   UNL     1     -43.998  57.631 -52.949  1.00  0.00     0.189 HD
HETATM    9  C   UNL     1     -42.364  55.063 -53.437  1.00  0.00     0.089 A 
HETATM   10  C   UNL     1     -42.778  55.343 -54.768  1.00  0.00     0.071 A 
BRANCH   9  11
HETATM   11  C   UNL     1     -41.468  53.989 -53.015  1.00  0.00    -0.006 A 
HETATM   12  C   UNL     1     -41.148  53.819 -51.661  1.00  0.00     0.014 A 
HETATM   13  C   UNL     1     -40.375  52.731 -51.246  1.00  0.00     0.007 A 
HETATM   14  C   UNL     1     -39.903  51.800 -52.178  1.00  0.00    -0.062 A 
HETATM   15  C   UNL     1     -39.135  50.595 -51.722  1.00  0.00     0.048 C 
HETATM   16  C   UNL     1     -40.215  51.974 -53.532  1.00  0.00     0.007 A 
HETATM   17  C   UNL     1     -40.982  53.065 -53.949  1.00  0.00     0.014 A 
ENDBRANCH   9  11
ENDBRANCH   1   5
BRANCH   2  18
HETATM   18  C   UNL     1     -43.598  57.963 -58.113  1.00  0.00     0.050 A 
HETATM   19  C   UNL     1     -44.633  58.072 -59.057  1.00  0.00     0.058 A 
HETATM   20  C   UNL     1     -44.485  58.945 -60.154  1.00  0.00     0.019 A 
HETATM   21  C   UNL     1     -43.350  59.742 -60.295  1.00  0.00     0.001 A 
HETATM   22  C   UNL     1     -42.348  59.677 -59.337  1.00  0.00     0.002 A 
HETATM   23  C   UNL     1     -42.474  58.800 -58.257  1.00  0.00     0.030 A 
BRANCH  19  24
HETATM   24  C   UNL     1     -45.960  57.420 -58.994  1.00  0.00     0.254 C 
HETATM   25  N   UNL     1     -46.161  56.191 -59.585  1.00  0.00    -0.352 N 
HETATM   26  H   UNL     1     -47.109  55.853 -59.453  1.00  0.00     0.163 HD
HETATM   27  O   UNL     1     -46.845  57.921 -58.303  1.00  0.00    -0.268 OA
BRANCH  25  28
HETATM   28  C   UNL     1     -45.252  55.377 -60.317  1.00  0.00     0.084 A 
HETATM   29  C   UNL     1     -43.920  54.935 -59.781  1.00  0.00     0.027 A 
HETATM   30  C   UNL     1     -45.041  53.947 -59.892  1.00  0.00     0.027 A 
ENDBRANCH  25  28
ENDBRANCH  19  24
ENDBRANCH   2  18
TORSDOF 5
ENDMDL
MODEL 10
REMARK VINA RESULT:      -7.8      2.657      8.691
REMARK  5 active torsions:
REMARK  status: ('A' for Active; 'I' for Inactive)
REMARK    1  A    between atoms: C_5  and  C_6 
REMARK    2  A    between atoms: C_10  and  C_11 
REMARK       I    between atoms: C_11  and  N_12 
REMARK    3  A    between atoms: N_12  and  C_13 
REMARK    4  A    between atoms: C_14  and  C_15 
REMARK       I    between atoms: C_15  and  N_16 
REMARK    5  A    between atoms: N_16  and  C_17 
ROOT
HETATM    1  C   UNL     1     -41.187  55.282 -54.669  1.00  0.00     0.274 C 
HETATM    2  N   UNL     1     -41.938  54.847 -53.598  1.00  0.00    -0.321 N 
HETATM    3  O   UNL     1     -39.983  55.114 -54.806  1.00  0.00    -0.266 OA
HETATM    4  H   UNL     1     -42.917  54.695 -53.788  1.00  0.00     0.169 HD
ENDROOT
BRANCH   1   5
HETATM    5  C   UNL     1     -41.968  55.978 -55.661  1.00  0.00     0.120 A 
HETATM    6  N   UNL     1     -42.203  57.324 -55.593  1.00  0.00    -0.272 N 
HETATM    7  N   UNL     1     -43.074  57.774 -56.514  1.00  0.00    -0.174 NA
HETATM    8  H   UNL     1     -41.835  57.973 -54.904  1.00  0.00     0.189 HD
HETATM    9  C   UNL     1     -43.389  56.690 -57.238  1.00  0.00     0.089 A 
HETATM   10  C   UNL     1     -42.694  55.549 -56.754  1.00  0.00     0.071 A 
BRANCH   9  11
HETATM   11  C   UNL     1     -44.379  56.712 -58.311  1.00  0.00    -0.006 A 
HETATM   12  C   UNL     1     -44.320  55.776 -59.354  1.00  0.00     0.014 A 
HETATM   13  C   UNL     1     -45.324  55.732 -60.325  1.00  0.00     0.007 A 
HETATM   14  C   UNL     1     -46.399  56.626 -60.274  1.00  0.00    -0.062 A 
HETATM   15  C   UNL     1     -47.512  56.528 -61.275  1.00  0.00     0.048 C 
HETATM   16  C   UNL     1     -46.455  57.566 -59.239  1.00  0.00     0.007 A 
HETATM   17  C   UNL     1     -45.447  57.616 -58.271  1.00  0.00     0.014 A 
ENDBRANCH   9  11
ENDBRANCH   1   5
BRANCH   2  18
HETATM   18  C   UNL     1     -41.492  54.455 -52.316  1.00  0.00     0.050 A 
HETATM   19  C   UNL     1     -41.830  55.035 -51.082  1.00  0.00     0.058 A 
HETATM   20  C   UNL     1     -41.265  54.525 -49.894  1.00  0.00     0.019 A 
HETATM   21  C   UNL     1     -40.415  53.422 -49.916  1.00  0.00     0.001 A 
HETATM   22  C   UNL     1     -40.119  52.811 -51.127  1.00  0.00     0.002 A 
HETATM   23  C   UNL     1     -40.655  53.321 -52.312  1.00  0.00     0.030 A 
BRANCH  19  24
HETATM   24  C   UNL     1     -42.820  56.111 -50.852  1.00  0.00     0.254 C 
HETATM   25  N   UNL     1     -42.434  57.433 -50.887  1.00  0.00    -0.352 N 
HETATM   26  H   UNL     1     -43.213  58.064 -50.730  1.00  0.00     0.163 HD
HETATM   27  O   UNL     1     -44.013  55.821 -50.758  1.00  0.00    -0.268 OA
BRANCH  25  28
HETATM   28  C   UNL     1     -41.146  57.996 -51.107  1.00  0.00     0.084 A 
HETATM   29  C   UNL     1     -40.618  58.348 -52.469  1.00  0.00     0.027 A 
HETATM   30  C   UNL     1     -41.037  59.439 -51.529  1.00  0.00     0.027 A 
ENDBRANCH  25  28
ENDBRANCH  19  24
ENDBRANCH   2  18
TORSDOF 5
ENDMDL
