MODEL 1
REMARK VINA RESULT:      -8.0      0.000      0.000
REMARK  4 active torsions:
REMARK  status: ('A' for Active; 'I' for Inactive)
REMARK    1  A    between atoms: C_3  and  N_4 
REMARK       I    between atoms: N_4  and  C_5 
REMARK    2  A    between atoms: C_5  and  C_6 
REMARK    3  A    between atoms: C_7  and  C_8 
REMARK    4  A    between atoms: C_16  and  C_17 
ROOT
HETATM    1  C   UNL     1     -44.932  57.615 -55.095  1.00  0.00     0.003 A 
HETATM    2  C   UNL     1     -44.501  56.608 -54.229  1.00  0.00     0.029 A 
HETATM    3  C   UNL     1     -43.519  55.707 -54.634  1.00  0.00     0.035 A 
HETATM    4  C   UNL     1     -42.981  55.820 -55.926  1.00  0.00     0.042 A 
HETATM    5  C   UNL     1     -43.407  56.824 -56.814  1.00  0.00    -0.021 A 
HETATM    6  C   UNL     1     -44.387  57.724 -56.376  1.00  0.00     0.012 A 
ENDROOT
BRANCH   3   7
HETATM    7  N   UNL     1     -42.996  54.692 -53.805  1.00  0.00    -0.327 N 
HETATM    8  C   UNL     1     -42.235  54.851 -52.666  1.00  0.00     0.227 C 
HETATM    9  O   UNL     1     -41.972  55.898 -52.091  1.00  0.00    -0.273 OA
HETATM   10  H   UNL     1     -43.179  53.742 -54.099  1.00  0.00     0.169 HD
BRANCH   8  11
HETATM   11  C   UNL     1     -41.677  53.566 -52.151  1.00  0.00     0.089 A 
HETATM   12  C   UNL     1     -40.264  53.197 -52.591  1.00  0.00     0.057 A 
HETATM   13  C   UNL     1     -40.570  53.522 -51.147  1.00  0.00     0.027 A 
BRANCH  12  14
HETATM   14  C   UNL     1     -40.039  51.759 -53.007  1.00  0.00     0.057 A 
HETATM   15  O   UNL     1     -39.642  50.759 -52.170  1.00  0.00    -0.327 OA
HETATM   16  C   UNL     1     -39.582  49.623 -52.912  1.00  0.00     0.142 A 
HETATM   17  C   UNL     1     -39.939  49.880 -54.215  1.00  0.00     0.027 A 
HETATM   18  C   UNL     1     -40.231  51.263 -54.278  1.00  0.00     0.035 A 
ENDBRANCH  12  14
ENDBRANCH   8  11
ENDBRANCH   3   7
BRANCH   5  19
HETATM   19  C   UNL     1     -42.829  56.917 -58.148  1.00  0.00     0.010 A 
HETATM   20  C   UNL     1     -42.874  56.022 -59.245  1.00  0.00     0.152 A 
HETATM   21  N   UNL     1     -42.222  56.475 -60.319  1.00  0.00    -0.187 NA
HETATM   22  N   UNL     1     -41.752  57.665 -59.919  1.00  0.00    -0.289 N 
HETATM   23  H   UNL     1     -41.210  58.215 -60.577  1.00  0.00     0.188 HD
HETATM   24  C   UNL     1     -42.089  57.977 -58.633  1.00  0.00     0.123 A 
ENDBRANCH   5  19
TORSDOF 4
ENDMDL
MODEL 2
REMARK VINA RESULT:      -7.7      1.521      1.892
REMARK  4 active torsions:
REMARK  status: ('A' for Active; 'I' for Inactive)
REMARK    1  A    between atoms: C_3  and  N_4 
REMARK       I    between atoms: N_4  and  C_5 
REMARK    2  A    between atoms: C_5  and  C_6 
REMARK    3  A    between atoms: C_7  and  C_8 
REMARK    4  A    between atoms: C_16  and  C_17 
ROOT
HETATM    1  C   UNL     1     -42.474  57.875 -56.357  1.00  0.00     0.003 A 
HETATM    2  C   UNL     1     -42.178  56.956 -55.348  1.00  0.00     0.029 A 
HETATM    3  C   UNL     1     -42.402  55.596 -55.550  1.00  0.00     0.035 A 
HETATM    4  C   UNL     1     -42.939  55.168 -56.774  1.00  0.00     0.042 A 
HETATM    5  C   UNL     1     -43.250  56.079 -57.799  1.00  0.00    -0.021 A 
HETATM    6  C   UNL     1     -43.003  57.439 -57.574  1.00  0.00     0.012 A 
ENDROOT
BRANCH   3   7
HETATM    7  N   UNL     1     -42.086  54.601 -54.601  1.00  0.00    -0.327 N 
HETATM    8  C   UNL     1     -42.263  54.661 -53.234  1.00  0.00     0.227 C 
HETATM    9  O   UNL     1     -42.835  55.535 -52.599  1.00  0.00    -0.273 OA
HETATM   10  H   UNL     1     -41.657  53.761 -54.966  1.00  0.00     0.169 HD
BRANCH   8  11
HETATM   11  C   UNL     1     -41.631  53.517 -52.512  1.00  0.00     0.089 A 
HETATM   12  C   UNL     1     -40.217  53.127 -52.931  1.00  0.00     0.057 A 
HETATM   13  C   UNL     1     -40.492  53.705 -51.562  1.00  0.00     0.027 A 
BRANCH  12  14
HETATM   14  C   UNL     1     -39.940  51.647 -53.081  1.00  0.00     0.057 A 
HETATM   15  O   UNL     1     -39.690  50.792 -52.049  1.00  0.00    -0.327 OA
HETATM   16  C   UNL     1     -39.522  49.558 -52.590  1.00  0.00     0.142 A 
HETATM   17  C   UNL     1     -39.664  49.608 -53.956  1.00  0.00     0.027 A 
HETATM   18  C   UNL     1     -39.931  50.960 -54.276  1.00  0.00     0.035 A 
ENDBRANCH  12  14
ENDBRANCH   8  11
ENDBRANCH   3   7
BRANCH   5  19
HETATM   19  C   UNL     1     -43.806  55.604 -59.060  1.00  0.00     0.010 A 
HETATM   20  C   UNL     1     -43.976  56.258 -60.305  1.00  0.00     0.152 A 
HETATM   21  N   UNL     1     -44.520  55.473 -61.239  1.00  0.00    -0.187 NA
HETATM   22  N   UNL     1     -44.703  54.310 -60.600  1.00  0.00    -0.289 N 
HETATM   23  H   UNL     1     -45.114  53.537 -61.114  1.00  0.00     0.188 HD
HETATM   24  C   UNL     1     -44.292  54.334 -59.298  1.00  0.00     0.123 A 
ENDBRANCH   5  19
TORSDOF 4
ENDMDL
MODEL 3
REMARK VINA RESULT:      -7.5      3.286      7.816
REMARK  4 active torsions:
REMARK  status: ('A' for Active; 'I' for Inactive)
REMARK    1  A    between atoms: C_3  and  N_4 
REMARK       I    between atoms: N_4  and  C_5 
REMARK    2  A    between atoms: C_5  and  C_6 
REMARK    3  A    between atoms: C_7  and  C_8 
REMARK    4  A    between atoms: C_16  and  C_17 
ROOT
HETATM    1  C   UNL     1     -40.964  54.940 -52.294  1.00  0.00     0.003 A 
HETATM    2  C   UNL     1     -41.260  55.532 -53.524  1.00  0.00     0.029 A 
HETATM    3  C   UNL     1     -41.180  54.788 -54.698  1.00  0.00     0.035 A 
HETATM    4  C   UNL     1     -40.786  53.443 -54.628  1.00  0.00     0.042 A 
HETATM    5  C   UNL     1     -40.476  52.832 -53.399  1.00  0.00    -0.021 A 
HETATM    6  C   UNL     1     -40.578  53.600 -52.233  1.00  0.00     0.012 A 
ENDROOT
BRANCH   3   7
HETATM    7  N   UNL     1     -41.509  55.297 -55.973  1.00  0.00    -0.327 N 
HETATM    8  C   UNL     1     -42.646  55.990 -56.330  1.00  0.00     0.227 C 
HETATM    9  O   UNL     1     -43.527  56.400 -55.588  1.00  0.00    -0.273 OA
HETATM   10  H   UNL     1     -40.844  55.105 -56.711  1.00  0.00     0.169 HD
BRANCH   8  11
HETATM   11  C   UNL     1     -42.766  56.198 -57.803  1.00  0.00     0.089 A 
HETATM   12  C   UNL     1     -44.027  56.892 -58.307  1.00  0.00     0.057 A 
HETATM   13  C   UNL     1     -42.674  57.555 -58.427  1.00  0.00     0.027 A 
BRANCH  12  14
HETATM   14  C   UNL     1     -44.684  56.295 -59.533  1.00  0.00     0.057 A 
HETATM   15  O   UNL     1     -44.059  55.490 -60.437  1.00  0.00    -0.327 OA
HETATM   16  C   UNL     1     -44.987  55.143 -61.365  1.00  0.00     0.142 A 
HETATM   17  C   UNL     1     -46.202  55.713 -61.067  1.00  0.00     0.027 A 
HETATM   18  C   UNL     1     -46.007  56.462 -59.883  1.00  0.00     0.035 A 
ENDBRANCH  12  14
ENDBRANCH   8  11
ENDBRANCH   3   7
BRANCH   5  19
HETATM   19  C   UNL     1     -40.071  51.433 -53.357  1.00  0.00     0.010 A 
HETATM   20  C   UNL     1     -39.976  50.461 -54.384  1.00  0.00     0.152 A 
HETATM   21  N   UNL     1     -39.547  49.275 -53.946  1.00  0.00    -0.187 NA
HETATM   22  N   UNL     1     -39.365  49.475 -52.634  1.00  0.00    -0.289 N 
HETATM   23  H   UNL     1     -39.033  48.700 -52.069  1.00  0.00     0.188 HD
HETATM   24  C   UNL     1     -39.660  50.746 -52.232  1.00  0.00     0.123 A 
ENDBRANCH   5  19
TORSDOF 4
ENDMDL
MODEL 4
REMARK VINA RESULT:      -7.3      3.833      8.145
REMARK  4 active torsions:
REMARK  status: ('A' for Active; 'I' for Inactive)
REMARK    1  A    between atoms: C_3  and  N_4 
REMARK       I    between atoms: N_4  and  C_5 
REMARK    2  A    between atoms: C_5  and  C_6 
REMARK    3  A    between atoms: C_7  and  C_8 
REMARK    4  A    between atoms: C_16  and  C_17 
ROOT
HETATM    1  C   UNL     1     -40.246  54.054 -55.274  1.00  0.00     0.003 A 
HETATM    2  C   UNL     1     -41.075  54.969 -54.622  1.00  0.00     0.029 A 
HETATM    3  C   UNL     1     -41.522  54.713 -53.328  1.00  0.00     0.035 A 
HETATM    4  C   UNL     1     -41.139  53.519 -52.698  1.00  0.00     0.042 A 
HETATM    5  C   UNL     1     -40.311  52.582 -53.341  1.00  0.00    -0.021 A 
HETATM    6  C   UNL     1     -39.865  52.871 -54.637  1.00  0.00     0.012 A 
ENDROOT
BRANCH   3   7
HETATM    7  N   UNL     1     -42.321  55.607 -52.584  1.00  0.00    -0.327 N 
HETATM    8  C   UNL     1     -41.945  56.822 -52.051  1.00  0.00     0.227 C 
HETATM    9  O   UNL     1     -40.888  57.411 -52.225  1.00  0.00    -0.273 OA
HETATM   10  H   UNL     1     -43.269  55.304 -52.399  1.00  0.00     0.169 HD
BRANCH   8  11
HETATM   11  C   UNL     1     -42.978  57.410 -51.147  1.00  0.00     0.089 A 
HETATM   12  C   UNL     1     -43.873  58.498 -51.730  1.00  0.00     0.057 A 
HETATM   13  C   UNL     1     -44.439  57.155 -51.335  1.00  0.00     0.027 A 
BRANCH  12  14
HETATM   14  C   UNL     1     -44.123  59.708 -50.856  1.00  0.00     0.057 A 
HETATM   15  O   UNL     1     -45.241  59.906 -50.102  1.00  0.00    -0.327 OA
HETATM   16  C   UNL     1     -45.072  61.084 -49.448  1.00  0.00     0.142 A 
HETATM   17  C   UNL     1     -43.859  61.644 -49.769  1.00  0.00     0.027 A 
HETATM   18  C   UNL     1     -43.245  60.756 -50.684  1.00  0.00     0.035 A 
ENDBRANCH  12  14
ENDBRANCH   8  11
ENDBRANCH   3   7
BRANCH   5  19
HETATM   19  C   UNL     1     -39.929  51.351 -52.661  1.00  0.00     0.010 A 
HETATM   20  C   UNL     1     -39.635  51.095 -51.299  1.00  0.00     0.152 A 
HETATM   21  N   UNL     1     -39.333  49.816 -51.059  1.00  0.00    -0.187 NA
HETATM   22  N   UNL     1     -39.430  49.242 -52.266  1.00  0.00    -0.289 N 
HETATM   23  H   UNL     1     -39.242  48.248 -52.343  1.00  0.00     0.188 HD
HETATM   24  C   UNL     1     -39.785  50.114 -53.255  1.00  0.00     0.123 A 
ENDBRANCH   5  19
TORSDOF 4
ENDMDL
MODEL 5
REMARK VINA RESULT:      -7.3      2.706      7.479
REMARK  4 active torsions:
REMARK  status: ('A' for Active; 'I' for Inactive)
REMARK    1  A    between atoms: C_3  and  N_4 
REMARK       I    between atoms: N_4  and  C_5 
REMARK    2  A    between atoms: C_5  and  C_6 
REMARK    3  A    between atoms: C_7  and  C_8 
REMARK    4  A    between atoms: C_16  and  C_17 
ROOT
HETATM    1  C   UNL     1     -40.590  54.119 -50.269  1.00  0.00     0.003 A 
HETATM    2  C   UNL     1     -40.921  55.128 -51.174  1.00  0.00     0.029 A 
HETATM    3  C   UNL     1     -40.930  54.869 -52.543  1.00  0.00     0.035 A 
HETATM    4  C   UNL     1     -40.590  53.584 -52.995  1.00  0.00     0.042 A 
HETATM    5  C   UNL     1     -40.247  52.557 -52.098  1.00  0.00    -0.021 A 
HETATM    6  C   UNL     1     -40.258  52.842 -50.727  1.00  0.00     0.012 A 
ENDROOT
BRANCH   3   7
HETATM    7  N   UNL     1     -41.298  55.819 -53.519  1.00  0.00    -0.327 N 
HETATM    8  C   UNL     1     -42.532  55.969 -54.117  1.00  0.00     0.227 C 
HETATM    9  O   UNL     1     -43.570  55.391 -53.829  1.00  0.00    -0.273 OA
HETATM   10  H   UNL     1     -40.564  56.439 -53.832  1.00  0.00     0.169 HD
BRANCH   8  11
HETATM   11  C   UNL     1     -42.517  56.937 -55.254  1.00  0.00     0.089 A 
HETATM   12  C   UNL     1     -43.482  56.672 -56.405  1.00  0.00     0.057 A 
HETATM   13  C   UNL     1     -43.647  57.881 -55.513  1.00  0.00     0.027 A 
BRANCH  12  14
HETATM   14  C   UNL     1     -42.928  56.839 -57.803  1.00  0.00     0.057 A 
HETATM   15  O   UNL     1     -42.186  57.901 -58.226  1.00  0.00    -0.327 OA
HETATM   16  C   UNL     1     -41.860  57.664 -59.523  1.00  0.00     0.142 A 
HETATM   17  C   UNL     1     -42.382  56.462 -59.939  1.00  0.00     0.027 A 
HETATM   18  C   UNL     1     -43.077  55.928 -58.828  1.00  0.00     0.035 A 
ENDBRANCH  12  14
ENDBRANCH   8  11
ENDBRANCH   3   7
BRANCH   5  19
HETATM   19  C   UNL     1     -39.899  51.232 -52.598  1.00  0.00     0.010 A 
HETATM   20  C   UNL     1     -39.827  50.727 -53.919  1.00  0.00     0.152 A 
HETATM   21  N   UNL     1     -39.455  49.445 -53.971  1.00  0.00    -0.187 NA
HETATM   22  N   UNL     1     -39.285  49.118 -52.683  1.00  0.00    -0.289 N 
HETATM   23  H   UNL     1     -38.995  48.172 -52.460  1.00  0.00     0.188 HD
HETATM   24  C   UNL     1     -39.535  50.149 -51.823  1.00  0.00     0.123 A 
ENDBRANCH   5  19
TORSDOF 4
ENDMDL
MODEL 6
REMARK VINA RESULT:      -7.3      4.172      5.052
REMARK  4 active torsions:
REMARK  status: ('A' for Active; 'I' for Inactive)
REMARK    1  A    between atoms: C_3  and  N_4 
REMARK       I    between atoms: N_4  and  C_5 
REMARK    2  A    between atoms: C_5  and  C_6 
REMARK    3  A    between atoms: C_7  and  C_8 
REMARK    4  A    between atoms: C_16  and  C_17 
ROOT
HETATM    1  C   UNL     1     -40.963  59.594 -50.575  1.00  0.00     0.003 A 
HETATM    2  C   UNL     1     -40.707  58.221 -50.585  1.00  0.00     0.029 A 
HETATM    3  C   UNL     1     -41.679  57.330 -51.034  1.00  0.00     0.035 A 
HETATM    4  C   UNL     1     -42.918  57.832 -51.464  1.00  0.00     0.042 A 
HETATM    5  C   UNL     1     -43.195  59.210 -51.455  1.00  0.00    -0.021 A 
HETATM    6  C   UNL     1     -42.195  60.084 -51.010  1.00  0.00     0.012 A 
ENDROOT
BRANCH   3   7
HETATM    7  N   UNL     1     -41.484  55.935 -51.120  1.00  0.00    -0.327 N 
HETATM    8  C   UNL     1     -41.231  55.194 -52.255  1.00  0.00     0.227 C 
HETATM    9  O   UNL     1     -41.007  55.615 -53.381  1.00  0.00    -0.273 OA
HETATM   10  H   UNL     1     -41.567  55.423 -50.253  1.00  0.00     0.169 HD
BRANCH   8  11
HETATM   11  C   UNL     1     -41.283  53.721 -52.015  1.00  0.00     0.089 A 
HETATM   12  C   UNL     1     -39.951  52.990 -51.890  1.00  0.00     0.057 A 
HETATM   13  C   UNL     1     -40.885  53.111 -50.709  1.00  0.00     0.027 A 
BRANCH  12  14
HETATM   14  C   UNL     1     -39.831  51.671 -52.623  1.00  0.00     0.057 A 
HETATM   15  O   UNL     1     -39.634  50.462 -52.024  1.00  0.00    -0.327 OA
HETATM   16  C   UNL     1     -39.611  49.532 -53.013  1.00  0.00     0.142 A 
HETATM   17  C   UNL     1     -39.794  50.126 -54.239  1.00  0.00     0.027 A 
HETATM   18  C   UNL     1     -39.933  51.512 -53.988  1.00  0.00     0.035 A 
ENDBRANCH  12  14
ENDBRANCH   8  11
ENDBRANCH   3   7
BRANCH   5  19
HETATM   19  C   UNL     1     -44.490  59.701 -51.908  1.00  0.00     0.010 A 
HETATM   20  C   UNL     1     -45.562  60.292 -51.194  1.00  0.00     0.152 A 
HETATM   21  N   UNL     1     -46.592  60.626 -51.976  1.00  0.00    -0.187 NA
HETATM   22  N   UNL     1     -46.190  60.250 -53.198  1.00  0.00    -0.289 N 
HETATM   23  H   UNL     1     -46.817  60.405 -53.981  1.00  0.00     0.188 HD
HETATM   24  C   UNL     1     -44.942  59.696 -53.213  1.00  0.00     0.123 A 
ENDBRANCH   5  19
TORSDOF 4
ENDMDL
MODEL 7
REMARK VINA RESULT:      -7.3      2.890      7.352
REMARK  4 active torsions:
REMARK  status: ('A' for Active; 'I' for Inactive)
REMARK    1  A    between atoms: C_3  and  N_4 
REMARK       I    between atoms: N_4  and  C_5 
REMARK    2  A    between atoms: C_5  and  C_6 
REMARK    3  A    between atoms: C_7  and  C_8 
REMARK    4  A    between atoms: C_16  and  C_17 
ROOT
HETATM    1  C   UNL     1     -40.198  53.799 -50.063  1.00  0.00     0.003 A 
HETATM    2  C   UNL     1     -40.754  54.907 -50.704  1.00  0.00     0.029 A 
HETATM    3  C   UNL     1     -41.060  54.852 -52.062  1.00  0.00     0.035 A 
HETATM    4  C   UNL     1     -40.790  53.674 -52.775  1.00  0.00     0.042 A 
HETATM    5  C   UNL     1     -40.223  52.550 -52.147  1.00  0.00    -0.021 A 
HETATM    6  C   UNL     1     -39.938  52.629 -50.778  1.00  0.00     0.012 A 
ENDROOT
BRANCH   3   7
HETATM    7  N   UNL     1     -41.666  55.910 -52.772  1.00  0.00    -0.327 N 
HETATM    8  C   UNL     1     -42.950  56.391 -52.623  1.00  0.00     0.227 C 
HETATM    9  O   UNL     1     -43.764  56.076 -51.768  1.00  0.00    -0.273 OA
HETATM   10  H   UNL     1     -41.100  56.342 -53.490  1.00  0.00     0.169 HD
BRANCH   8  11
HETATM   11  C   UNL     1     -43.330  57.379 -53.677  1.00  0.00     0.089 A 
HETATM   12  C   UNL     1     -44.079  56.843 -54.893  1.00  0.00     0.057 A 
HETATM   13  C   UNL     1     -44.751  57.781 -53.917  1.00  0.00     0.027 A 
BRANCH  12  14
HETATM   14  C   UNL     1     -43.630  57.357 -56.244  1.00  0.00     0.057 A 
HETATM   15  O   UNL     1     -44.020  58.541 -56.795  1.00  0.00    -0.327 OA
HETATM   16  C   UNL     1     -43.382  58.649 -57.989  1.00  0.00     0.142 A 
HETATM   17  C   UNL     1     -42.585  57.551 -58.211  1.00  0.00     0.027 A 
HETATM   18  C   UNL     1     -42.748  56.711 -57.084  1.00  0.00     0.035 A 
ENDBRANCH  12  14
ENDBRANCH   8  11
ENDBRANCH   3   7
BRANCH   5  19
HETATM   19  C   UNL     1     -39.955  51.339 -52.913  1.00  0.00     0.010 A 
HETATM   20  C   UNL     1     -39.543  50.049 -52.498  1.00  0.00     0.152 A 
HETATM   21  N   UNL     1     -39.413  49.188 -53.511  1.00  0.00    -0.187 NA
HETATM   22  N   UNL     1     -39.740  49.920 -54.584  1.00  0.00    -0.289 N 
HETATM   23  H   UNL     1     -39.718  49.475 -55.496  1.00  0.00     0.188 HD
HETATM   24  C   UNL     1     -40.074  51.209 -54.282  1.00  0.00     0.123 A 
ENDBRANCH   5  19
TORSDOF 4
ENDMDL
MODEL 8
REMARK VINA RESULT:      -7.2      2.981      8.295
REMARK  4 active torsions:
REMARK  status: ('A' for Active; 'I' for Inactive)
REMARK    1  A    between atoms: C_3  and  N_4 
REMARK       I    between atoms: N_4  and  C_5 
REMARK    2  A    between atoms: C_5  and  C_6 
REMARK    3  A    between atoms: C_7  and  C_8 
REMARK    4  A    between atoms: C_16  and  C_17 
ROOT
HETATM    1  C   UNL     1     -39.818  51.860 -53.402  1.00  0.00     0.003 A 
HETATM    2  C   UNL     1     -40.240  52.766 -54.376  1.00  0.00     0.029 A 
HETATM    3  C   UNL     1     -40.768  54.001 -54.005  1.00  0.00     0.035 A 
HETATM    4  C   UNL     1     -40.878  54.313 -52.641  1.00  0.00     0.042 A 
HETATM    5  C   UNL     1     -40.465  53.410 -51.646  1.00  0.00    -0.021 A 
HETATM    6  C   UNL     1     -39.926  52.181 -52.047  1.00  0.00     0.012 A 
ENDROOT
BRANCH   3   7
HETATM    7  N   UNL     1     -41.173  54.989 -54.927  1.00  0.00    -0.327 N 
HETATM    8  C   UNL     1     -42.315  54.995 -55.700  1.00  0.00     0.227 C 
HETATM    9  O   UNL     1     -43.250  54.209 -55.646  1.00  0.00    -0.273 OA
HETATM   10  H   UNL     1     -40.537  55.766 -55.052  1.00  0.00     0.169 HD
BRANCH   8  11
HETATM   11  C   UNL     1     -42.329  56.090 -56.715  1.00  0.00     0.089 A 
HETATM   12  C   UNL     1     -43.634  56.859 -56.890  1.00  0.00     0.057 A 
HETATM   13  C   UNL     1     -42.403  57.533 -56.330  1.00  0.00     0.027 A 
BRANCH  12  14
HETATM   14  C   UNL     1     -44.066  57.143 -58.312  1.00  0.00     0.057 A 
HETATM   15  O   UNL     1     -44.614  56.224 -59.157  1.00  0.00    -0.327 OA
HETATM   16  C   UNL     1     -44.888  56.871 -60.320  1.00  0.00     0.142 A 
HETATM   17  C   UNL     1     -44.526  58.194 -60.231  1.00  0.00     0.027 A 
HETATM   18  C   UNL     1     -43.990  58.371 -58.933  1.00  0.00     0.035 A 
ENDBRANCH  12  14
ENDBRANCH   8  11
ENDBRANCH   3   7
BRANCH   5  19
HETATM   19  C   UNL     1     -40.591  53.762 -50.237  1.00  0.00     0.010 A 
HETATM   20  C   UNL     1     -40.975  54.975 -49.613  1.00  0.00     0.152 A 
HETATM   21  N   UNL     1     -40.981  54.900 -48.280  1.00  0.00    -0.187 NA
HETATM   22  N   UNL     1     -40.600  53.638 -48.037  1.00  0.00    -0.289 N 
HETATM   23  H   UNL     1     -40.528  53.333 -47.072  1.00  0.00     0.188 HD
HETATM   24  C   UNL     1     -40.357  52.917 -49.171  1.00  0.00     0.123 A 
ENDBRANCH   5  19
TORSDOF 4
ENDMDL
MODEL 9
REMARK VINA RESULT:      -7.1      2.818      3.787
REMARK  4 active torsions:
REMARK  status: ('A' for Active; 'I' for Inactive)
REMARK    1  A    between atoms: C_3  and  N_4 
REMARK       I    between atoms: N_4  and  C_5 
REMARK    2  A    between atoms: C_5  and  C_6 
REMARK    3  A    between atoms: C_7  and  C_8 
REMARK    4  A    between atoms: C_16  and  C_17 
ROOT
HETATM    1  C   UNL     1     -43.744  56.433 -59.891  1.00  0.00     0.003 A 
HETATM    2  C   UNL     1     -42.913  55.802 -58.964  1.00  0.00     0.029 A 
HETATM    3  C   UNL     1     -42.969  56.154 -57.617  1.00  0.00     0.035 A 
HETATM    4  C   UNL     1     -43.861  57.159 -57.212  1.00  0.00     0.042 A 
HETATM    5  C   UNL     1     -44.700  57.811 -58.132  1.00  0.00    -0.021 A 
HETATM    6  C   UNL     1     -44.633  57.428 -59.478  1.00  0.00     0.012 A 
ENDROOT
BRANCH   3   7
HETATM    7  N   UNL     1     -42.199  55.532 -56.611  1.00  0.00    -0.327 N 
HETATM    8  C   UNL     1     -42.585  54.504 -55.777  1.00  0.00     0.227 C 
HETATM    9  O   UNL     1     -43.620  53.856 -55.829  1.00  0.00    -0.273 OA
HETATM   10  H   UNL     1     -41.269  55.905 -56.472  1.00  0.00     0.169 HD
BRANCH   8  11
HETATM   11  C   UNL     1     -41.596  54.228 -54.693  1.00  0.00     0.089 A 
HETATM   12  C   UNL     1     -40.427  53.310 -55.036  1.00  0.00     0.057 A 
HETATM   13  C   UNL     1     -40.203  54.771 -54.727  1.00  0.00     0.027 A 
BRANCH  12  14
HETATM   14  C   UNL     1     -40.068  52.259 -54.008  1.00  0.00     0.057 A 
HETATM   15  O   UNL     1     -39.758  52.518 -52.706  1.00  0.00    -0.327 OA
HETATM   16  C   UNL     1     -39.527  51.320 -52.110  1.00  0.00     0.142 A 
HETATM   17  C   UNL     1     -39.686  50.294 -53.011  1.00  0.00     0.027 A 
HETATM   18  C   UNL     1     -40.033  50.901 -54.242  1.00  0.00     0.035 A 
ENDBRANCH  12  14
ENDBRANCH   8  11
ENDBRANCH   3   7
BRANCH   5  19
HETATM   19  C   UNL     1     -45.618  58.850 -57.681  1.00  0.00     0.010 A 
HETATM   20  C   UNL     1     -45.384  60.045 -56.956  1.00  0.00     0.152 A 
HETATM   21  N   UNL     1     -46.496  60.753 -56.741  1.00  0.00    -0.187 NA
HETATM   22  N   UNL     1     -47.451  60.019 -57.327  1.00  0.00    -0.289 N 
HETATM   23  H   UNL     1     -48.407  60.359 -57.298  1.00  0.00     0.188 HD
HETATM   24  C   UNL     1     -46.979  58.875 -57.905  1.00  0.00     0.123 A 
ENDBRANCH   5  19
TORSDOF 4
ENDMDL
MODEL 10
REMARK VINA RESULT:      -7.0      3.564      7.921
REMARK  4 active torsions:
REMARK  status: ('A' for Active; 'I' for Inactive)
REMARK    1  A    between atoms: C_3  and  N_4 
REMARK       I    between atoms: N_4  and  C_5 
REMARK    2  A    between atoms: C_5  and  C_6 
REMARK    3  A    between atoms: C_7  and  C_8 
REMARK    4  A    between atoms: C_16  and  C_17 
ROOT
HETATM    1  C   UNL     1     -40.029  53.923 -50.142  1.00  0.00     0.003 A 
HETATM    2  C   UNL     1     -40.862  54.904 -50.683  1.00  0.00     0.029 A 
HETATM    3  C   UNL     1     -41.420  54.732 -51.948  1.00  0.00     0.035 A 
HETATM    4  C   UNL     1     -41.122  53.567 -52.672  1.00  0.00     0.042 A 
HETATM    5  C   UNL     1     -40.279  52.571 -52.146  1.00  0.00    -0.021 A 
HETATM    6  C   UNL     1     -39.743  52.765 -50.867  1.00  0.00     0.012 A 
ENDROOT
BRANCH   3   7
HETATM    7  N   UNL     1     -42.308  55.652 -52.545  1.00  0.00    -0.327 N 
HETATM    8  C   UNL     1     -41.995  56.662 -53.431  1.00  0.00     0.227 C 
HETATM    9  O   UNL     1     -40.914  56.875 -53.959  1.00  0.00    -0.273 OA
HETATM   10  H   UNL     1     -43.277  55.575 -52.268  1.00  0.00     0.169 HD
BRANCH   8  11
HETATM   11  C   UNL     1     -43.144  57.576 -53.704  1.00  0.00     0.089 A 
HETATM   12  C   UNL     1     -43.133  58.932 -53.007  1.00  0.00     0.057 A 
HETATM   13  C   UNL     1     -42.993  58.828 -54.507  1.00  0.00     0.027 A 
BRANCH  12  14
HETATM   14  C   UNL     1     -44.442  59.393 -52.403  1.00  0.00     0.057 A 
HETATM   15  O   UNL     1     -44.892  59.048 -51.163  1.00  0.00    -0.327 OA
HETATM   16  C   UNL     1     -46.080  59.681 -50.984  1.00  0.00     0.142 A 
HETATM   17  C   UNL     1     -46.398  60.430 -52.092  1.00  0.00     0.027 A 
HETATM   18  C   UNL     1     -45.341  60.241 -53.013  1.00  0.00     0.035 A 
ENDBRANCH  12  14
ENDBRANCH   8  11
ENDBRANCH   3   7
BRANCH   5  19
HETATM   19  C   UNL     1     -39.988  51.371 -52.920  1.00  0.00     0.010 A 
HETATM   20  C   UNL     1     -39.561  50.083 -52.513  1.00  0.00     0.152 A 
HETATM   21  N   UNL     1     -39.413  49.233 -53.533  1.00  0.00    -0.187 NA
HETATM   22  N   UNL     1     -39.743  49.969 -54.602  1.00  0.00    -0.289 N 
HETATM   23  H   UNL     1     -39.708  49.533 -55.518  1.00  0.00     0.188 HD
HETATM   24  C   UNL     1     -40.097  51.251 -54.291  1.00  0.00     0.123 A 
ENDBRANCH   5  19
TORSDOF 4
ENDMDL
