MODEL 1
REMARK VINA RESULT:      -9.4      0.000      0.000
REMARK  6 active torsions:
REMARK  status: ('A' for Active; 'I' for Inactive)
REMARK    1  A    between atoms: C_2  and  O_3 
REMARK    2  A    between atoms: O_3  and  C_4 
REMARK    3  A    between atoms: C_4  and  C_5 
REMARK    4  A    between atoms: C_10  and  N_11 
REMARK       I    between atoms: N_11  and  C_12 
REMARK    5  A    between atoms: C_12  and  C_13 
REMARK    6  A    between atoms: C_13  and  N_14 
ROOT
HETATM    1  N   UNL     1     -42.276  56.300 -54.127  1.00  0.00    -0.322 N 
HETATM    2  C   UNL     1     -43.447  56.007 -54.793  1.00  0.00     0.253 C 
HETATM    3  O   UNL     1     -44.274  55.163 -54.457  1.00  0.00    -0.271 OA
HETATM    4  H   UNL     1     -41.944  57.265 -54.122  1.00  0.00     0.169 HD
ENDROOT
BRANCH   2   5
HETATM    5  C   UNL     1     -43.701  56.910 -56.021  1.00  0.00     0.275 C 
HETATM    6  C   UNL     1     -43.817  58.365 -55.593  1.00  0.00     0.050 C 
BRANCH   5   7
HETATM    7  N   UNL     1     -42.652  56.713 -57.152  1.00  0.00    -0.058 N 
HETATM    8  H   UNL     1     -41.839  56.434 -56.582  1.00  0.00     0.281 HD
HETATM    9  C   UNL     1     -42.901  55.494 -58.016  1.00  0.00     0.246 C 
HETATM   10  C   UNL     1     -43.053  55.783 -59.515  1.00  0.00     0.062 C 
HETATM   11  C   UNL     1     -41.907  56.676 -59.963  1.00  0.00     0.020 C 
HETATM   12  C   UNL     1     -44.413  56.377 -59.833  1.00  0.00     0.020 A 
HETATM   13  C   UNL     1     -42.115  58.033 -59.318  1.00  0.00     0.031 C 
HETATM   14  C   UNL     1     -43.404  58.652 -59.858  1.00  0.00     0.138 C 
HETATM   15  C   UNL     1     -42.110  57.987 -57.788  1.00  0.00     0.242 C 
HETATM   16  N   UNL     1     -44.559  57.765 -59.874  1.00  0.00    -0.317 N 
HETATM   17  C   UNL     1     -45.789  58.383 -60.139  1.00  0.00     0.247 A 
HETATM   18  O   UNL     1     -45.950  59.599 -60.191  1.00  0.00    -0.268 OA
HETATM   19  C   UNL     1     -46.948  57.484 -60.351  1.00  0.00     0.074 A 
HETATM   20  C   UNL     1     -46.778  56.158 -60.318  1.00  0.00     0.007 A 
HETATM   21  C   UNL     1     -45.481  55.589 -60.059  1.00  0.00     0.026 A 
ENDBRANCH   5   7
ENDBRANCH   2   5
BRANCH   1  22
HETATM   22  C   UNL     1     -41.693  55.498 -53.153  1.00  0.00     0.080 A 
HETATM   23  C   UNL     1     -41.522  55.949 -51.853  1.00  0.00     0.137 A 
HETATM   24  N   UNL     1     -40.894  54.944 -51.158  1.00  0.00    -0.349 N 
HETATM   25  H   UNL     1     -40.652  54.994 -50.176  1.00  0.00     0.166 HD
HETATM   26  C   UNL     1     -40.609  53.882 -51.983  1.00  0.00     0.045 A 
HETATM   27  C   UNL     1     -41.117  54.192 -53.249  1.00  0.00     0.023 A 
HETATM   28  C   UNL     1     -39.932  52.689 -51.701  1.00  0.00     0.033 A 
HETATM   29  C   UNL     1     -40.913  53.261 -54.287  1.00  0.00     0.058 A 
HETATM   30  C   UNL     1     -40.236  52.072 -54.016  1.00  0.00     0.117 A 
HETATM   31  C   UNL     1     -39.751  51.783 -52.748  1.00  0.00     0.044 A 
HETATM   32  F   UNL     1     -40.038  51.196 -55.009  1.00  0.00    -0.206 F 
BRANCH  23  33
HETATM   33  C   UNL     1     -41.954  57.202 -51.286  1.00  0.00     0.312 C 
HETATM   34  O   UNL     1     -43.109  57.610 -51.338  1.00  0.00    -0.258 OA
BRANCH  33  35
HETATM   35  O   UNL     1     -40.911  57.819 -50.670  1.00  0.00    -0.317 OA
BRANCH  35  36
HETATM   36  C   UNL     1     -40.235  58.824 -51.443  1.00  0.00     0.175 C 
HETATM   37  C   UNL     1     -39.199  59.532 -50.587  1.00  0.00     0.034 C 
ENDBRANCH  35  36
ENDBRANCH  33  35
ENDBRANCH  23  33
ENDBRANCH   1  22
TORSDOF 6
ENDMDL
MODEL 2
REMARK VINA RESULT:      -9.3      2.033      3.584
REMARK  6 active torsions:
REMARK  status: ('A' for Active; 'I' for Inactive)
REMARK    1  A    between atoms: C_2  and  O_3 
REMARK    2  A    between atoms: O_3  and  C_4 
REMARK    3  A    between atoms: C_4  and  C_5 
REMARK    4  A    between atoms: C_10  and  N_11 
REMARK       I    between atoms: N_11  and  C_12 
REMARK    5  A    between atoms: C_12  and  C_13 
REMARK    6  A    between atoms: C_13  and  N_14 
ROOT
HETATM    1  N   UNL     1     -40.989  54.605 -52.875  1.00  0.00    -0.322 N 
HETATM    2  C   UNL     1     -42.238  54.857 -53.403  1.00  0.00     0.253 C 
HETATM    3  O   UNL     1     -43.285  54.310 -53.067  1.00  0.00    -0.271 OA
HETATM    4  H   UNL     1     -40.327  55.377 -52.792  1.00  0.00     0.169 HD
ENDROOT
BRANCH   2   5
HETATM    5  C   UNL     1     -42.244  55.988 -54.456  1.00  0.00     0.275 C 
HETATM    6  C   UNL     1     -42.823  55.485 -55.769  1.00  0.00     0.050 C 
BRANCH   5   7
HETATM    7  N   UNL     1     -42.951  57.282 -53.961  1.00  0.00    -0.058 N 
HETATM    8  H   UNL     1     -42.825  57.164 -52.944  1.00  0.00     0.281 HD
HETATM    9  C   UNL     1     -42.182  58.554 -54.256  1.00  0.00     0.246 C 
HETATM   10  C   UNL     1     -42.947  59.596 -55.081  1.00  0.00     0.062 C 
HETATM   11  C   UNL     1     -44.324  59.794 -54.469  1.00  0.00     0.020 C 
HETATM   12  C   UNL     1     -43.012  59.207 -56.547  1.00  0.00     0.020 A 
HETATM   13  C   UNL     1     -45.108  58.515 -54.700  1.00  0.00     0.031 C 
HETATM   14  C   UNL     1     -45.309  58.314 -56.201  1.00  0.00     0.138 C 
HETATM   15  C   UNL     1     -44.471  57.286 -54.046  1.00  0.00     0.242 C 
HETATM   16  N   UNL     1     -44.114  58.491 -57.016  1.00  0.00    -0.317 N 
HETATM   17  C   UNL     1     -44.231  58.080 -58.352  1.00  0.00     0.247 A 
HETATM   18  O   UNL     1     -45.190  57.456 -58.797  1.00  0.00    -0.268 OA
HETATM   19  C   UNL     1     -43.102  58.422 -59.248  1.00  0.00     0.074 A 
HETATM   20  C   UNL     1     -42.063  59.119 -58.777  1.00  0.00     0.007 A 
HETATM   21  C   UNL     1     -42.017  59.527 -57.396  1.00  0.00     0.026 A 
ENDBRANCH   5   7
ENDBRANCH   2   5
BRANCH   1  22
HETATM   22  C   UNL     1     -40.661  53.496 -52.104  1.00  0.00     0.080 A 
HETATM   23  C   UNL     1     -40.588  53.573 -50.722  1.00  0.00     0.137 A 
HETATM   24  N   UNL     1     -40.212  52.331 -50.268  1.00  0.00    -0.349 N 
HETATM   25  H   UNL     1     -40.090  52.093 -49.292  1.00  0.00     0.166 HD
HETATM   26  C   UNL     1     -39.991  51.474 -51.320  1.00  0.00     0.045 A 
HETATM   27  C   UNL     1     -40.283  52.173 -52.495  1.00  0.00     0.023 A 
HETATM   28  C   UNL     1     -39.543  50.146 -51.309  1.00  0.00     0.033 A 
HETATM   29  C   UNL     1     -40.095  51.507 -53.723  1.00  0.00     0.058 A 
HETATM   30  C   UNL     1     -39.645  50.186 -53.722  1.00  0.00     0.117 A 
HETATM   31  C   UNL     1     -39.372  49.511 -52.541  1.00  0.00     0.044 A 
HETATM   32  F   UNL     1     -39.459  49.562 -54.892  1.00  0.00    -0.206 F 
BRANCH  23  33
HETATM   33  C   UNL     1     -40.892  54.703 -49.880  1.00  0.00     0.312 C 
HETATM   34  O   UNL     1     -41.484  54.613 -48.809  1.00  0.00    -0.258 OA
BRANCH  33  35
HETATM   35  O   UNL     1     -40.398  55.843 -50.432  1.00  0.00    -0.317 OA
BRANCH  35  36
HETATM   36  C   UNL     1     -41.273  56.982 -50.401  1.00  0.00     0.175 C 
HETATM   37  C   UNL     1     -40.511  58.236 -50.791  1.00  0.00     0.034 C 
ENDBRANCH  35  36
ENDBRANCH  33  35
ENDBRANCH  23  33
ENDBRANCH   1  22
TORSDOF 6
ENDMDL
MODEL 3
REMARK VINA RESULT:      -8.9      1.842      2.271
REMARK  6 active torsions:
REMARK  status: ('A' for Active; 'I' for Inactive)
REMARK    1  A    between atoms: C_2  and  O_3 
REMARK    2  A    between atoms: O_3  and  C_4 
REMARK    3  A    between atoms: C_4  and  C_5 
REMARK    4  A    between atoms: C_10  and  N_11 
REMARK       I    between atoms: N_11  and  C_12 
REMARK    5  A    between atoms: C_12  and  C_13 
REMARK    6  A    between atoms: C_13  and  N_14 
ROOT
HETATM    1  N   UNL     1     -43.298  55.786 -53.755  1.00  0.00    -0.322 N 
HETATM    2  C   UNL     1     -42.533  56.271 -54.795  1.00  0.00     0.253 C 
HETATM    3  O   UNL     1     -41.316  56.434 -54.778  1.00  0.00    -0.271 OA
HETATM    4  H   UNL     1     -44.111  55.209 -53.973  1.00  0.00     0.169 HD
ENDROOT
BRANCH   2   5
HETATM    5  C   UNL     1     -43.345  56.544 -56.081  1.00  0.00     0.275 C 
HETATM    6  C   UNL     1     -44.236  57.762 -55.896  1.00  0.00     0.050 C 
BRANCH   5   7
HETATM    7  N   UNL     1     -42.458  56.654 -57.354  1.00  0.00    -0.058 N 
HETATM    8  H   UNL     1     -41.568  56.299 -56.971  1.00  0.00     0.281 HD
HETATM    9  C   UNL     1     -42.797  55.643 -58.430  1.00  0.00     0.246 C 
HETATM   10  C   UNL     1     -43.158  56.245 -59.793  1.00  0.00     0.062 C 
HETATM   11  C   UNL     1     -42.105  57.272 -60.173  1.00  0.00     0.020 C 
HETATM   12  C   UNL     1     -44.562  56.824 -59.792  1.00  0.00     0.020 A 
HETATM   13  C   UNL     1     -42.251  58.443 -59.220  1.00  0.00     0.031 C 
HETATM   14  C   UNL     1     -43.615  59.098 -59.436  1.00  0.00     0.138 C 
HETATM   15  C   UNL     1     -42.035  58.062 -57.753  1.00  0.00     0.242 C 
HETATM   16  N   UNL     1     -44.742  58.177 -59.501  1.00  0.00    -0.317 N 
HETATM   17  C   UNL     1     -46.010  58.774 -59.460  1.00  0.00     0.247 A 
HETATM   18  O   UNL     1     -46.202  59.962 -59.217  1.00  0.00    -0.268 OA
HETATM   19  C   UNL     1     -47.167  57.885 -59.717  1.00  0.00     0.074 A 
HETATM   20  C   UNL     1     -46.966  56.594 -60.004  1.00  0.00     0.007 A 
HETATM   21  C   UNL     1     -45.633  56.050 -60.048  1.00  0.00     0.026 A 
ENDBRANCH   5   7
ENDBRANCH   2   5
BRANCH   1  22
HETATM   22  C   UNL     1     -42.875  55.690 -52.435  1.00  0.00     0.080 A 
HETATM   23  C   UNL     1     -43.362  56.542 -51.456  1.00  0.00     0.137 A 
HETATM   24  N   UNL     1     -42.727  56.213 -50.282  1.00  0.00    -0.349 N 
HETATM   25  H   UNL     1     -42.897  56.668 -49.395  1.00  0.00     0.166 HD
HETATM   26  C   UNL     1     -41.809  55.210 -50.488  1.00  0.00     0.045 A 
HETATM   27  C   UNL     1     -41.890  54.843 -51.835  1.00  0.00     0.023 A 
HETATM   28  C   UNL     1     -40.915  54.620 -49.585  1.00  0.00     0.033 A 
HETATM   29  C   UNL     1     -41.009  53.846 -52.300  1.00  0.00     0.058 A 
HETATM   30  C   UNL     1     -40.112  53.257 -51.409  1.00  0.00     0.117 A 
HETATM   31  C   UNL     1     -40.060  53.631 -50.074  1.00  0.00     0.044 A 
HETATM   32  F   UNL     1     -39.272  52.316 -51.859  1.00  0.00    -0.206 F 
BRANCH  23  33
HETATM   33  C   UNL     1     -44.378  57.556 -51.590  1.00  0.00     0.312 C 
HETATM   34  O   UNL     1     -45.435  57.546 -50.968  1.00  0.00    -0.258 OA
BRANCH  33  35
HETATM   35  O   UNL     1     -43.969  58.514 -52.463  1.00  0.00    -0.317 OA
BRANCH  35  36
HETATM   36  C   UNL     1     -44.496  59.831 -52.238  1.00  0.00     0.175 C 
HETATM   37  C   UNL     1     -45.522  60.173 -53.303  1.00  0.00     0.034 C 
ENDBRANCH  35  36
ENDBRANCH  33  35
ENDBRANCH  23  33
ENDBRANCH   1  22
TORSDOF 6
ENDMDL
MODEL 4
REMARK VINA RESULT:      -8.6      1.792      2.399
REMARK  6 active torsions:
REMARK  status: ('A' for Active; 'I' for Inactive)
REMARK    1  A    between atoms: C_2  and  O_3 
REMARK    2  A    between atoms: O_3  and  C_4 
REMARK    3  A    between atoms: C_4  and  C_5 
REMARK    4  A    between atoms: C_10  and  N_11 
REMARK       I    between atoms: N_11  and  C_12 
REMARK    5  A    between atoms: C_12  and  C_13 
REMARK    6  A    between atoms: C_13  and  N_14 
ROOT
HETATM    1  N   UNL     1     -42.347  54.567 -54.289  1.00  0.00    -0.322 N 
HETATM    2  C   UNL     1     -41.830  55.187 -55.408  1.00  0.00     0.253 C 
HETATM    3  O   UNL     1     -40.697  55.035 -55.856  1.00  0.00    -0.271 OA
HETATM    4  H   UNL     1     -43.336  54.317 -54.280  1.00  0.00     0.169 HD
ENDROOT
BRANCH   2   5
HETATM    5  C   UNL     1     -42.854  56.081 -56.144  1.00  0.00     0.275 C 
HETATM    6  C   UNL     1     -43.458  57.093 -55.184  1.00  0.00     0.050 C 
BRANCH   5   7
HETATM    7  N   UNL     1     -42.272  56.756 -57.418  1.00  0.00    -0.058 N 
HETATM    8  H   UNL     1     -41.344  56.307 -57.439  1.00  0.00     0.281 HD
HETATM    9  C   UNL     1     -42.910  56.286 -58.709  1.00  0.00     0.246 C 
HETATM   10  C   UNL     1     -43.531  57.396 -59.567  1.00  0.00     0.062 C 
HETATM   11  C   UNL     1     -42.527  58.527 -59.710  1.00  0.00     0.020 C 
HETATM   12  C   UNL     1     -44.858  57.864 -58.996  1.00  0.00     0.020 A 
HETATM   13  C   UNL     1     -42.378  59.175 -58.346  1.00  0.00     0.031 C 
HETATM   14  C   UNL     1     -43.710  59.806 -57.944  1.00  0.00     0.138 C 
HETATM   15  C   UNL     1     -41.861  58.216 -57.272  1.00  0.00     0.242 C 
HETATM   16  N   UNL     1     -44.880  58.957 -58.128  1.00  0.00    -0.317 N 
HETATM   17  C   UNL     1     -46.065  59.430 -57.546  1.00  0.00     0.247 A 
HETATM   18  O   UNL     1     -46.120  60.393 -56.787  1.00  0.00    -0.268 OA
HETATM   19  C   UNL     1     -47.305  58.690 -57.878  1.00  0.00     0.074 A 
HETATM   20  C   UNL     1     -47.257  57.653 -58.721  1.00  0.00     0.007 A 
HETATM   21  C   UNL     1     -46.007  57.232 -59.299  1.00  0.00     0.026 A 
ENDBRANCH   5   7
ENDBRANCH   2   5
BRANCH   1  22
HETATM   22  C   UNL     1     -41.591  53.915 -53.322  1.00  0.00     0.080 A 
HETATM   23  C   UNL     1     -41.293  54.517 -52.110  1.00  0.00     0.137 A 
HETATM   24  N   UNL     1     -40.513  53.635 -51.402  1.00  0.00    -0.349 N 
HETATM   25  H   UNL     1     -40.155  53.809 -50.471  1.00  0.00     0.166 HD
HETATM   26  C   UNL     1     -40.258  52.505 -52.143  1.00  0.00     0.045 A 
HETATM   27  C   UNL     1     -40.940  52.642 -53.356  1.00  0.00     0.023 A 
HETATM   28  C   UNL     1     -39.467  51.392 -51.829  1.00  0.00     0.033 A 
HETATM   29  C   UNL     1     -40.800  51.613 -54.310  1.00  0.00     0.058 A 
HETATM   30  C   UNL     1     -40.011  50.503 -54.007  1.00  0.00     0.117 A 
HETATM   31  C   UNL     1     -39.353  50.387 -52.791  1.00  0.00     0.044 A 
HETATM   32  F   UNL     1     -39.876  49.534 -54.921  1.00  0.00    -0.206 F 
BRANCH  23  33
HETATM   33  C   UNL     1     -41.739  55.799 -51.624  1.00  0.00     0.312 C 
HETATM   34  O   UNL     1     -41.018  56.586 -51.020  1.00  0.00    -0.258 OA
BRANCH  33  35
HETATM   35  O   UNL     1     -43.039  56.002 -51.968  1.00  0.00    -0.317 OA
BRANCH  35  36
HETATM   36  C   UNL     1     -43.971  56.068 -50.877  1.00  0.00     0.175 C 
HETATM   37  C   UNL     1     -44.217  54.678 -50.316  1.00  0.00     0.034 C 
ENDBRANCH  35  36
ENDBRANCH  33  35
ENDBRANCH  23  33
ENDBRANCH   1  22
TORSDOF 6
ENDMDL
MODEL 5
REMARK VINA RESULT:      -8.5      2.921      6.596
REMARK  6 active torsions:
REMARK  status: ('A' for Active; 'I' for Inactive)
REMARK    1  A    between atoms: C_2  and  O_3 
REMARK    2  A    between atoms: O_3  and  C_4 
REMARK    3  A    between atoms: C_4  and  C_5 
REMARK    4  A    between atoms: C_10  and  N_11 
REMARK       I    between atoms: N_11  and  C_12 
REMARK    5  A    between atoms: C_12  and  C_13 
REMARK    6  A    between atoms: C_13  and  N_14 
ROOT
HETATM    1  N   UNL     1     -43.448  56.170 -53.871  1.00  0.00    -0.322 N 
HETATM    2  C   UNL     1     -43.427  56.821 -52.655  1.00  0.00     0.253 C 
HETATM    3  O   UNL     1     -42.441  56.979 -51.941  1.00  0.00    -0.271 OA
HETATM    4  H   UNL     1     -44.078  56.509 -54.598  1.00  0.00     0.169 HD
ENDROOT
BRANCH   2   5
HETATM    5  C   UNL     1     -44.789  57.436 -52.262  1.00  0.00     0.275 C 
HETATM    6  C   UNL     1     -45.046  57.248 -50.776  1.00  0.00     0.050 C 
BRANCH   5   7
HETATM    7  N   UNL     1     -44.940  58.921 -52.700  1.00  0.00    -0.058 N 
HETATM    8  H   UNL     1     -45.949  58.933 -52.912  1.00  0.00     0.281 HD
HETATM    9  C   UNL     1     -44.816  59.913 -51.562  1.00  0.00     0.246 C 
HETATM   10  C   UNL     1     -43.717  60.969 -51.740  1.00  0.00     0.062 C 
HETATM   11  C   UNL     1     -43.842  61.579 -53.127  1.00  0.00     0.020 C 
HETATM   12  C   UNL     1     -42.339  60.388 -51.482  1.00  0.00     0.020 A 
HETATM   13  C   UNL     1     -43.465  60.504 -54.129  1.00  0.00     0.031 C 
HETATM   14  C   UNL     1     -41.996  60.130 -53.933  1.00  0.00     0.138 C 
HETATM   15  C   UNL     1     -44.373  59.273 -54.070  1.00  0.00     0.242 C 
HETATM   16  N   UNL     1     -41.595  59.891 -52.553  1.00  0.00    -0.317 N 
HETATM   17  C   UNL     1     -40.325  59.320 -52.385  1.00  0.00     0.247 A 
HETATM   18  O   UNL     1     -39.642  58.882 -53.306  1.00  0.00    -0.268 OA
HETATM   19  C   UNL     1     -39.814  59.244 -50.997  1.00  0.00     0.074 A 
HETATM   20  C   UNL     1     -40.542  59.738 -49.989  1.00  0.00     0.007 A 
HETATM   21  C   UNL     1     -41.832  60.329 -50.236  1.00  0.00     0.026 A 
ENDBRANCH   5   7
ENDBRANCH   2   5
BRANCH   1  22
HETATM   22  C   UNL     1     -42.443  55.332 -54.341  1.00  0.00     0.080 A 
HETATM   23  C   UNL     1     -42.076  55.325 -55.678  1.00  0.00     0.137 A 
HETATM   24  N   UNL     1     -41.094  54.375 -55.821  1.00  0.00    -0.349 N 
HETATM   25  H   UNL     1     -40.630  54.160 -56.694  1.00  0.00     0.166 HD
HETATM   26  C   UNL     1     -40.856  53.735 -54.627  1.00  0.00     0.045 A 
HETATM   27  C   UNL     1     -41.679  54.329 -53.666  1.00  0.00     0.023 A 
HETATM   28  C   UNL     1     -39.986  52.675 -54.341  1.00  0.00     0.033 A 
HETATM   29  C   UNL     1     -41.640  53.813 -52.355  1.00  0.00     0.058 A 
HETATM   30  C   UNL     1     -40.781  52.754 -52.063  1.00  0.00     0.117 A 
HETATM   31  C   UNL     1     -39.965  52.189 -53.032  1.00  0.00     0.044 A 
HETATM   32  F   UNL     1     -40.755  52.263 -50.817  1.00  0.00    -0.206 F 
BRANCH  23  33
HETATM   33  C   UNL     1     -42.567  56.172 -56.736  1.00  0.00     0.312 C 
HETATM   34  O   UNL     1     -43.097  55.746 -57.758  1.00  0.00    -0.258 OA
BRANCH  33  35
HETATM   35  O   UNL     1     -42.386  57.479 -56.411  1.00  0.00    -0.317 OA
BRANCH  35  36
HETATM   36  C   UNL     1     -42.970  58.434 -57.312  1.00  0.00     0.175 C 
HETATM   37  C   UNL     1     -41.879  59.222 -58.015  1.00  0.00     0.034 C 
ENDBRANCH  35  36
ENDBRANCH  33  35
ENDBRANCH  23  33
ENDBRANCH   1  22
TORSDOF 6
ENDMDL
MODEL 6
REMARK VINA RESULT:      -8.3      3.671      7.293
REMARK  6 active torsions:
REMARK  status: ('A' for Active; 'I' for Inactive)
REMARK    1  A    between atoms: C_2  and  O_3 
REMARK    2  A    between atoms: O_3  and  C_4 
REMARK    3  A    between atoms: C_4  and  C_5 
REMARK    4  A    between atoms: C_10  and  N_11 
REMARK       I    between atoms: N_11  and  C_12 
REMARK    5  A    between atoms: C_12  and  C_13 
REMARK    6  A    between atoms: C_13  and  N_14 
ROOT
HETATM    1  N   UNL     1     -42.438  56.739 -53.155  1.00  0.00    -0.322 N 
HETATM    2  C   UNL     1     -41.788  57.757 -52.491  1.00  0.00     0.253 C 
HETATM    3  O   UNL     1     -40.603  58.056 -52.616  1.00  0.00    -0.271 OA
HETATM    4  H   UNL     1     -43.417  56.869 -53.414  1.00  0.00     0.169 HD
ENDROOT
BRANCH   2   5
HETATM    5  C   UNL     1     -42.717  58.590 -51.579  1.00  0.00     0.275 C 
HETATM    6  C   UNL     1     -42.015  59.860 -51.126  1.00  0.00     0.050 C 
BRANCH   5   7
HETATM    7  N   UNL     1     -44.103  58.882 -52.221  1.00  0.00    -0.058 N 
HETATM    8  H   UNL     1     -44.230  58.009 -52.754  1.00  0.00     0.281 HD
HETATM    9  C   UNL     1     -45.255  58.854 -51.237  1.00  0.00     0.246 C 
HETATM   10  C   UNL     1     -46.082  60.144 -51.171  1.00  0.00     0.062 C 
HETATM   11  C   UNL     1     -46.442  60.571 -52.584  1.00  0.00     0.020 C 
HETATM   12  C   UNL     1     -45.355  61.233 -50.401  1.00  0.00     0.020 A 
HETATM   13  C   UNL     1     -45.158  61.008 -53.265  1.00  0.00     0.031 C 
HETATM   14  C   UNL     1     -44.607  62.242 -52.550  1.00  0.00     0.138 C 
HETATM   15  C   UNL     1     -44.111  59.896 -53.358  1.00  0.00     0.242 C 
HETATM   16  N   UNL     1     -44.564  62.149 -51.097  1.00  0.00    -0.317 N 
HETATM   17  C   UNL     1     -43.848  63.166 -50.450  1.00  0.00     0.247 A 
HETATM   18  O   UNL     1     -43.151  63.992 -51.031  1.00  0.00    -0.268 OA
HETATM   19  C   UNL     1     -43.948  63.206 -48.972  1.00  0.00     0.074 A 
HETATM   20  C   UNL     1     -44.721  62.323 -48.331  1.00  0.00     0.007 A 
HETATM   21  C   UNL     1     -45.446  61.316 -49.061  1.00  0.00     0.026 A 
ENDBRANCH   5   7
ENDBRANCH   2   5
BRANCH   1  22
HETATM   22  C   UNL     1     -41.808  55.704 -53.836  1.00  0.00     0.080 A 
HETATM   23  C   UNL     1     -41.813  55.641 -55.220  1.00  0.00     0.137 A 
HETATM   24  N   UNL     1     -41.144  54.495 -55.575  1.00  0.00    -0.349 N 
HETATM   25  H   UNL     1     -40.984  54.198 -56.529  1.00  0.00     0.166 HD
HETATM   26  C   UNL     1     -40.754  53.792 -54.459  1.00  0.00     0.045 A 
HETATM   27  C   UNL     1     -41.142  54.538 -53.342  1.00  0.00     0.023 A 
HETATM   28  C   UNL     1     -40.103  52.555 -54.366  1.00  0.00     0.033 A 
HETATM   29  C   UNL     1     -40.881  53.999 -52.066  1.00  0.00     0.058 A 
HETATM   30  C   UNL     1     -40.238  52.765 -51.964  1.00  0.00     0.117 A 
HETATM   31  C   UNL     1     -39.853  52.049 -53.089  1.00  0.00     0.044 A 
HETATM   32  F   UNL     1     -40.001  52.254 -50.749  1.00  0.00    -0.206 F 
BRANCH  23  33
HETATM   33  C   UNL     1     -42.358  56.600 -56.149  1.00  0.00     0.312 C 
HETATM   34  O   UNL     1     -42.308  57.814 -55.980  1.00  0.00    -0.258 OA
BRANCH  33  35
HETATM   35  O   UNL     1     -42.886  55.960 -57.225  1.00  0.00    -0.317 OA
BRANCH  35  36
HETATM   36  C   UNL     1     -43.164  56.785 -58.368  1.00  0.00     0.175 C 
HETATM   37  C   UNL     1     -42.699  56.092 -59.637  1.00  0.00     0.034 C 
ENDBRANCH  35  36
ENDBRANCH  33  35
ENDBRANCH  23  33
ENDBRANCH   1  22
TORSDOF 6
ENDMDL
MODEL 7
REMARK VINA RESULT:      -8.3      1.721      3.182
REMARK  6 active torsions:
REMARK  status: ('A' for Active; 'I' for Inactive)
REMARK    1  A    between atoms: C_2  and  O_3 
REMARK    2  A    between atoms: O_3  and  C_4 
REMARK    3  A    between atoms: C_4  and  C_5 
REMARK    4  A    between atoms: C_10  and  N_11 
REMARK       I    between atoms: N_11  and  C_12 
REMARK    5  A    between atoms: C_12  and  C_13 
REMARK    6  A    between atoms: C_13  and  N_14 
ROOT
HETATM    1  N   UNL     1     -41.846  56.108 -54.527  1.00  0.00    -0.322 N 
HETATM    2  C   UNL     1     -43.075  55.981 -55.139  1.00  0.00     0.253 C 
HETATM    3  O   UNL     1     -44.047  55.384 -54.684  1.00  0.00    -0.271 OA
HETATM    4  H   UNL     1     -41.320  56.973 -54.659  1.00  0.00     0.169 HD
ENDROOT
BRANCH   2   5
HETATM    5  C   UNL     1     -43.177  56.743 -56.480  1.00  0.00     0.275 C 
HETATM    6  C   UNL     1     -42.956  55.793 -57.646  1.00  0.00     0.050 C 
BRANCH   5   7
HETATM    7  N   UNL     1     -44.497  57.553 -56.625  1.00  0.00    -0.058 N 
HETATM    8  H   UNL     1     -45.117  56.970 -56.043  1.00  0.00     0.281 HD
HETATM    9  C   UNL     1     -44.488  58.879 -55.892  1.00  0.00     0.246 C 
HETATM   10  C   UNL     1     -44.760  60.106 -56.772  1.00  0.00     0.062 C 
HETATM   11  C   UNL     1     -45.991  59.839 -57.622  1.00  0.00     0.020 C 
HETATM   12  C   UNL     1     -43.546  60.474 -57.607  1.00  0.00     0.020 A 
HETATM   13  C   UNL     1     -45.623  58.760 -58.623  1.00  0.00     0.031 C 
HETATM   14  C   UNL     1     -44.540  59.294 -59.559  1.00  0.00     0.138 C 
HETATM   15  C   UNL     1     -45.204  57.441 -57.969  1.00  0.00     0.242 C 
HETATM   16  N   UNL     1     -43.427  59.966 -58.901  1.00  0.00    -0.317 N 
HETATM   17  C   UNL     1     -42.324  60.246 -59.720  1.00  0.00     0.247 A 
HETATM   18  O   UNL     1     -42.193  59.822 -60.864  1.00  0.00    -0.268 OA
HETATM   19  C   UNL     1     -41.262  61.095 -59.129  1.00  0.00     0.074 A 
HETATM   20  C   UNL     1     -41.406  61.578 -57.891  1.00  0.00     0.007 A 
HETATM   21  C   UNL     1     -42.577  61.266 -57.112  1.00  0.00     0.026 A 
ENDBRANCH   5   7
ENDBRANCH   2   5
BRANCH   1  22
HETATM   22  C   UNL     1     -41.409  55.341 -53.454  1.00  0.00     0.080 A 
HETATM   23  C   UNL     1     -41.348  55.861 -52.171  1.00  0.00     0.137 A 
HETATM   24  N   UNL     1     -40.848  54.872 -51.357  1.00  0.00    -0.349 N 
HETATM   25  H   UNL     1     -40.706  54.971 -50.360  1.00  0.00     0.166 HD
HETATM   26  C   UNL     1     -40.538  53.750 -52.088  1.00  0.00     0.045 A 
HETATM   27  C   UNL     1     -40.897  54.006 -53.415  1.00  0.00     0.023 A 
HETATM   28  C   UNL     1     -39.958  52.545 -51.669  1.00  0.00     0.033 A 
HETATM   29  C   UNL     1     -40.639  53.004 -54.373  1.00  0.00     0.058 A 
HETATM   30  C   UNL     1     -40.057  51.803 -53.965  1.00  0.00     0.117 A 
HETATM   31  C   UNL     1     -39.720  51.570 -52.640  1.00  0.00     0.044 A 
HETATM   32  F   UNL     1     -39.806  50.859 -54.881  1.00  0.00    -0.206 F 
BRANCH  23  33
HETATM   33  C   UNL     1     -41.767  57.166 -51.723  1.00  0.00     0.312 C 
HETATM   34  O   UNL     1     -42.859  57.657 -51.987  1.00  0.00    -0.258 OA
BRANCH  33  35
HETATM   35  O   UNL     1     -40.799  57.728 -50.952  1.00  0.00    -0.317 OA
BRANCH  35  36
HETATM   36  C   UNL     1     -40.487  59.100 -51.242  1.00  0.00     0.175 C 
HETATM   37  C   UNL     1     -39.128  59.460 -50.668  1.00  0.00     0.034 C 
ENDBRANCH  35  36
ENDBRANCH  33  35
ENDBRANCH  23  33
ENDBRANCH   1  22
TORSDOF 6
ENDMDL
MODEL 8
REMARK VINA RESULT:      -8.0      2.196      3.481
REMARK  6 active torsions:
REMARK  status: ('A' for Active; 'I' for Inactive)
REMARK    1  A    between atoms: C_2  and  O_3 
REMARK    2  A    between atoms: O_3  and  C_4 
REMARK    3  A    between atoms: C_4  and  C_5 
REMARK    4  A    between atoms: C_10  and  N_11 
REMARK       I    between atoms: N_11  and  C_12 
REMARK    5  A    between atoms: C_12  and  C_13 
REMARK    6  A    between atoms: C_13  and  N_14 
ROOT
HETATM    1  N   UNL     1     -42.384  56.171 -53.192  1.00  0.00    -0.322 N 
HETATM    2  C   UNL     1     -41.518  56.158 -54.265  1.00  0.00     0.253 C 
HETATM    3  O   UNL     1     -40.351  55.775 -54.244  1.00  0.00    -0.271 OA
HETATM    4  H   UNL     1     -43.374  55.987 -53.358  1.00  0.00     0.169 HD
ENDROOT
BRANCH   2   5
HETATM    5  C   UNL     1     -42.171  56.617 -55.589  1.00  0.00     0.275 C 
HETATM    6  C   UNL     1     -42.848  55.444 -56.279  1.00  0.00     0.050 C 
BRANCH   5   7
HETATM    7  N   UNL     1     -43.131  57.827 -55.410  1.00  0.00    -0.058 N 
HETATM    8  H   UNL     1     -43.120  57.901 -54.382  1.00  0.00     0.281 HD
HETATM    9  C   UNL     1     -42.543  59.150 -55.856  1.00  0.00     0.246 C 
HETATM   10  C   UNL     1     -43.353  59.890 -56.929  1.00  0.00     0.062 C 
HETATM   11  C   UNL     1     -44.810  59.935 -56.502  1.00  0.00     0.020 C 
HETATM   12  C   UNL     1     -43.167  59.261 -58.299  1.00  0.00     0.020 A 
HETATM   13  C   UNL     1     -45.345  58.517 -56.570  1.00  0.00     0.031 C 
HETATM   14  C   UNL     1     -45.318  58.040 -58.022  1.00  0.00     0.138 C 
HETATM   15  C   UNL     1     -44.610  57.545 -55.643  1.00  0.00     0.242 C 
HETATM   16  N   UNL     1     -44.072  58.292 -58.734  1.00  0.00    -0.317 N 
HETATM   17  C   UNL     1     -43.950  57.654 -59.977  1.00  0.00     0.247 A 
HETATM   18  O   UNL     1     -44.733  56.805 -60.393  1.00  0.00    -0.268 OA
HETATM   19  C   UNL     1     -42.785  58.041 -60.806  1.00  0.00     0.074 A 
HETATM   20  C   UNL     1     -41.939  58.981 -60.370  1.00  0.00     0.007 A 
HETATM   21  C   UNL     1     -42.135  59.610 -59.090  1.00  0.00     0.026 A 
ENDBRANCH   5   7
ENDBRANCH   2   5
BRANCH   1  22
HETATM   22  C   UNL     1     -42.002  56.044 -51.861  1.00  0.00     0.080 A 
HETATM   23  C   UNL     1     -42.022  57.128 -50.997  1.00  0.00     0.137 A 
HETATM   24  N   UNL     1     -41.561  56.683 -49.782  1.00  0.00    -0.349 N 
HETATM   25  H   UNL     1     -41.478  57.262 -48.956  1.00  0.00     0.166 HD
HETATM   26  C   UNL     1     -41.197  55.359 -49.852  1.00  0.00     0.045 A 
HETATM   27  C   UNL     1     -41.480  54.919 -51.149  1.00  0.00     0.023 A 
HETATM   28  C   UNL     1     -40.630  54.537 -48.870  1.00  0.00     0.033 A 
HETATM   29  C   UNL     1     -41.155  53.588 -51.479  1.00  0.00     0.058 A 
HETATM   30  C   UNL     1     -40.585  52.763 -50.509  1.00  0.00     0.117 A 
HETATM   31  C   UNL     1     -40.325  53.221 -49.225  1.00  0.00     0.044 A 
HETATM   32  F   UNL     1     -40.271  51.502 -50.831  1.00  0.00    -0.206 F 
BRANCH  23  33
HETATM   33  C   UNL     1     -42.481  58.468 -51.267  1.00  0.00     0.312 C 
HETATM   34  O   UNL     1     -41.815  59.473 -51.043  1.00  0.00    -0.258 OA
BRANCH  33  35
HETATM   35  O   UNL     1     -43.720  58.434 -51.826  1.00  0.00    -0.317 OA
BRANCH  35  36
HETATM   36  C   UNL     1     -44.139  59.637 -52.489  1.00  0.00     0.175 C 
HETATM   37  C   UNL     1     -45.287  60.279 -51.730  1.00  0.00     0.034 C 
ENDBRANCH  35  36
ENDBRANCH  33  35
ENDBRANCH  23  33
ENDBRANCH   1  22
TORSDOF 6
ENDMDL
MODEL 9
REMARK VINA RESULT:      -8.0     16.219     18.403
REMARK  6 active torsions:
REMARK  status: ('A' for Active; 'I' for Inactive)
REMARK    1  A    between atoms: C_2  and  O_3 
REMARK    2  A    between atoms: O_3  and  C_4 
REMARK    3  A    between atoms: C_4  and  C_5 
REMARK    4  A    between atoms: C_10  and  N_11 
REMARK       I    between atoms: N_11  and  C_12 
REMARK    5  A    between atoms: C_12  and  C_13 
REMARK    6  A    between atoms: C_13  and  N_14 
ROOT
HETATM    1  N   UNL     1     -36.891  40.256 -51.574  1.00  0.00    -0.322 N 
HETATM    2  C   UNL     1     -37.072  39.846 -52.878  1.00  0.00     0.253 C 
HETATM    3  O   UNL     1     -36.617  38.823 -53.381  1.00  0.00    -0.271 OA
HETATM    4  H   UNL     1     -37.651  40.750 -51.105  1.00  0.00     0.169 HD
ENDROOT
BRANCH   2   5
HETATM    5  C   UNL     1     -37.998  40.778 -53.692  1.00  0.00     0.275 C 
HETATM    6  C   UNL     1     -39.033  41.422 -52.783  1.00  0.00     0.050 C 
BRANCH   5   7
HETATM    7  N   UNL     1     -37.221  41.830 -54.534  1.00  0.00    -0.058 N 
HETATM    8  H   UNL     1     -37.644  42.693 -54.158  1.00  0.00     0.281 HD
HETATM    9  C   UNL     1     -35.762  41.968 -54.151  1.00  0.00     0.246 C 
HETATM   10  C   UNL     1     -34.767  41.726 -55.293  1.00  0.00     0.062 C 
HETATM   11  C   UNL     1     -35.203  42.535 -56.504  1.00  0.00     0.020 C 
HETATM   12  C   UNL     1     -34.623  40.247 -55.603  1.00  0.00     0.020 A 
HETATM   13  C   UNL     1     -36.489  41.919 -57.020  1.00  0.00     0.031 C 
HETATM   14  C   UNL     1     -36.205  40.499 -57.507  1.00  0.00     0.138 C 
HETATM   15  C   UNL     1     -37.628  41.946 -55.997  1.00  0.00     0.242 C 
HETATM   16  N   UNL     1     -35.418  39.676 -56.597  1.00  0.00    -0.317 N 
HETATM   17  C   UNL     1     -35.354  38.313 -56.921  1.00  0.00     0.247 A 
HETATM   18  O   UNL     1     -36.032  37.782 -57.795  1.00  0.00    -0.268 OA
HETATM   19  C   UNL     1     -34.409  37.491 -56.129  1.00  0.00     0.074 A 
HETATM   20  C   UNL     1     -33.651  38.065 -55.189  1.00  0.00     0.007 A 
HETATM   21  C   UNL     1     -33.755  39.476 -54.922  1.00  0.00     0.026 A 
ENDBRANCH   5   7
ENDBRANCH   2   5
BRANCH   1  22
HETATM   22  C   UNL     1     -35.929  39.748 -50.708  1.00  0.00     0.080 A 
HETATM   23  C   UNL     1     -36.283  39.041 -49.570  1.00  0.00     0.137 A 
HETATM   24  N   UNL     1     -35.117  38.712 -48.920  1.00  0.00    -0.349 N 
HETATM   25  H   UNL     1     -35.073  38.182 -48.059  1.00  0.00     0.166 HD
HETATM   26  C   UNL     1     -34.028  39.232 -49.579  1.00  0.00     0.045 A 
HETATM   27  C   UNL     1     -34.505  39.878 -50.724  1.00  0.00     0.023 A 
HETATM   28  C   UNL     1     -32.671  39.185 -49.234  1.00  0.00     0.033 A 
HETATM   29  C   UNL     1     -33.567  40.528 -51.552  1.00  0.00     0.058 A 
HETATM   30  C   UNL     1     -32.215  40.490 -51.214  1.00  0.00     0.117 A 
HETATM   31  C   UNL     1     -31.766  39.833 -50.077  1.00  0.00     0.044 A 
HETATM   32  F   UNL     1     -31.331  41.117 -52.000  1.00  0.00    -0.206 F 
BRANCH  23  33
HETATM   33  C   UNL     1     -37.605  38.656 -49.141  1.00  0.00     0.312 C 
HETATM   34  O   UNL     1     -38.051  38.887 -48.022  1.00  0.00    -0.258 OA
BRANCH  33  35
HETATM   35  O   UNL     1     -38.268  38.047 -50.159  1.00  0.00    -0.317 OA
BRANCH  35  36
HETATM   36  C   UNL     1     -39.652  37.749 -49.915  1.00  0.00     0.175 C 
HETATM   37  C   UNL     1     -40.532  38.534 -50.872  1.00  0.00     0.034 C 
ENDBRANCH  35  36
ENDBRANCH  33  35
ENDBRANCH  23  33
ENDBRANCH   1  22
TORSDOF 6
ENDMDL
MODEL 10
REMARK VINA RESULT:      -7.9      1.615      2.123
REMARK  6 active torsions:
REMARK  status: ('A' for Active; 'I' for Inactive)
REMARK    1  A    between atoms: C_2  and  O_3 
REMARK    2  A    between atoms: O_3  and  C_4 
REMARK    3  A    between atoms: C_4  and  C_5 
REMARK    4  A    between atoms: C_10  and  N_11 
REMARK       I    between atoms: N_11  and  C_12 
REMARK    5  A    between atoms: C_12  and  C_13 
REMARK    6  A    between atoms: C_13  and  N_14 
ROOT
HETATM    1  N   UNL     1     -42.055  58.066 -54.522  1.00  0.00    -0.322 N 
HETATM    2  C   UNL     1     -43.223  58.142 -55.250  1.00  0.00     0.253 C 
HETATM    3  O   UNL     1     -44.294  57.622 -54.949  1.00  0.00    -0.271 OA
HETATM    4  H   UNL     1     -41.428  58.872 -54.515  1.00  0.00     0.169 HD
ENDROOT
BRANCH   2   5
HETATM    5  C   UNL     1     -43.108  59.035 -56.507  1.00  0.00     0.275 C 
HETATM    6  C   UNL     1     -42.608  60.420 -56.129  1.00  0.00     0.050 C 
BRANCH   5   7
HETATM    7  N   UNL     1     -42.256  58.392 -57.638  1.00  0.00    -0.058 N 
HETATM    8  H   UNL     1     -41.360  58.291 -57.138  1.00  0.00     0.281 HD
HETATM    9  C   UNL     1     -42.635  56.960 -57.956  1.00  0.00     0.246 C 
HETATM   10  C   UNL     1     -43.029  56.703 -59.416  1.00  0.00     0.062 C 
HETATM   11  C   UNL     1     -41.977  57.316 -60.325  1.00  0.00     0.020 C 
HETATM   12  C   UNL     1     -44.427  57.217 -59.714  1.00  0.00     0.020 A 
HETATM   13  C   UNL     1     -42.085  58.823 -60.189  1.00  0.00     0.031 C 
HETATM   14  C   UNL     1     -43.448  59.276 -60.711  1.00  0.00     0.138 C 
HETATM   15  C   UNL     1     -41.831  59.324 -58.766  1.00  0.00     0.242 C 
HETATM   16  N   UNL     1     -44.585  58.504 -60.228  1.00  0.00    -0.317 N 
HETATM   17  C   UNL     1     -45.846  59.052 -60.507  1.00  0.00     0.247 A 
HETATM   18  O   UNL     1     -46.020  60.176 -60.967  1.00  0.00    -0.268 OA
HETATM   19  C   UNL     1     -47.019  58.199 -60.199  1.00  0.00     0.074 A 
HETATM   20  C   UNL     1     -46.838  56.965 -59.717  1.00  0.00     0.007 A 
HETATM   21  C   UNL     1     -45.512  56.458 -59.473  1.00  0.00     0.026 A 
ENDBRANCH   5   7
ENDBRANCH   2   5
BRANCH   1  22
HETATM   22  C   UNL     1     -41.812  57.154 -53.501  1.00  0.00     0.080 A 
HETATM   23  C   UNL     1     -41.932  57.513 -52.168  1.00  0.00     0.137 A 
HETATM   24  N   UNL     1     -41.596  56.410 -51.421  1.00  0.00    -0.349 N 
HETATM   25  H   UNL     1     -41.604  56.381 -50.410  1.00  0.00     0.166 HD
HETATM   26  C   UNL     1     -41.213  55.369 -52.234  1.00  0.00     0.045 A 
HETATM   27  C   UNL     1     -41.356  55.799 -53.556  1.00  0.00     0.023 A 
HETATM   28  C   UNL     1     -40.743  54.094 -51.889  1.00  0.00     0.033 A 
HETATM   29  C   UNL     1     -40.986  54.908 -54.584  1.00  0.00     0.058 A 
HETATM   30  C   UNL     1     -40.512  53.639 -54.249  1.00  0.00     0.117 A 
HETATM   31  C   UNL     1     -40.390  53.232 -52.929  1.00  0.00     0.044 A 
HETATM   32  F   UNL     1     -40.154  52.800 -55.230  1.00  0.00    -0.206 F 
BRANCH  23  33
HETATM   33  C   UNL     1     -42.374  58.774 -51.626  1.00  0.00     0.312 C 
HETATM   34  O   UNL     1     -41.757  59.826 -51.761  1.00  0.00    -0.258 OA
BRANCH  33  35
HETATM   35  O   UNL     1     -43.567  58.619 -50.993  1.00  0.00    -0.317 OA
BRANCH  35  36
HETATM   36  C   UNL     1     -44.730  58.979 -51.755  1.00  0.00     0.175 C 
HETATM   37  C   UNL     1     -45.917  59.182 -50.830  1.00  0.00     0.034 C 
ENDBRANCH  35  36
ENDBRANCH  33  35
ENDBRANCH  23  33
ENDBRANCH   1  22
TORSDOF 6
ENDMDL
