MODEL 1
REMARK VINA RESULT:      -8.6      0.000      0.000
REMARK  6 active torsions:
REMARK  status: ('A' for Active; 'I' for Inactive)
REMARK    1  A    between atoms: C_6  and  O_7 
REMARK    2  A    between atoms: O_7  and  C_8 
REMARK    3  A    between atoms: C_8  and  C_9 
REMARK       I    between atoms: C_9  and  N_10 
REMARK    4  A    between atoms: N_10  and  N_11 
REMARK       I    between atoms: N_11  and  C_12 
REMARK    5  A    between atoms: C_12  and  C_13 
REMARK    6  A    between atoms: C_17  and  C_18 
ROOT
HETATM    1  N   UNL     1     -43.842  58.429 -50.846  1.00  0.00    -0.262 N 
HETATM    2  C   UNL     1     -42.561  58.155 -51.290  1.00  0.00     0.288 C 
HETATM    3  O   UNL     1     -41.777  59.036 -51.634  1.00  0.00    -0.264 OA
HETATM    4  H   UNL     1     -44.319  57.759 -50.249  1.00  0.00     0.190 HD
ENDROOT
BRANCH   1   5
HETATM    5  N   UNL     1     -44.211  59.769 -50.674  1.00  0.00    -0.265 N 
HETATM    6  C   UNL     1     -45.345  60.057 -49.936  1.00  0.00     0.260 C 
HETATM    7  O   UNL     1     -46.143  59.199 -49.566  1.00  0.00    -0.269 OA
HETATM    8  H   UNL     1     -43.474  60.466 -50.750  1.00  0.00     0.190 HD
BRANCH   6   9
HETATM    9  C   UNL     1     -45.489  61.536 -49.591  1.00  0.00     0.280 C 
BRANCH   9  10
HETATM   10  O   UNL     1     -46.509  61.675 -48.596  1.00  0.00    -0.341 OA
BRANCH  10  11
HETATM   11  C   UNL     1     -46.063  62.412 -47.529  1.00  0.00     0.081 A 
HETATM   12  C   UNL     1     -45.695  61.740 -46.353  1.00  0.00    -0.028 A 
HETATM   13  C   UNL     1     -45.201  62.485 -45.273  1.00  0.00     0.016 A 
HETATM   14  C   UNL     1     -45.838  60.249 -46.226  1.00  0.00     0.051 C 
HETATM   15  C   UNL     1     -45.043  63.872 -45.370  1.00  0.00    -0.061 A 
HETATM   16  C   UNL     1     -44.500  64.670 -44.221  1.00  0.00     0.048 C 
HETATM   17  C   UNL     1     -45.383  64.518 -46.566  1.00  0.00     0.016 A 
HETATM   18  C   UNL     1     -45.870  63.795 -47.665  1.00  0.00    -0.028 A 
HETATM   19  C   UNL     1     -46.200  64.530 -48.933  1.00  0.00     0.051 C 
ENDBRANCH  10  11
ENDBRANCH   9  10
ENDBRANCH   6   9
ENDBRANCH   1   5
BRANCH   2  20
HETATM   20  C   UNL     1     -42.226  56.758 -51.335  1.00  0.00     0.121 A 
HETATM   21  N   UNL     1     -42.373  55.939 -50.254  1.00  0.00    -0.272 N 
HETATM   22  H   UNL     1     -42.746  56.190 -49.342  1.00  0.00     0.189 HD
HETATM   23  N   UNL     1     -41.949  54.684 -50.454  1.00  0.00    -0.174 NA
HETATM   24  C   UNL     1     -41.486  54.673 -51.715  1.00  0.00     0.089 A 
HETATM   25  C   UNL     1     -41.674  55.953 -52.312  1.00  0.00     0.071 A 
BRANCH  24  26
HETATM   26  C   UNL     1     -40.855  53.481 -52.298  1.00  0.00    -0.006 A 
HETATM   27  C   UNL     1     -41.098  53.104 -53.629  1.00  0.00     0.014 A 
HETATM   28  C   UNL     1     -40.461  51.990 -54.184  1.00  0.00     0.001 A 
HETATM   29  C   UNL     1     -39.573  51.237 -53.418  1.00  0.00     0.000 A 
HETATM   30  C   UNL     1     -39.327  51.593 -52.095  1.00  0.00     0.001 A 
HETATM   31  C   UNL     1     -39.964  52.706 -51.539  1.00  0.00     0.014 A 
ENDBRANCH  24  26
ENDBRANCH   2  20
TORSDOF 6
ENDMDL
MODEL 2
REMARK VINA RESULT:      -8.4      1.760     11.089
REMARK  6 active torsions:
REMARK  status: ('A' for Active; 'I' for Inactive)
REMARK    1  A    between atoms: C_6  and  O_7 
REMARK    2  A    between atoms: O_7  and  C_8 
REMARK    3  A    between atoms: C_8  and  C_9 
REMARK       I    between atoms: C_9  and  N_10 
REMARK    4  A    between atoms: N_10  and  N_11 
REMARK       I    between atoms: N_11  and  C_12 
REMARK    5  A    between atoms: C_12  and  C_13 
REMARK    6  A    between atoms: C_17  and  C_18 
ROOT
HETATM    1  N   UNL     1     -44.510  57.924 -50.621  1.00  0.00    -0.262 N 
HETATM    2  C   UNL     1     -45.112  58.952 -51.325  1.00  0.00     0.288 C 
HETATM    3  O   UNL     1     -45.228  58.937 -52.547  1.00  0.00    -0.264 OA
HETATM    4  H   UNL     1     -44.741  57.786 -49.641  1.00  0.00     0.190 HD
ENDROOT
BRANCH   1   5
HETATM    5  N   UNL     1     -44.127  56.776 -51.323  1.00  0.00    -0.265 N 
HETATM    6  C   UNL     1     -42.792  56.602 -51.638  1.00  0.00     0.260 C 
HETATM    7  O   UNL     1     -41.945  57.481 -51.486  1.00  0.00    -0.269 OA
HETATM    8  H   UNL     1     -44.732  55.960 -51.244  1.00  0.00     0.190 HD
BRANCH   6   9
HETATM    9  C   UNL     1     -42.462  55.204 -52.152  1.00  0.00     0.280 C 
BRANCH   9  10
HETATM   10  O   UNL     1     -41.044  55.104 -52.326  1.00  0.00    -0.341 OA
BRANCH  10  11
HETATM   11  C   UNL     1     -40.684  53.851 -52.750  1.00  0.00     0.081 A 
HETATM   12  C   UNL     1     -40.686  53.581 -54.128  1.00  0.00    -0.028 A 
HETATM   13  C   UNL     1     -40.280  52.314 -54.569  1.00  0.00     0.016 A 
HETATM   14  C   UNL     1     -41.132  54.611 -55.128  1.00  0.00     0.051 C 
HETATM   15  C   UNL     1     -39.846  51.342 -53.662  1.00  0.00    -0.061 A 
HETATM   16  C   UNL     1     -39.396  49.990 -54.134  1.00  0.00     0.048 C 
HETATM   17  C   UNL     1     -39.816  51.646 -52.295  1.00  0.00     0.016 A 
HETATM   18  C   UNL     1     -40.209  52.909 -51.826  1.00  0.00    -0.028 A 
HETATM   19  C   UNL     1     -40.140  53.194 -50.353  1.00  0.00     0.051 C 
ENDBRANCH  10  11
ENDBRANCH   9  10
ENDBRANCH   6   9
ENDBRANCH   1   5
BRANCH   2  20
HETATM   20  C   UNL     1     -45.573  60.046 -50.515  1.00  0.00     0.121 A 
HETATM   21  N   UNL     1     -46.141  61.163 -51.056  1.00  0.00    -0.272 N 
HETATM   22  H   UNL     1     -46.329  61.339 -52.039  1.00  0.00     0.189 HD
HETATM   23  N   UNL     1     -46.450  62.110 -50.159  1.00  0.00    -0.174 NA
HETATM   24  C   UNL     1     -46.056  61.609 -48.978  1.00  0.00     0.089 A 
HETATM   25  C   UNL     1     -45.529  60.297 -49.158  1.00  0.00     0.071 A 
BRANCH  24  26
HETATM   26  C   UNL     1     -46.154  62.386 -47.735  1.00  0.00    -0.006 A 
HETATM   27  C   UNL     1     -47.251  63.225 -47.483  1.00  0.00     0.014 A 
HETATM   28  C   UNL     1     -47.352  63.930 -46.279  1.00  0.00     0.001 A 
HETATM   29  C   UNL     1     -46.358  63.806 -45.311  1.00  0.00     0.000 A 
HETATM   30  C   UNL     1     -45.259  62.985 -45.548  1.00  0.00     0.001 A 
HETATM   31  C   UNL     1     -45.158  62.281 -46.751  1.00  0.00     0.014 A 
ENDBRANCH  24  26
ENDBRANCH   2  20
TORSDOF 6
ENDMDL
MODEL 3
REMARK VINA RESULT:      -8.4      7.213      9.435
REMARK  6 active torsions:
REMARK  status: ('A' for Active; 'I' for Inactive)
REMARK    1  A    between atoms: C_6  and  O_7 
REMARK    2  A    between atoms: O_7  and  C_8 
REMARK    3  A    between atoms: C_8  and  C_9 
REMARK       I    between atoms: C_9  and  N_10 
REMARK    4  A    between atoms: N_10  and  N_11 
REMARK       I    between atoms: N_11  and  C_12 
REMARK    5  A    between atoms: C_12  and  C_13 
REMARK    6  A    between atoms: C_17  and  C_18 
ROOT
HETATM    1  N   UNL     1     -43.783  56.297 -55.099  1.00  0.00    -0.262 N 
HETATM    2  C   UNL     1     -43.040  55.533 -55.982  1.00  0.00     0.288 C 
HETATM    3  O   UNL     1     -43.236  55.545 -57.194  1.00  0.00    -0.264 OA
HETATM    4  H   UNL     1     -43.389  56.545 -54.196  1.00  0.00     0.190 HD
ENDROOT
BRANCH   1   5
HETATM    5  N   UNL     1     -44.714  57.200 -55.626  1.00  0.00    -0.265 N 
HETATM    6  C   UNL     1     -44.292  58.478 -55.947  1.00  0.00     0.260 C 
HETATM    7  O   UNL     1     -43.188  58.920 -55.638  1.00  0.00    -0.269 OA
HETATM    8  H   UNL     1     -45.525  56.807 -56.100  1.00  0.00     0.190 HD
BRANCH   6   9
HETATM    9  C   UNL     1     -45.313  59.272 -56.758  1.00  0.00     0.280 C 
BRANCH   9  10
HETATM   10  O   UNL     1     -44.752  59.557 -58.043  1.00  0.00    -0.341 OA
BRANCH  10  11
HETATM   11  C   UNL     1     -44.826  58.465 -58.870  1.00  0.00     0.081 A 
HETATM   12  C   UNL     1     -43.649  57.998 -59.475  1.00  0.00    -0.028 A 
HETATM   13  C   UNL     1     -43.712  56.859 -60.289  1.00  0.00     0.016 A 
HETATM   14  C   UNL     1     -42.336  58.704 -59.282  1.00  0.00     0.051 C 
HETATM   15  C   UNL     1     -44.917  56.173 -60.472  1.00  0.00    -0.061 A 
HETATM   16  C   UNL     1     -44.984  54.944 -61.331  1.00  0.00     0.048 C 
HETATM   17  C   UNL     1     -46.073  56.636 -59.829  1.00  0.00     0.016 A 
HETATM   18  C   UNL     1     -46.036  57.768 -59.003  1.00  0.00    -0.028 A 
HETATM   19  C   UNL     1     -47.297  58.213 -58.317  1.00  0.00     0.051 C 
ENDBRANCH  10  11
ENDBRANCH   9  10
ENDBRANCH   6   9
ENDBRANCH   1   5
BRANCH   2  20
HETATM   20  C   UNL     1     -42.033  54.713 -55.367  1.00  0.00     0.121 A 
HETATM   21  N   UNL     1     -40.700  54.914 -55.580  1.00  0.00    -0.272 N 
HETATM   22  H   UNL     1     -40.274  55.646 -56.143  1.00  0.00     0.189 HD
HETATM   23  N   UNL     1     -39.907  54.015 -54.982  1.00  0.00    -0.174 NA
HETATM   24  C   UNL     1     -40.748  53.173 -54.360  1.00  0.00     0.089 A 
HETATM   25  C   UNL     1     -42.094  53.600 -54.553  1.00  0.00     0.071 A 
BRANCH  24  26
HETATM   26  C   UNL     1     -40.265  51.985 -53.641  1.00  0.00    -0.006 A 
HETATM   27  C   UNL     1     -39.918  52.045 -52.282  1.00  0.00     0.014 A 
HETATM   28  C   UNL     1     -39.496  50.899 -51.600  1.00  0.00     0.001 A 
HETATM   29  C   UNL     1     -39.416  49.678 -52.266  1.00  0.00     0.000 A 
HETATM   30  C   UNL     1     -39.749  49.603 -53.616  1.00  0.00     0.001 A 
HETATM   31  C   UNL     1     -40.170  50.748 -54.298  1.00  0.00     0.014 A 
ENDBRANCH  24  26
ENDBRANCH   2  20
TORSDOF 6
ENDMDL
MODEL 4
REMARK VINA RESULT:      -8.4      8.221     10.298
REMARK  6 active torsions:
REMARK  status: ('A' for Active; 'I' for Inactive)
REMARK    1  A    between atoms: C_6  and  O_7 
REMARK    2  A    between atoms: O_7  and  C_8 
REMARK    3  A    between atoms: C_8  and  C_9 
REMARK       I    between atoms: C_9  and  N_10 
REMARK    4  A    between atoms: N_10  and  N_11 
REMARK       I    between atoms: N_11  and  C_12 
REMARK    5  A    between atoms: C_12  and  C_13 
REMARK    6  A    between atoms: C_17  and  C_18 
ROOT
HETATM    1  N   UNL     1     -42.701  55.984 -57.210  1.00  0.00    -0.262 N 
HETATM    2  C   UNL     1     -42.858  55.782 -55.851  1.00  0.00     0.288 C 
HETATM    3  O   UNL     1     -43.743  56.330 -55.198  1.00  0.00    -0.264 OA
HETATM    4  H   UNL     1     -42.229  55.279 -57.770  1.00  0.00     0.190 HD
ENDROOT
BRANCH   1   5
HETATM    5  N   UNL     1     -43.661  56.752 -57.881  1.00  0.00    -0.265 N 
HETATM    6  C   UNL     1     -43.241  57.841 -58.623  1.00  0.00     0.260 C 
HETATM    7  O   UNL     1     -42.092  58.276 -58.588  1.00  0.00    -0.269 OA
HETATM    8  H   UNL     1     -44.538  56.293 -58.119  1.00  0.00     0.190 HD
BRANCH   6   9
HETATM    9  C   UNL     1     -44.330  58.426 -59.518  1.00  0.00     0.280 C 
BRANCH   9  10
HETATM   10  O   UNL     1     -45.603  57.994 -59.029  1.00  0.00    -0.341 OA
BRANCH  10  11
HETATM   11  C   UNL     1     -46.540  57.978 -60.030  1.00  0.00     0.081 A 
HETATM   12  C   UNL     1     -46.801  56.766 -60.689  1.00  0.00    -0.028 A 
HETATM   13  C   UNL     1     -47.785  56.736 -61.687  1.00  0.00     0.016 A 
HETATM   14  C   UNL     1     -46.036  55.515 -60.359  1.00  0.00     0.051 C 
HETATM   15  C   UNL     1     -48.524  57.882 -62.002  1.00  0.00    -0.061 A 
HETATM   16  C   UNL     1     -49.589  57.848 -63.059  1.00  0.00     0.048 C 
HETATM   17  C   UNL     1     -48.272  59.071 -61.307  1.00  0.00     0.016 A 
HETATM   18  C   UNL     1     -47.298  59.127 -60.298  1.00  0.00    -0.028 A 
HETATM   19  C   UNL     1     -47.080  60.421 -59.566  1.00  0.00     0.051 C 
ENDBRANCH  10  11
ENDBRANCH   9  10
ENDBRANCH   6   9
ENDBRANCH   1   5
BRANCH   2  20
HETATM   20  C   UNL     1     -41.894  54.894 -55.259  1.00  0.00     0.121 A 
HETATM   21  N   UNL     1     -40.550  55.085 -55.395  1.00  0.00    -0.272 N 
HETATM   22  H   UNL     1     -40.086  55.851 -55.875  1.00  0.00     0.189 HD
HETATM   23  N   UNL     1     -39.801  54.125 -54.836  1.00  0.00    -0.174 NA
HETATM   24  C   UNL     1     -40.684  53.252 -54.324  1.00  0.00     0.089 A 
HETATM   25  C   UNL     1     -42.012  53.720 -54.543  1.00  0.00     0.071 A 
BRANCH  24  26
HETATM   26  C   UNL     1     -40.254  52.001 -53.684  1.00  0.00    -0.006 A 
HETATM   27  C   UNL     1     -39.864  51.968 -52.336  1.00  0.00     0.014 A 
HETATM   28  C   UNL     1     -39.495  50.763 -51.727  1.00  0.00     0.001 A 
HETATM   29  C   UNL     1     -39.510  49.577 -52.458  1.00  0.00     0.000 A 
HETATM   30  C   UNL     1     -39.887  49.594 -53.798  1.00  0.00     0.001 A 
HETATM   31  C   UNL     1     -40.255  50.797 -54.406  1.00  0.00     0.014 A 
ENDBRANCH  24  26
ENDBRANCH   2  20
TORSDOF 6
ENDMDL
MODEL 5
REMARK VINA RESULT:      -8.4      7.722     10.403
REMARK  6 active torsions:
REMARK  status: ('A' for Active; 'I' for Inactive)
REMARK    1  A    between atoms: C_6  and  O_7 
REMARK    2  A    between atoms: O_7  and  C_8 
REMARK    3  A    between atoms: C_8  and  C_9 
REMARK       I    between atoms: C_9  and  N_10 
REMARK    4  A    between atoms: N_10  and  N_11 
REMARK       I    between atoms: N_11  and  C_12 
REMARK    5  A    between atoms: C_12  and  C_13 
REMARK    6  A    between atoms: C_17  and  C_18 
ROOT
HETATM    1  N   UNL     1     -42.065  56.912 -57.669  1.00  0.00    -0.262 N 
HETATM    2  C   UNL     1     -42.837  55.772 -57.531  1.00  0.00     0.288 C 
HETATM    3  O   UNL     1     -43.550  55.343 -58.435  1.00  0.00    -0.264 OA
HETATM    4  H   UNL     1     -41.246  57.037 -57.080  1.00  0.00     0.190 HD
ENDROOT
BRANCH   1   5
HETATM    5  N   UNL     1     -42.011  57.528 -58.925  1.00  0.00    -0.265 N 
HETATM    6  C   UNL     1     -42.694  58.716 -59.113  1.00  0.00     0.260 C 
HETATM    7  O   UNL     1     -43.485  59.175 -58.292  1.00  0.00    -0.269 OA
HETATM    8  H   UNL     1     -41.206  57.316 -59.511  1.00  0.00     0.190 HD
BRANCH   6   9
HETATM    9  C   UNL     1     -42.340  59.423 -60.419  1.00  0.00     0.280 C 
BRANCH   9  10
HETATM   10  O   UNL     1     -42.643  60.815 -60.279  1.00  0.00    -0.341 OA
BRANCH  10  11
HETATM   11  C   UNL     1     -41.572  61.594 -60.639  1.00  0.00     0.081 A 
HETATM   12  C   UNL     1     -41.421  61.948 -61.989  1.00  0.00    -0.028 A 
HETATM   13  C   UNL     1     -40.350  62.776 -62.355  1.00  0.00     0.016 A 
HETATM   14  C   UNL     1     -42.366  61.443 -63.042  1.00  0.00     0.051 C 
HETATM   15  C   UNL     1     -39.465  63.273 -61.393  1.00  0.00    -0.061 A 
HETATM   16  C   UNL     1     -38.328  64.172 -61.781  1.00  0.00     0.048 C 
HETATM   17  C   UNL     1     -39.657  62.937 -60.047  1.00  0.00     0.016 A 
HETATM   18  C   UNL     1     -40.724  62.117 -59.651  1.00  0.00    -0.028 A 
HETATM   19  C   UNL     1     -40.901  61.802 -58.193  1.00  0.00     0.051 C 
ENDBRANCH  10  11
ENDBRANCH   9  10
ENDBRANCH   6   9
ENDBRANCH   1   5
BRANCH   2  20
HETATM   20  C   UNL     1     -42.752  55.140 -56.243  1.00  0.00     0.121 A 
HETATM   21  N   UNL     1     -43.794  55.141 -55.362  1.00  0.00    -0.272 N 
HETATM   22  H   UNL     1     -44.718  55.538 -55.508  1.00  0.00     0.189 HD
HETATM   23  N   UNL     1     -43.516  54.566 -54.184  1.00  0.00    -0.174 NA
HETATM   24  C   UNL     1     -42.233  54.181 -54.282  1.00  0.00     0.089 A 
HETATM   25  C   UNL     1     -41.729  54.497 -55.576  1.00  0.00     0.071 A 
BRANCH  24  26
HETATM   26  C   UNL     1     -41.520  53.568 -53.152  1.00  0.00    -0.006 A 
HETATM   27  C   UNL     1     -40.525  52.599 -53.357  1.00  0.00     0.014 A 
HETATM   28  C   UNL     1     -39.827  52.051 -52.276  1.00  0.00     0.001 A 
HETATM   29  C   UNL     1     -40.113  52.464 -50.976  1.00  0.00     0.000 A 
HETATM   30  C   UNL     1     -41.103  53.418 -50.755  1.00  0.00     0.001 A 
HETATM   31  C   UNL     1     -41.801  53.965 -51.835  1.00  0.00     0.014 A 
ENDBRANCH  24  26
ENDBRANCH   2  20
TORSDOF 6
ENDMDL
MODEL 6
REMARK VINA RESULT:      -8.3      7.857     10.487
REMARK  6 active torsions:
REMARK  status: ('A' for Active; 'I' for Inactive)
REMARK    1  A    between atoms: C_6  and  O_7 
REMARK    2  A    between atoms: O_7  and  C_8 
REMARK    3  A    between atoms: C_8  and  C_9 
REMARK       I    between atoms: C_9  and  N_10 
REMARK    4  A    between atoms: N_10  and  N_11 
REMARK       I    between atoms: N_11  and  C_12 
REMARK    5  A    between atoms: C_12  and  C_13 
REMARK    6  A    between atoms: C_17  and  C_18 
ROOT
HETATM    1  N   UNL     1     -42.367  56.162 -57.093  1.00  0.00    -0.262 N 
HETATM    2  C   UNL     1     -42.067  56.591 -55.813  1.00  0.00     0.288 C 
HETATM    3  O   UNL     1     -42.186  57.762 -55.463  1.00  0.00    -0.264 OA
HETATM    4  H   UNL     1     -42.606  55.187 -57.252  1.00  0.00     0.190 HD
ENDROOT
BRANCH   1   5
HETATM    5  N   UNL     1     -42.937  57.080 -57.983  1.00  0.00    -0.265 N 
HETATM    6  C   UNL     1     -42.978  56.765 -59.329  1.00  0.00     0.260 C 
HETATM    7  O   UNL     1     -42.388  55.801 -59.812  1.00  0.00    -0.269 OA
HETATM    8  H   UNL     1     -43.619  57.733 -57.602  1.00  0.00     0.190 HD
BRANCH   6   9
HETATM    9  C   UNL     1     -43.856  57.705 -60.150  1.00  0.00     0.280 C 
BRANCH   9  10
HETATM   10  O   UNL     1     -45.060  57.959 -59.418  1.00  0.00    -0.341 OA
BRANCH  10  11
HETATM   11  C   UNL     1     -46.155  57.945 -60.244  1.00  0.00     0.081 A 
HETATM   12  C   UNL     1     -46.650  59.167 -60.725  1.00  0.00    -0.028 A 
HETATM   13  C   UNL     1     -47.745  59.156 -61.601  1.00  0.00     0.016 A 
HETATM   14  C   UNL     1     -46.046  60.477 -60.305  1.00  0.00     0.051 C 
HETATM   15  C   UNL     1     -48.316  57.949 -62.021  1.00  0.00    -0.061 A 
HETATM   16  C   UNL     1     -49.478  57.935 -62.971  1.00  0.00     0.048 C 
HETATM   17  C   UNL     1     -47.782  56.741 -61.557  1.00  0.00     0.016 A 
HETATM   18  C   UNL     1     -46.682  56.723 -60.687  1.00  0.00    -0.028 A 
HETATM   19  C   UNL     1     -46.131  55.400 -60.234  1.00  0.00     0.051 C 
ENDBRANCH  10  11
ENDBRANCH   9  10
ENDBRANCH   6   9
ENDBRANCH   1   5
BRANCH   2  20
HETATM   20  C   UNL     1     -41.588  55.562 -54.930  1.00  0.00     0.121 A 
HETATM   21  N   UNL     1     -41.082  55.841 -53.694  1.00  0.00    -0.272 N 
HETATM   22  H   UNL     1     -41.012  56.754 -53.254  1.00  0.00     0.189 HD
HETATM   23  N   UNL     1     -40.620  54.769 -53.036  1.00  0.00    -0.174 NA
HETATM   24  C   UNL     1     -40.813  53.739 -53.876  1.00  0.00     0.089 A 
HETATM   25  C   UNL     1     -41.450  54.195 -55.066  1.00  0.00     0.071 A 
BRANCH  24  26
HETATM   26  C   UNL     1     -40.363  52.379 -53.549  1.00  0.00    -0.006 A 
HETATM   27  C   UNL     1     -39.868  52.059 -52.275  1.00  0.00     0.014 A 
HETATM   28  C   UNL     1     -39.479  50.752 -51.965  1.00  0.00     0.001 A 
HETATM   29  C   UNL     1     -39.580  49.746 -52.924  1.00  0.00     0.000 A 
HETATM   30  C   UNL     1     -40.062  50.047 -54.196  1.00  0.00     0.001 A 
HETATM   31  C   UNL     1     -40.449  51.354 -54.505  1.00  0.00     0.014 A 
ENDBRANCH  24  26
ENDBRANCH   2  20
TORSDOF 6
ENDMDL
MODEL 7
REMARK VINA RESULT:      -8.3      1.773     10.581
REMARK  6 active torsions:
REMARK  status: ('A' for Active; 'I' for Inactive)
REMARK    1  A    between atoms: C_6  and  O_7 
REMARK    2  A    between atoms: O_7  and  C_8 
REMARK    3  A    between atoms: C_8  and  C_9 
REMARK       I    between atoms: C_9  and  N_10 
REMARK    4  A    between atoms: N_10  and  N_11 
REMARK       I    between atoms: N_11  and  C_12 
REMARK    5  A    between atoms: C_12  and  C_13 
REMARK    6  A    between atoms: C_17  and  C_18 
ROOT
HETATM    1  N   UNL     1     -44.025  59.890 -50.228  1.00  0.00    -0.262 N 
HETATM    2  C   UNL     1     -45.328  60.236 -49.917  1.00  0.00     0.288 C 
HETATM    3  O   UNL     1     -46.284  59.912 -50.617  1.00  0.00    -0.264 OA
HETATM    4  H   UNL     1     -43.328  59.846 -49.490  1.00  0.00     0.190 HD
ENDROOT
BRANCH   1   5
HETATM    5  N   UNL     1     -43.809  59.041 -51.320  1.00  0.00    -0.265 N 
HETATM    6  C   UNL     1     -42.611  58.354 -51.402  1.00  0.00     0.260 C 
HETATM    7  O   UNL     1     -41.656  58.575 -50.660  1.00  0.00    -0.269 OA
HETATM    8  H   UNL     1     -44.632  58.667 -51.788  1.00  0.00     0.190 HD
BRANCH   6   9
HETATM    9  C   UNL     1     -42.603  57.266 -52.473  1.00  0.00     0.280 C 
BRANCH   9  10
HETATM   10  O   UNL     1     -42.943  56.019 -51.859  1.00  0.00    -0.341 OA
BRANCH  10  11
HETATM   11  C   UNL     1     -42.161  55.000 -52.339  1.00  0.00     0.081 A 
HETATM   12  C   UNL     1     -41.096  54.539 -51.550  1.00  0.00    -0.028 A 
HETATM   13  C   UNL     1     -40.317  53.471 -52.019  1.00  0.00     0.016 A 
HETATM   14  C   UNL     1     -40.765  55.177 -50.230  1.00  0.00     0.051 C 
HETATM   15  C   UNL     1     -40.613  52.849 -53.237  1.00  0.00    -0.061 A 
HETATM   16  C   UNL     1     -39.791  51.695 -53.734  1.00  0.00     0.048 C 
HETATM   17  C   UNL     1     -41.703  53.301 -53.991  1.00  0.00     0.016 A 
HETATM   18  C   UNL     1     -42.503  54.362 -53.541  1.00  0.00    -0.028 A 
HETATM   19  C   UNL     1     -43.674  54.798 -54.375  1.00  0.00     0.051 C 
ENDBRANCH  10  11
ENDBRANCH   9  10
ENDBRANCH   6   9
ENDBRANCH   1   5
BRANCH   2  20
HETATM   20  C   UNL     1     -45.472  61.019 -48.719  1.00  0.00     0.121 A 
HETATM   21  N   UNL     1     -46.387  62.025 -48.614  1.00  0.00    -0.272 N 
HETATM   22  H   UNL     1     -47.065  62.312 -49.315  1.00  0.00     0.189 HD
HETATM   23  N   UNL     1     -46.337  62.693 -47.453  1.00  0.00    -0.174 NA
HETATM   24  C   UNL     1     -45.337  62.117 -46.767  1.00  0.00     0.089 A 
HETATM   25  C   UNL     1     -44.790  61.038 -47.520  1.00  0.00     0.071 A 
BRANCH  24  26
HETATM   26  C   UNL     1     -44.909  62.619 -45.454  1.00  0.00    -0.006 A 
HETATM   27  C   UNL     1     -45.161  63.943 -45.060  1.00  0.00     0.014 A 
HETATM   28  C   UNL     1     -44.783  64.397 -43.792  1.00  0.00     0.001 A 
HETATM   29  C   UNL     1     -44.148  63.535 -42.901  1.00  0.00     0.000 A 
HETATM   30  C   UNL     1     -43.883  62.221 -43.278  1.00  0.00     0.001 A 
HETATM   31  C   UNL     1     -44.260  61.767 -44.545  1.00  0.00     0.014 A 
ENDBRANCH  24  26
ENDBRANCH   2  20
TORSDOF 6
ENDMDL
MODEL 8
REMARK VINA RESULT:      -8.3      1.825     11.017
REMARK  6 active torsions:
REMARK  status: ('A' for Active; 'I' for Inactive)
REMARK    1  A    between atoms: C_6  and  O_7 
REMARK    2  A    between atoms: O_7  and  C_8 
REMARK    3  A    between atoms: C_8  and  C_9 
REMARK       I    between atoms: C_9  and  N_10 
REMARK    4  A    between atoms: N_10  and  N_11 
REMARK       I    between atoms: N_11  and  C_12 
REMARK    5  A    between atoms: C_12  and  C_13 
REMARK    6  A    between atoms: C_17  and  C_18 
ROOT
HETATM    1  N   UNL     1     -44.223  58.235 -50.918  1.00  0.00    -0.262 N 
HETATM    2  C   UNL     1     -44.864  59.277 -51.563  1.00  0.00     0.288 C 
HETATM    3  O   UNL     1     -44.960  59.338 -52.786  1.00  0.00    -0.264 OA
HETATM    4  H   UNL     1     -44.462  58.020 -49.954  1.00  0.00     0.190 HD
ENDROOT
BRANCH   1   5
HETATM    5  N   UNL     1     -43.770  57.157 -51.688  1.00  0.00    -0.265 N 
HETATM    6  C   UNL     1     -42.546  56.590 -51.386  1.00  0.00     0.260 C 
HETATM    7  O   UNL     1     -41.753  57.087 -50.589  1.00  0.00    -0.269 OA
HETATM    8  H   UNL     1     -44.477  56.597 -52.162  1.00  0.00     0.190 HD
BRANCH   6   9
HETATM    9  C   UNL     1     -42.290  55.269 -52.105  1.00  0.00     0.280 C 
BRANCH   9  10
HETATM   10  O   UNL     1     -40.915  55.222 -52.498  1.00  0.00    -0.341 OA
BRANCH  10  11
HETATM   11  C   UNL     1     -40.544  53.951 -52.856  1.00  0.00     0.081 A 
HETATM   12  C   UNL     1     -40.114  53.069 -51.853  1.00  0.00    -0.028 A 
HETATM   13  C   UNL     1     -39.771  51.756 -52.207  1.00  0.00     0.016 A 
HETATM   14  C   UNL     1     -39.996  53.508 -50.420  1.00  0.00     0.051 C 
HETATM   15  C   UNL     1     -39.887  51.316 -53.530  1.00  0.00    -0.061 A 
HETATM   16  C   UNL     1     -39.536  49.907 -53.909  1.00  0.00     0.048 C 
HETATM   17  C   UNL     1     -40.353  52.204 -54.509  1.00  0.00     0.016 A 
HETATM   18  C   UNL     1     -40.711  53.519 -54.180  1.00  0.00    -0.028 A 
HETATM   19  C   UNL     1     -41.226  54.427 -55.261  1.00  0.00     0.051 C 
ENDBRANCH  10  11
ENDBRANCH   9  10
ENDBRANCH   6   9
ENDBRANCH   1   5
BRANCH   2  20
HETATM   20  C   UNL     1     -45.394  60.290 -50.691  1.00  0.00     0.121 A 
HETATM   21  N   UNL     1     -46.221  61.277 -51.141  1.00  0.00    -0.272 N 
HETATM   22  H   UNL     1     -46.573  61.397 -52.086  1.00  0.00     0.189 HD
HETATM   23  N   UNL     1     -46.563  62.174 -50.205  1.00  0.00    -0.174 NA
HETATM   24  C   UNL     1     -45.924  61.774 -49.094  1.00  0.00     0.089 A 
HETATM   25  C   UNL     1     -45.204  60.573 -49.354  1.00  0.00     0.071 A 
BRANCH  24  26
HETATM   26  C   UNL     1     -45.983  62.548 -47.846  1.00  0.00    -0.006 A 
HETATM   27  C   UNL     1     -44.987  63.482 -47.519  1.00  0.00     0.014 A 
HETATM   28  C   UNL     1     -45.074  64.241 -46.347  1.00  0.00     0.001 A 
HETATM   29  C   UNL     1     -46.157  64.076 -45.486  1.00  0.00     0.000 A 
HETATM   30  C   UNL     1     -47.150  63.149 -45.792  1.00  0.00     0.001 A 
HETATM   31  C   UNL     1     -47.062  62.390 -46.963  1.00  0.00     0.014 A 
ENDBRANCH  24  26
ENDBRANCH   2  20
TORSDOF 6
ENDMDL
MODEL 9
REMARK VINA RESULT:      -7.9      7.876     10.106
REMARK  6 active torsions:
REMARK  status: ('A' for Active; 'I' for Inactive)
REMARK    1  A    between atoms: C_6  and  O_7 
REMARK    2  A    between atoms: O_7  and  C_8 
REMARK    3  A    between atoms: C_8  and  C_9 
REMARK       I    between atoms: C_9  and  N_10 
REMARK    4  A    between atoms: N_10  and  N_11 
REMARK       I    between atoms: N_11  and  C_12 
REMARK    5  A    between atoms: C_12  and  C_13 
REMARK    6  A    between atoms: C_17  and  C_18 
ROOT
HETATM    1  N   UNL     1     -42.079  57.154 -57.663  1.00  0.00    -0.262 N 
HETATM    2  C   UNL     1     -42.901  57.051 -56.555  1.00  0.00     0.288 C 
HETATM    3  O   UNL     1     -43.751  57.894 -56.281  1.00  0.00    -0.264 OA
HETATM    4  H   UNL     1     -41.663  56.315 -58.058  1.00  0.00     0.190 HD
ENDROOT
BRANCH   1   5
HETATM    5  N   UNL     1     -42.309  58.201 -58.563  1.00  0.00    -0.265 N 
HETATM    6  C   UNL     1     -42.153  57.962 -59.916  1.00  0.00     0.260 C 
HETATM    7  O   UNL     1     -41.658  56.930 -60.364  1.00  0.00    -0.269 OA
HETATM    8  H   UNL     1     -42.928  58.949 -58.256  1.00  0.00     0.190 HD
BRANCH   6   9
HETATM    9  C   UNL     1     -42.691  59.083 -60.801  1.00  0.00     0.280 C 
BRANCH   9  10
HETATM   10  O   UNL     1     -42.840  60.262 -60.002  1.00  0.00    -0.341 OA
BRANCH  10  11
HETATM   11  C   UNL     1     -41.881  61.193 -60.310  1.00  0.00     0.081 A 
HETATM   12  C   UNL     1     -41.038  61.654 -59.287  1.00  0.00    -0.028 A 
HETATM   13  C   UNL     1     -40.030  62.576 -59.604  1.00  0.00     0.016 A 
HETATM   14  C   UNL     1     -41.206  61.194 -57.866  1.00  0.00     0.051 C 
HETATM   15  C   UNL     1     -39.841  63.008 -60.921  1.00  0.00    -0.061 A 
HETATM   16  C   UNL     1     -38.753  63.983 -61.265  1.00  0.00     0.048 C 
HETATM   17  C   UNL     1     -40.671  62.507 -61.932  1.00  0.00     0.016 A 
HETATM   18  C   UNL     1     -41.681  61.577 -61.644  1.00  0.00    -0.028 A 
HETATM   19  C   UNL     1     -42.531  61.053 -62.766  1.00  0.00     0.051 C 
ENDBRANCH  10  11
ENDBRANCH   9  10
ENDBRANCH   6   9
ENDBRANCH   1   5
BRANCH   2  20
HETATM   20  C   UNL     1     -42.671  55.888 -55.741  1.00  0.00     0.121 A 
HETATM   21  N   UNL     1     -43.683  55.238 -55.098  1.00  0.00    -0.272 N 
HETATM   22  H   UNL     1     -44.674  55.459 -55.136  1.00  0.00     0.189 HD
HETATM   23  N   UNL     1     -43.279  54.217 -54.330  1.00  0.00    -0.174 NA
HETATM   24  C   UNL     1     -41.942  54.200 -54.455  1.00  0.00     0.089 A 
HETATM   25  C   UNL     1     -41.526  55.218 -55.361  1.00  0.00     0.071 A 
BRANCH  24  26
HETATM   26  C   UNL     1     -41.105  53.259 -53.697  1.00  0.00    -0.006 A 
HETATM   27  C   UNL     1     -40.527  52.137 -54.311  1.00  0.00     0.014 A 
HETATM   28  C   UNL     1     -39.701  51.271 -53.588  1.00  0.00     0.001 A 
HETATM   29  C   UNL     1     -39.440  51.515 -52.241  1.00  0.00     0.000 A 
HETATM   30  C   UNL     1     -40.011  52.619 -51.614  1.00  0.00     0.001 A 
HETATM   31  C   UNL     1     -40.837  53.484 -52.337  1.00  0.00     0.014 A 
ENDBRANCH  24  26
ENDBRANCH   2  20
TORSDOF 6
ENDMDL
MODEL 10
REMARK VINA RESULT:      -7.9      6.820     10.883
REMARK  6 active torsions:
REMARK  status: ('A' for Active; 'I' for Inactive)
REMARK    1  A    between atoms: C_6  and  O_7 
REMARK    2  A    between atoms: O_7  and  C_8 
REMARK    3  A    between atoms: C_8  and  C_9 
REMARK       I    between atoms: C_9  and  N_10 
REMARK    4  A    between atoms: N_10  and  N_11 
REMARK       I    between atoms: N_11  and  C_12 
REMARK    5  A    between atoms: C_12  and  C_13 
REMARK    6  A    between atoms: C_17  and  C_18 
ROOT
HETATM    1  N   UNL     1     -42.169  57.740 -55.557  1.00  0.00    -0.262 N 
HETATM    2  C   UNL     1     -43.250  58.424 -56.084  1.00  0.00     0.288 C 
HETATM    3  O   UNL     1     -44.393  58.287 -55.654  1.00  0.00    -0.264 OA
HETATM    4  H   UNL     1     -41.233  58.120 -55.669  1.00  0.00     0.190 HD
ENDROOT
BRANCH   1   5
HETATM    5  N   UNL     1     -42.375  56.953 -54.417  1.00  0.00    -0.265 N 
HETATM    6  C   UNL     1     -42.581  55.595 -54.574  1.00  0.00     0.260 C 
HETATM    7  O   UNL     1     -42.766  55.064 -55.667  1.00  0.00    -0.269 OA
HETATM    8  H   UNL     1     -41.998  57.303 -53.538  1.00  0.00     0.190 HD
BRANCH   6   9
HETATM    9  C   UNL     1     -42.518  54.812 -53.265  1.00  0.00     0.280 C 
BRANCH   9  10
HETATM   10  O   UNL     1     -41.178  54.865 -52.767  1.00  0.00    -0.341 OA
BRANCH  10  11
HETATM   11  C   UNL     1     -40.772  53.639 -52.305  1.00  0.00     0.081 A 
HETATM   12  C   UNL     1     -40.207  52.730 -53.213  1.00  0.00    -0.028 A 
HETATM   13  C   UNL     1     -39.755  51.491 -52.739  1.00  0.00     0.016 A 
HETATM   14  C   UNL     1     -40.097  53.052 -54.677  1.00  0.00     0.051 C 
HETATM   15  C   UNL     1     -39.830  51.172 -51.379  1.00  0.00    -0.061 A 
HETATM   16  C   UNL     1     -39.333  49.852 -50.866  1.00  0.00     0.048 C 
HETATM   17  C   UNL     1     -40.365  52.108 -50.484  1.00  0.00     0.016 A 
HETATM   18  C   UNL     1     -40.817  53.359 -50.931  1.00  0.00    -0.028 A 
HETATM   19  C   UNL     1     -41.362  54.338 -49.930  1.00  0.00     0.051 C 
ENDBRANCH  10  11
ENDBRANCH   9  10
ENDBRANCH   6   9
ENDBRANCH   1   5
BRANCH   2  20
HETATM   20  C   UNL     1     -42.934  59.292 -57.184  1.00  0.00     0.121 A 
HETATM   21  N   UNL     1     -43.672  59.311 -58.332  1.00  0.00    -0.272 N 
HETATM   22  H   UNL     1     -44.508  58.769 -58.530  1.00  0.00     0.189 HD
HETATM   23  N   UNL     1     -43.194  60.132 -59.278  1.00  0.00    -0.174 NA
HETATM   24  C   UNL     1     -42.085  60.666 -58.743  1.00  0.00     0.089 A 
HETATM   25  C   UNL     1     -41.907  60.186 -57.413  1.00  0.00     0.071 A 
BRANCH  24  26
HETATM   26  C   UNL     1     -41.217  61.574 -59.505  1.00  0.00    -0.006 A 
HETATM   27  C   UNL     1     -41.391  61.764 -60.885  1.00  0.00     0.014 A 
HETATM   28  C   UNL     1     -40.584  62.661 -61.592  1.00  0.00     0.001 A 
HETATM   29  C   UNL     1     -39.591  63.380 -60.930  1.00  0.00     0.000 A 
HETATM   30  C   UNL     1     -39.399  63.198 -59.563  1.00  0.00     0.001 A 
HETATM   31  C   UNL     1     -40.206  62.301 -58.857  1.00  0.00     0.014 A 
ENDBRANCH  24  26
ENDBRANCH   2  20
TORSDOF 6
ENDMDL
