MODEL 1
REMARK VINA RESULT:      -9.1      0.000      0.000
REMARK  8 active torsions:
REMARK  status: ('A' for Active; 'I' for Inactive)
REMARK    1  A    between atoms: C_6  and  N_7 
REMARK    2  A    between atoms: C_6  and  C_26 
REMARK       I    between atoms: N_7  and  C_8 
REMARK    3  A    between atoms: N_7  and  C_23 
REMARK    4  A    between atoms: C_8  and  C_9 
REMARK    5  A    between atoms: C_9  and  N_10 
REMARK    6  A    between atoms: C_14  and  C_15 
REMARK       I    between atoms: C_26  and  N_27 
REMARK    7  A    between atoms: N_27  and  C_28 
REMARK    8  A    between atoms: C_31  and  N_32 
ROOT
HETATM    1  C   UNL     1     -46.118  62.491 -51.237  1.00  0.00     0.269 C 
HETATM    2  N   UNL     1     -45.315  61.250 -50.929  1.00  0.00    -0.075 N 
HETATM    3  H   UNL     1     -45.424  61.079 -49.920  1.00  0.00     0.279 HD
HETATM    4  C   UNL     1     -45.871  60.063 -51.663  1.00  0.00     0.237 C 
HETATM    5  C   UNL     1     -45.052  58.813 -51.367  1.00  0.00     0.069 C 
HETATM    6  C   UNL     1     -43.516  58.941 -51.593  1.00  0.00     0.120 C 
HETATM    7  C   UNL     1     -43.058  60.230 -50.851  1.00  0.00     0.069 C 
HETATM    8  C   UNL     1     -43.860  61.472 -51.219  1.00  0.00     0.237 C 
ENDROOT
BRANCH   6   9
HETATM    9  N   UNL     1     -42.801  57.698 -51.097  1.00  0.00    -0.328 N 
HETATM   10  C   UNL     1     -43.408  56.450 -51.336  1.00  0.00     0.239 C 
HETATM   11  O   UNL     1     -44.259  56.328 -52.221  1.00  0.00    -0.271 OA
BRANCH  10  12
HETATM   12  C   UNL     1     -43.009  55.247 -50.458  1.00  0.00     0.228 C 
BRANCH  12  13
HETATM   13  N   UNL     1     -41.752  54.614 -50.849  1.00  0.00    -0.347 N 
HETATM   14  C   UNL     1     -40.759  54.163 -49.972  1.00  0.00     0.171 C 
HETATM   15  S   UNL     1     -40.581  54.439 -48.352  1.00  0.00    -0.041 SA
HETATM   16  N   UNL     1     -39.871  53.384 -50.692  1.00  0.00    -0.357 N 
HETATM   17  C   UNL     1     -40.190  53.372 -52.098  1.00  0.00     0.135 C 
HETATM   18  H   UNL     1     -39.016  53.017 -50.292  1.00  0.00     0.162 HD
HETATM   19  C   UNL     1     -41.632  53.897 -52.117  1.00  0.00     0.155 C 
BRANCH  17  20
HETATM   20  C   UNL     1     -39.996  52.026 -52.745  1.00  0.00    -0.034 A 
HETATM   21  C   UNL     1     -39.623  50.895 -52.003  1.00  0.00     0.009 A 
HETATM   22  C   UNL     1     -39.440  49.661 -52.628  1.00  0.00     0.001 A 
HETATM   23  C   UNL     1     -39.639  49.538 -54.001  1.00  0.00     0.000 A 
HETATM   24  C   UNL     1     -40.025  50.648 -54.750  1.00  0.00     0.001 A 
HETATM   25  C   UNL     1     -40.206  51.883 -54.125  1.00  0.00     0.009 A 
ENDBRANCH  17  20
ENDBRANCH  12  13
ENDBRANCH  10  12
BRANCH   9  26
HETATM   26  C   UNL     1     -41.609  57.815 -50.274  1.00  0.00     0.088 A 
HETATM   27  C   UNL     1     -40.236  57.772 -50.911  1.00  0.00     0.027 A 
HETATM   28  C   UNL     1     -40.700  59.025 -50.256  1.00  0.00     0.027 A 
ENDBRANCH   9  26
ENDBRANCH   6   9
BRANCH   6  29
HETATM   29  C   UNL     1     -43.187  59.186 -53.101  1.00  0.00     0.251 C 
HETATM   30  N   UNL     1     -44.144  58.691 -53.964  1.00  0.00    -0.325 N 
HETATM   31  H   UNL     1     -45.089  58.644 -53.596  1.00  0.00     0.169 HD
HETATM   32  O   UNL     1     -42.054  59.537 -53.430  1.00  0.00    -0.270 OA
BRANCH  30  33
HETATM   33  C   UNL     1     -43.960  58.250 -55.290  1.00  0.00     0.034 A 
HETATM   34  C   UNL     1     -43.165  57.167 -55.645  1.00  0.00     0.032 A 
HETATM   35  C   UNL     1     -43.116  56.727 -56.978  1.00  0.00     0.031 A 
HETATM   36  C   UNL     1     -43.859  57.334 -58.000  1.00  0.00     0.030 A 
HETATM   37  C   UNL     1     -44.619  58.449 -57.626  1.00  0.00     0.031 A 
HETATM   38  C   UNL     1     -44.676  58.900 -56.296  1.00  0.00     0.032 A 
BRANCH  36  39
HETATM   39  N   UNL     1     -43.773  56.859 -59.305  1.00  0.00    -0.377 N 
HETATM   40  C   UNL     1     -43.251  55.486 -59.517  1.00  0.00     0.149 C 
HETATM   41  C   UNL     1     -44.414  54.479 -59.577  1.00  0.00     0.187 C 
HETATM   42  O   UNL     1     -45.363  54.827 -60.599  1.00  0.00    -0.388 OA
HETATM   43  C   UNL     1     -45.898  56.142 -60.370  1.00  0.00     0.187 C 
HETATM   44  C   UNL     1     -44.786  57.203 -60.326  1.00  0.00     0.149 C 
ENDBRANCH  36  39
ENDBRANCH  30  33
ENDBRANCH   6  29
TORSDOF 8
ENDMDL
MODEL 2
REMARK VINA RESULT:      -8.2      3.925      5.972
REMARK  8 active torsions:
REMARK  status: ('A' for Active; 'I' for Inactive)
REMARK    1  A    between atoms: C_6  and  N_7 
REMARK    2  A    between atoms: C_6  and  C_26 
REMARK       I    between atoms: N_7  and  C_8 
REMARK    3  A    between atoms: N_7  and  C_23 
REMARK    4  A    between atoms: C_8  and  C_9 
REMARK    5  A    between atoms: C_9  and  N_10 
REMARK    6  A    between atoms: C_14  and  C_15 
REMARK       I    between atoms: C_26  and  N_27 
REMARK    7  A    between atoms: N_27  and  C_28 
REMARK    8  A    between atoms: C_31  and  N_32 
ROOT
HETATM    1  C   UNL     1     -45.105  55.766 -60.982  1.00  0.00     0.269 C 
HETATM    2  N   UNL     1     -44.931  55.955 -59.494  1.00  0.00    -0.075 N 
HETATM    3  H   UNL     1     -45.664  55.390 -59.044  1.00  0.00     0.279 HD
HETATM    4  C   UNL     1     -43.597  55.429 -59.045  1.00  0.00     0.237 C 
HETATM    5  C   UNL     1     -43.413  55.633 -57.546  1.00  0.00     0.069 C 
HETATM    6  C   UNL     1     -43.645  57.084 -57.028  1.00  0.00     0.120 C 
HETATM    7  C   UNL     1     -45.014  57.553 -57.603  1.00  0.00     0.069 C 
HETATM    8  C   UNL     1     -45.138  57.391 -59.112  1.00  0.00     0.237 C 
ENDROOT
BRANCH   6   9
HETATM    9  N   UNL     1     -43.608  57.119 -55.512  1.00  0.00    -0.328 N 
HETATM   10  C   UNL     1     -42.567  56.425 -54.864  1.00  0.00     0.239 C 
HETATM   11  O   UNL     1     -41.535  56.135 -55.473  1.00  0.00    -0.271 OA
BRANCH  10  12
HETATM   12  C   UNL     1     -42.750  56.017 -53.388  1.00  0.00     0.228 C 
BRANCH  12  13
HETATM   13  N   UNL     1     -41.640  55.242 -52.841  1.00  0.00    -0.347 N 
HETATM   14  C   UNL     1     -41.281  55.172 -51.490  1.00  0.00     0.171 C 
HETATM   15  S   UNL     1     -41.788  56.097 -50.217  1.00  0.00    -0.041 SA
HETATM   16  N   UNL     1     -40.376  54.137 -51.339  1.00  0.00    -0.357 N 
HETATM   17  C   UNL     1     -40.025  53.545 -52.606  1.00  0.00     0.135 C 
HETATM   18  H   UNL     1     -39.903  53.947 -50.463  1.00  0.00     0.162 HD
HETATM   19  C   UNL     1     -41.137  54.055 -53.532  1.00  0.00     0.155 C 
BRANCH  17  20
HETATM   20  C   UNL     1     -39.884  52.047 -52.548  1.00  0.00    -0.034 A 
HETATM   21  C   UNL     1     -39.924  51.255 -53.706  1.00  0.00     0.009 A 
HETATM   22  C   UNL     1     -39.800  49.867 -53.624  1.00  0.00     0.001 A 
HETATM   23  C   UNL     1     -39.624  49.253 -52.386  1.00  0.00     0.000 A 
HETATM   24  C   UNL     1     -39.567  50.028 -51.229  1.00  0.00     0.001 A 
HETATM   25  C   UNL     1     -39.693  51.416 -51.309  1.00  0.00     0.009 A 
ENDBRANCH  17  20
ENDBRANCH  12  13
ENDBRANCH  10  12
BRANCH   9  26
HETATM   26  C   UNL     1     -44.697  57.722 -54.763  1.00  0.00     0.088 A 
HETATM   27  C   UNL     1     -44.406  58.750 -53.689  1.00  0.00     0.027 A 
HETATM   28  C   UNL     1     -45.143  59.160 -54.915  1.00  0.00     0.027 A 
ENDBRANCH   9  26
ENDBRANCH   6   9
BRANCH   6  29
HETATM   29  C   UNL     1     -42.584  58.069 -57.616  1.00  0.00     0.251 C 
HETATM   30  N   UNL     1     -42.903  59.400 -57.434  1.00  0.00    -0.325 N 
HETATM   31  H   UNL     1     -43.475  59.610 -56.621  1.00  0.00     0.169 HD
HETATM   32  O   UNL     1     -41.723  57.650 -58.388  1.00  0.00    -0.270 OA
BRANCH  30  33
HETATM   33  C   UNL     1     -42.524  60.493 -58.238  1.00  0.00     0.034 A 
HETATM   34  C   UNL     1     -41.339  61.201 -58.078  1.00  0.00     0.032 A 
HETATM   35  C   UNL     1     -40.986  62.212 -58.986  1.00  0.00     0.031 A 
HETATM   36  C   UNL     1     -41.784  62.548 -60.088  1.00  0.00     0.030 A 
HETATM   37  C   UNL     1     -42.993  61.851 -60.205  1.00  0.00     0.031 A 
HETATM   38  C   UNL     1     -43.359  60.838 -59.302  1.00  0.00     0.032 A 
BRANCH  36  39
HETATM   39  N   UNL     1     -41.387  63.559 -60.958  1.00  0.00    -0.377 N 
HETATM   40  C   UNL     1     -39.984  64.036 -60.883  1.00  0.00     0.149 C 
HETATM   41  C   UNL     1     -39.110  63.274 -61.896  1.00  0.00     0.187 C 
HETATM   42  O   UNL     1     -39.620  63.399 -63.234  1.00  0.00    -0.388 OA
HETATM   43  C   UNL     1     -40.966  62.899 -63.314  1.00  0.00     0.187 C 
HETATM   44  C   UNL     1     -41.900  63.640 -62.342  1.00  0.00     0.149 C 
ENDBRANCH  36  39
ENDBRANCH  30  33
ENDBRANCH   6  29
TORSDOF 8
ENDMDL
MODEL 3
REMARK VINA RESULT:      -8.0      4.770      7.081
REMARK  8 active torsions:
REMARK  status: ('A' for Active; 'I' for Inactive)
REMARK    1  A    between atoms: C_6  and  N_7 
REMARK    2  A    between atoms: C_6  and  C_26 
REMARK       I    between atoms: N_7  and  C_8 
REMARK    3  A    between atoms: N_7  and  C_23 
REMARK    4  A    between atoms: C_8  and  C_9 
REMARK    5  A    between atoms: C_9  and  N_10 
REMARK    6  A    between atoms: C_14  and  C_15 
REMARK       I    between atoms: C_26  and  N_27 
REMARK    7  A    between atoms: N_27  and  C_28 
REMARK    8  A    between atoms: C_31  and  N_32 
ROOT
HETATM    1  C   UNL     1     -44.432  55.026 -60.075  1.00  0.00     0.269 C 
HETATM    2  N   UNL     1     -44.340  55.954 -58.889  1.00  0.00    -0.075 N 
HETATM    3  H   UNL     1     -44.543  55.381 -58.058  1.00  0.00     0.279 HD
HETATM    4  C   UNL     1     -42.947  56.499 -58.748  1.00  0.00     0.237 C 
HETATM    5  C   UNL     1     -42.856  57.449 -57.560  1.00  0.00     0.069 C 
HETATM    6  C   UNL     1     -43.910  58.596 -57.529  1.00  0.00     0.120 C 
HETATM    7  C   UNL     1     -45.302  57.933 -57.749  1.00  0.00     0.069 C 
HETATM    8  C   UNL     1     -45.372  57.039 -58.980  1.00  0.00     0.237 C 
ENDROOT
BRANCH   6   9
HETATM    9  N   UNL     1     -43.829  59.357 -56.219  1.00  0.00    -0.328 N 
HETATM   10  C   UNL     1     -42.555  59.548 -55.649  1.00  0.00     0.239 C 
HETATM   11  O   UNL     1     -41.539  59.454 -56.341  1.00  0.00    -0.271 OA
BRANCH  10  12
HETATM   12  C   UNL     1     -42.453  59.855 -54.141  1.00  0.00     0.228 C 
BRANCH  12  13
HETATM   13  N   UNL     1     -42.233  58.677 -53.306  1.00  0.00    -0.347 N 
HETATM   14  C   UNL     1     -43.202  58.040 -52.522  1.00  0.00     0.171 C 
HETATM   15  S   UNL     1     -44.719  58.549 -52.104  1.00  0.00    -0.041 SA
HETATM   16  N   UNL     1     -42.691  56.823 -52.110  1.00  0.00    -0.357 N 
HETATM   17  C   UNL     1     -41.321  56.651 -52.527  1.00  0.00     0.135 C 
HETATM   18  H   UNL     1     -43.175  56.219 -51.457  1.00  0.00     0.162 HD
HETATM   19  C   UNL     1     -41.164  57.726 -53.610  1.00  0.00     0.155 C 
BRANCH  17  20
HETATM   20  C   UNL     1     -41.002  55.249 -52.974  1.00  0.00    -0.034 A 
HETATM   21  C   UNL     1     -40.840  54.923 -54.329  1.00  0.00     0.009 A 
HETATM   22  C   UNL     1     -40.554  53.613 -54.717  1.00  0.00     0.001 A 
HETATM   23  C   UNL     1     -40.415  52.614 -53.756  1.00  0.00     0.000 A 
HETATM   24  C   UNL     1     -40.557  52.925 -52.405  1.00  0.00     0.001 A 
HETATM   25  C   UNL     1     -40.846  54.235 -52.016  1.00  0.00     0.009 A 
ENDBRANCH  17  20
ENDBRANCH  12  13
ENDBRANCH  10  12
BRANCH   9  26
HETATM   26  C   UNL     1     -45.039  59.738 -55.514  1.00  0.00     0.088 A 
HETATM   27  C   UNL     1     -45.151  61.107 -54.874  1.00  0.00     0.027 A 
HETATM   28  C   UNL     1     -46.036  60.759 -56.018  1.00  0.00     0.027 A 
ENDBRANCH   9  26
ENDBRANCH   6   9
BRANCH   6  29
HETATM   29  C   UNL     1     -43.716  59.573 -58.733  1.00  0.00     0.251 C 
HETATM   30  N   UNL     1     -42.424  59.606 -59.217  1.00  0.00    -0.325 N 
HETATM   31  H   UNL     1     -41.884  58.756 -59.092  1.00  0.00     0.169 HD
HETATM   32  O   UNL     1     -44.589  60.400 -58.996  1.00  0.00    -0.270 OA
BRANCH  30  33
HETATM   33  C   UNL     1     -41.775  60.676 -59.865  1.00  0.00     0.034 A 
HETATM   34  C   UNL     1     -41.938  60.982 -61.211  1.00  0.00     0.032 A 
HETATM   35  C   UNL     1     -41.338  62.126 -61.758  1.00  0.00     0.031 A 
HETATM   36  C   UNL     1     -40.568  63.013 -60.993  1.00  0.00     0.030 A 
HETATM   37  C   UNL     1     -40.382  62.661 -59.650  1.00  0.00     0.031 A 
HETATM   38  C   UNL     1     -40.977  61.517 -59.090  1.00  0.00     0.032 A 
BRANCH  36  39
HETATM   39  N   UNL     1     -39.993  64.134 -61.585  1.00  0.00    -0.377 N 
HETATM   40  C   UNL     1     -38.512  64.222 -61.628  1.00  0.00     0.149 C 
HETATM   41  C   UNL     1     -37.985  63.656 -62.959  1.00  0.00     0.187 C 
HETATM   42  O   UNL     1     -38.568  64.328 -64.087  1.00  0.00    -0.388 OA
HETATM   43  C   UNL     1     -40.001  64.207 -64.067  1.00  0.00     0.187 C 
HETATM   44  C   UNL     1     -40.596  64.782 -62.770  1.00  0.00     0.149 C 
ENDBRANCH  36  39
ENDBRANCH  30  33
ENDBRANCH   6  29
TORSDOF 8
ENDMDL
MODEL 4
REMARK VINA RESULT:      -7.9      1.816      2.297
REMARK  8 active torsions:
REMARK  status: ('A' for Active; 'I' for Inactive)
REMARK    1  A    between atoms: C_6  and  N_7 
REMARK    2  A    between atoms: C_6  and  C_26 
REMARK       I    between atoms: N_7  and  C_8 
REMARK    3  A    between atoms: N_7  and  C_23 
REMARK    4  A    between atoms: C_8  and  C_9 
REMARK    5  A    between atoms: C_9  and  N_10 
REMARK    6  A    between atoms: C_14  and  C_15 
REMARK       I    between atoms: C_26  and  N_27 
REMARK    7  A    between atoms: N_27  and  C_28 
REMARK    8  A    between atoms: C_31  and  N_32 
ROOT
HETATM    1  C   UNL     1     -45.983  63.090 -49.963  1.00  0.00     0.269 C 
HETATM    2  N   UNL     1     -45.066  61.893 -50.033  1.00  0.00    -0.075 N 
HETATM    3  H   UNL     1     -45.022  61.507 -49.080  1.00  0.00     0.279 HD
HETATM    4  C   UNL     1     -45.640  60.837 -50.935  1.00  0.00     0.237 C 
HETATM    5  C   UNL     1     -44.709  59.634 -51.019  1.00  0.00     0.069 C 
HETATM    6  C   UNL     1     -43.230  59.949 -51.398  1.00  0.00     0.120 C 
HETATM    7  C   UNL     1     -42.759  61.094 -50.454  1.00  0.00     0.069 C 
HETATM    8  C   UNL     1     -43.683  62.304 -50.443  1.00  0.00     0.237 C 
ENDROOT
BRANCH   6   9
HETATM    9  N   UNL     1     -42.373  58.703 -51.275  1.00  0.00    -0.328 N 
HETATM   10  C   UNL     1     -42.902  57.492 -51.762  1.00  0.00     0.239 C 
HETATM   11  O   UNL     1     -43.823  57.496 -52.582  1.00  0.00    -0.271 OA
BRANCH  10  12
HETATM   12  C   UNL     1     -42.324  56.162 -51.236  1.00  0.00     0.228 C 
BRANCH  12  13
HETATM   13  N   UNL     1     -41.987  55.202 -52.284  1.00  0.00    -0.347 N 
HETATM   14  C   UNL     1     -41.186  55.461 -53.402  1.00  0.00     0.171 C 
HETATM   15  S   UNL     1     -40.641  56.905 -53.994  1.00  0.00    -0.041 SA
HETATM   16  N   UNL     1     -40.875  54.252 -53.998  1.00  0.00    -0.357 N 
HETATM   17  C   UNL     1     -41.543  53.150 -53.351  1.00  0.00     0.135 C 
HETATM   18  H   UNL     1     -40.377  54.189 -54.878  1.00  0.00     0.162 HD
HETATM   19  C   UNL     1     -41.981  53.764 -52.014  1.00  0.00     0.155 C 
BRANCH  17  20
HETATM   20  C   UNL     1     -40.687  51.918 -53.232  1.00  0.00    -0.034 A 
HETATM   21  C   UNL     1     -40.413  51.097 -54.337  1.00  0.00     0.009 A 
HETATM   22  C   UNL     1     -39.624  49.954 -54.198  1.00  0.00     0.001 A 
HETATM   23  C   UNL     1     -39.088  49.623 -52.956  1.00  0.00     0.000 A 
HETATM   24  C   UNL     1     -39.337  50.436 -51.853  1.00  0.00     0.001 A 
HETATM   25  C   UNL     1     -40.128  51.578 -51.990  1.00  0.00     0.009 A 
ENDBRANCH  17  20
ENDBRANCH  12  13
ENDBRANCH  10  12
BRANCH   9  26
HETATM   26  C   UNL     1     -41.120  58.742 -50.543  1.00  0.00     0.088 A 
HETATM   27  C   UNL     1     -39.809  58.915 -51.283  1.00  0.00     0.027 A 
HETATM   28  C   UNL     1     -40.276  59.986 -50.361  1.00  0.00     0.027 A 
ENDBRANCH   9  26
ENDBRANCH   6   9
BRANCH   6  29
HETATM   29  C   UNL     1     -43.131  60.530 -52.845  1.00  0.00     0.251 C 
HETATM   30  N   UNL     1     -44.117  60.072 -53.695  1.00  0.00    -0.325 N 
HETATM   31  H   UNL     1     -44.993  59.811 -53.255  1.00  0.00     0.169 HD
HETATM   32  O   UNL     1     -42.104  61.108 -53.202  1.00  0.00    -0.270 OA
BRANCH  30  33
HETATM   33  C   UNL     1     -44.048  59.932 -55.096  1.00  0.00     0.034 A 
HETATM   34  C   UNL     1     -44.126  60.995 -55.987  1.00  0.00     0.032 A 
HETATM   35  C   UNL     1     -43.945  60.784 -57.363  1.00  0.00     0.031 A 
HETATM   36  C   UNL     1     -43.668  59.520 -57.902  1.00  0.00     0.030 A 
HETATM   37  C   UNL     1     -43.637  58.458 -56.991  1.00  0.00     0.031 A 
HETATM   38  C   UNL     1     -43.817  58.655 -55.611  1.00  0.00     0.032 A 
BRANCH  36  39
HETATM   39  N   UNL     1     -43.498  59.366 -59.275  1.00  0.00    -0.377 N 
HETATM   40  C   UNL     1     -42.135  59.068 -59.782  1.00  0.00     0.149 C 
HETATM   41  C   UNL     1     -41.941  57.547 -59.920  1.00  0.00     0.187 C 
HETATM   42  O   UNL     1     -42.941  56.961 -60.771  1.00  0.00    -0.388 OA
HETATM   43  C   UNL     1     -44.259  57.216 -60.256  1.00  0.00     0.187 C 
HETATM   44  C   UNL     1     -44.528  58.725 -60.120  1.00  0.00     0.149 C 
ENDBRANCH  36  39
ENDBRANCH  30  33
ENDBRANCH   6  29
TORSDOF 8
ENDMDL
MODEL 5
REMARK VINA RESULT:      -7.7      4.367      6.447
REMARK  8 active torsions:
REMARK  status: ('A' for Active; 'I' for Inactive)
REMARK    1  A    between atoms: C_6  and  N_7 
REMARK    2  A    between atoms: C_6  and  C_26 
REMARK       I    between atoms: N_7  and  C_8 
REMARK    3  A    between atoms: N_7  and  C_23 
REMARK    4  A    between atoms: C_8  and  C_9 
REMARK    5  A    between atoms: C_9  and  N_10 
REMARK    6  A    between atoms: C_14  and  C_15 
REMARK       I    between atoms: C_26  and  N_27 
REMARK    7  A    between atoms: N_27  and  C_28 
REMARK    8  A    between atoms: C_31  and  N_32 
ROOT
HETATM    1  C   UNL     1     -44.034  55.242 -59.233  1.00  0.00     0.269 C 
HETATM    2  N   UNL     1     -44.095  56.177 -58.049  1.00  0.00    -0.075 N 
HETATM    3  H   UNL     1     -44.843  55.819 -57.438  1.00  0.00     0.279 HD
HETATM    4  C   UNL     1     -42.807  56.140 -57.277  1.00  0.00     0.237 C 
HETATM    5  C   UNL     1     -42.861  57.095 -56.090  1.00  0.00     0.069 C 
HETATM    6  C   UNL     1     -43.274  58.561 -56.421  1.00  0.00     0.120 C 
HETATM    7  C   UNL     1     -44.574  58.480 -57.273  1.00  0.00     0.069 C 
HETATM    8  C   UNL     1     -44.462  57.565 -58.485  1.00  0.00     0.237 C 
ENDROOT
BRANCH   6   9
HETATM    9  N   UNL     1     -43.463  59.360 -55.144  1.00  0.00    -0.328 N 
HETATM   10  C   UNL     1     -42.359  59.486 -54.279  1.00  0.00     0.239 C 
HETATM   11  O   UNL     1     -41.213  59.302 -54.696  1.00  0.00    -0.271 OA
BRANCH  10  12
HETATM   12  C   UNL     1     -42.609  59.836 -52.798  1.00  0.00     0.228 C 
BRANCH  12  13
HETATM   13  N   UNL     1     -42.494  58.700 -51.888  1.00  0.00    -0.347 N 
HETATM   14  C   UNL     1     -43.563  58.000 -51.317  1.00  0.00     0.171 C 
HETATM   15  S   UNL     1     -45.170  58.387 -51.272  1.00  0.00    -0.041 SA
HETATM   16  N   UNL     1     -43.065  56.841 -50.752  1.00  0.00    -0.357 N 
HETATM   17  C   UNL     1     -41.627  56.777 -50.842  1.00  0.00     0.135 C 
HETATM   18  H   UNL     1     -43.637  56.212 -50.200  1.00  0.00     0.162 HD
HETATM   19  C   UNL     1     -41.313  57.838 -51.905  1.00  0.00     0.155 C 
BRANCH  17  20
HETATM   20  C   UNL     1     -41.107  55.398 -51.149  1.00  0.00    -0.034 A 
HETATM   21  C   UNL     1     -40.530  54.587 -50.159  1.00  0.00     0.009 A 
HETATM   22  C   UNL     1     -40.047  53.316 -50.472  1.00  0.00     0.001 A 
HETATM   23  C   UNL     1     -40.143  52.833 -51.775  1.00  0.00     0.000 A 
HETATM   24  C   UNL     1     -40.727  53.620 -52.766  1.00  0.00     0.001 A 
HETATM   25  C   UNL     1     -41.209  54.893 -52.454  1.00  0.00     0.009 A 
ENDBRANCH  17  20
ENDBRANCH  12  13
ENDBRANCH  10  12
BRANCH   9  26
HETATM   26  C   UNL     1     -44.779  59.843 -54.768  1.00  0.00     0.088 A 
HETATM   27  C   UNL     1     -44.979  61.295 -54.387  1.00  0.00     0.027 A 
HETATM   28  C   UNL     1     -45.625  60.766 -55.618  1.00  0.00     0.027 A 
ENDBRANCH   9  26
ENDBRANCH   6   9
BRANCH   6  29
HETATM   29  C   UNL     1     -42.214  59.252 -57.337  1.00  0.00     0.251 C 
HETATM   30  N   UNL     1     -42.257  60.631 -57.290  1.00  0.00    -0.325 N 
HETATM   31  H   UNL     1     -42.595  61.033 -56.422  1.00  0.00     0.169 HD
HETATM   32  O   UNL     1     -41.622  58.593 -58.192  1.00  0.00    -0.270 OA
BRANCH  30  33
HETATM   33  C   UNL     1     -41.881  61.538 -58.301  1.00  0.00     0.034 A 
HETATM   34  C   UNL     1     -40.596  62.048 -58.449  1.00  0.00     0.032 A 
HETATM   35  C   UNL     1     -40.277  62.866 -59.544  1.00  0.00     0.031 A 
HETATM   36  C   UNL     1     -41.212  63.197 -60.536  1.00  0.00     0.030 A 
HETATM   37  C   UNL     1     -42.509  62.708 -60.343  1.00  0.00     0.031 A 
HETATM   38  C   UNL     1     -42.842  61.889 -59.250  1.00  0.00     0.032 A 
BRANCH  36  39
HETATM   39  N   UNL     1     -40.843  64.013 -61.601  1.00  0.00    -0.377 N 
HETATM   40  C   UNL     1     -39.397  64.253 -61.831  1.00  0.00     0.149 C 
HETATM   41  C   UNL     1     -38.846  63.237 -62.848  1.00  0.00     0.187 C 
HETATM   42  O   UNL     1     -39.574  63.280 -64.087  1.00  0.00    -0.388 OA
HETATM   43  C   UNL     1     -40.968  63.008 -63.867  1.00  0.00     0.187 C 
HETATM   44  C   UNL     1     -41.589  64.009 -62.878  1.00  0.00     0.149 C 
ENDBRANCH  36  39
ENDBRANCH  30  33
ENDBRANCH   6  29
TORSDOF 8
ENDMDL
MODEL 6
REMARK VINA RESULT:      -7.6      3.763      5.840
REMARK  8 active torsions:
REMARK  status: ('A' for Active; 'I' for Inactive)
REMARK    1  A    between atoms: C_6  and  N_7 
REMARK    2  A    between atoms: C_6  and  C_26 
REMARK       I    between atoms: N_7  and  C_8 
REMARK    3  A    between atoms: N_7  and  C_23 
REMARK    4  A    between atoms: C_8  and  C_9 
REMARK    5  A    between atoms: C_9  and  N_10 
REMARK    6  A    between atoms: C_14  and  C_15 
REMARK       I    between atoms: C_26  and  N_27 
REMARK    7  A    between atoms: N_27  and  C_28 
REMARK    8  A    between atoms: C_31  and  N_32 
ROOT
HETATM    1  C   UNL     1     -41.773  59.332 -60.894  1.00  0.00     0.269 C 
HETATM    2  N   UNL     1     -42.109  58.733 -59.550  1.00  0.00    -0.075 N 
HETATM    3  H   UNL     1     -41.373  58.040 -59.351  1.00  0.00     0.279 HD
HETATM    4  C   UNL     1     -42.060  59.783 -58.475  1.00  0.00     0.237 C 
HETATM    5  C   UNL     1     -42.414  59.184 -57.119  1.00  0.00     0.069 C 
HETATM    6  C   UNL     1     -43.750  58.385 -57.061  1.00  0.00     0.120 C 
HETATM    7  C   UNL     1     -43.725  57.380 -58.249  1.00  0.00     0.069 C 
HETATM    8  C   UNL     1     -43.429  58.024 -59.597  1.00  0.00     0.237 C 
ENDROOT
BRANCH   6   9
HETATM    9  N   UNL     1     -43.899  57.695 -55.718  1.00  0.00    -0.328 N 
HETATM   10  C   UNL     1     -43.119  56.547 -55.479  1.00  0.00     0.239 C 
HETATM   11  O   UNL     1     -42.103  56.331 -56.144  1.00  0.00    -0.271 OA
BRANCH  10  12
HETATM   12  C   UNL     1     -43.570  55.554 -54.388  1.00  0.00     0.228 C 
BRANCH  12  13
HETATM   13  N   UNL     1     -42.473  54.977 -53.616  1.00  0.00    -0.347 N 
HETATM   14  C   UNL     1     -42.406  54.906 -52.220  1.00  0.00     0.171 C 
HETATM   15  S   UNL     1     -43.348  55.651 -51.082  1.00  0.00    -0.041 SA
HETATM   16  N   UNL     1     -41.370  54.056 -51.881  1.00  0.00    -0.357 N 
HETATM   17  C   UNL     1     -40.645  53.608 -53.044  1.00  0.00     0.135 C 
HETATM   18  H   UNL     1     -41.069  53.914 -50.924  1.00  0.00     0.162 HD
HETATM   19  C   UNL     1     -41.609  53.945 -54.188  1.00  0.00     0.155 C 
BRANCH  17  20
HETATM   20  C   UNL     1     -40.228  52.163 -52.970  1.00  0.00    -0.034 A 
HETATM   21  C   UNL     1     -40.205  51.340 -54.106  1.00  0.00     0.009 A 
HETATM   22  C   UNL     1     -39.823  50.001 -54.008  1.00  0.00     0.001 A 
HETATM   23  C   UNL     1     -39.448  49.470 -52.777  1.00  0.00     0.000 A 
HETATM   24  C   UNL     1     -39.451  50.278 -51.642  1.00  0.00     0.001 A 
HETATM   25  C   UNL     1     -39.835  51.617 -51.738  1.00  0.00     0.009 A 
ENDBRANCH  17  20
ENDBRANCH  12  13
ENDBRANCH  10  12
BRANCH   9  26
HETATM   26  C   UNL     1     -44.921  58.125 -54.780  1.00  0.00     0.088 A 
HETATM   27  C   UNL     1     -44.558  58.422 -53.339  1.00  0.00     0.027 A 
HETATM   28  C   UNL     1     -45.030  59.526 -54.219  1.00  0.00     0.027 A 
ENDBRANCH   9  26
ENDBRANCH   6   9
BRANCH   6  29
HETATM   29  C   UNL     1     -44.976  59.317 -57.326  1.00  0.00     0.251 C 
HETATM   30  N   UNL     1     -46.046  58.671 -57.912  1.00  0.00    -0.325 N 
HETATM   31  H   UNL     1     -46.129  57.680 -57.709  1.00  0.00     0.169 HD
HETATM   32  O   UNL     1     -44.841  60.539 -57.257  1.00  0.00    -0.270 OA
BRANCH  30  33
HETATM   33  C   UNL     1     -47.034  59.229 -58.749  1.00  0.00     0.034 A 
HETATM   34  C   UNL     1     -47.086  59.035 -60.124  1.00  0.00     0.032 A 
HETATM   35  C   UNL     1     -48.161  59.539 -60.873  1.00  0.00     0.031 A 
HETATM   36  C   UNL     1     -49.225  60.240 -60.288  1.00  0.00     0.030 A 
HETATM   37  C   UNL     1     -49.129  60.461 -58.909  1.00  0.00     0.031 A 
HETATM   38  C   UNL     1     -48.057  59.962 -58.147  1.00  0.00     0.032 A 
BRANCH  36  39
HETATM   39  N   UNL     1     -50.266  60.720 -61.078  1.00  0.00    -0.377 N 
HETATM   40  C   UNL     1     -50.437  60.145 -62.435  1.00  0.00     0.149 C 
HETATM   41  C   UNL     1     -51.443  58.980 -62.396  1.00  0.00     0.187 C 
HETATM   42  O   UNL     1     -52.708  59.392 -61.853  1.00  0.00    -0.388 OA
HETATM   43  C   UNL     1     -52.546  59.911 -60.522  1.00  0.00     0.187 C 
HETATM   44  C   UNL     1     -51.571  61.101 -60.496  1.00  0.00     0.149 C 
ENDBRANCH  36  39
ENDBRANCH  30  33
ENDBRANCH   6  29
TORSDOF 8
ENDMDL
MODEL 7
REMARK VINA RESULT:      -7.6      4.197      6.525
REMARK  8 active torsions:
REMARK  status: ('A' for Active; 'I' for Inactive)
REMARK    1  A    between atoms: C_6  and  N_7 
REMARK    2  A    between atoms: C_6  and  C_26 
REMARK       I    between atoms: N_7  and  C_8 
REMARK    3  A    between atoms: N_7  and  C_23 
REMARK    4  A    between atoms: C_8  and  C_9 
REMARK    5  A    between atoms: C_9  and  N_10 
REMARK    6  A    between atoms: C_14  and  C_15 
REMARK       I    between atoms: C_26  and  N_27 
REMARK    7  A    between atoms: N_27  and  C_28 
REMARK    8  A    between atoms: C_31  and  N_32 
ROOT
HETATM    1  C   UNL     1     -40.621  62.429 -58.447  1.00  0.00     0.269 C 
HETATM    2  N   UNL     1     -41.137  61.060 -58.077  1.00  0.00    -0.075 N 
HETATM    3  H   UNL     1     -40.328  60.536 -57.714  1.00  0.00     0.279 HD
HETATM    4  C   UNL     1     -42.158  61.158 -56.979  1.00  0.00     0.237 C 
HETATM    5  C   UNL     1     -42.692  59.778 -56.614  1.00  0.00     0.069 C 
HETATM    6  C   UNL     1     -43.228  58.925 -57.802  1.00  0.00     0.120 C 
HETATM    7  C   UNL     1     -42.127  58.945 -58.903  1.00  0.00     0.069 C 
HETATM    8  C   UNL     1     -41.663  60.344 -59.285  1.00  0.00     0.237 C 
ENDROOT
BRANCH   6   9
HETATM    9  N   UNL     1     -43.561  57.519 -57.339  1.00  0.00    -0.328 N 
HETATM   10  C   UNL     1     -44.245  57.375 -56.115  1.00  0.00     0.239 C 
HETATM   11  O   UNL     1     -44.877  58.320 -55.637  1.00  0.00    -0.271 OA
BRANCH  10  12
HETATM   12  C   UNL     1     -44.170  56.025 -55.374  1.00  0.00     0.228 C 
BRANCH  12  13
HETATM   13  N   UNL     1     -42.915  55.804 -54.661  1.00  0.00    -0.347 N 
HETATM   14  C   UNL     1     -42.584  56.335 -53.409  1.00  0.00     0.171 C 
HETATM   15  S   UNL     1     -43.337  57.519 -52.535  1.00  0.00    -0.041 SA
HETATM   16  N   UNL     1     -41.453  55.683 -52.951  1.00  0.00    -0.357 N 
HETATM   17  C   UNL     1     -40.934  54.761 -53.931  1.00  0.00     0.135 C 
HETATM   18  H   UNL     1     -40.970  55.956 -52.103  1.00  0.00     0.162 HD
HETATM   19  C   UNL     1     -42.115  54.603 -54.898  1.00  0.00     0.155 C 
BRANCH  17  20
HETATM   20  C   UNL     1     -40.425  53.476 -53.335  1.00  0.00    -0.034 A 
HETATM   21  C   UNL     1     -40.035  52.392 -54.135  1.00  0.00     0.009 A 
HETATM   22  C   UNL     1     -39.576  51.208 -53.556  1.00  0.00     0.001 A 
HETATM   23  C   UNL     1     -39.489  51.096 -52.170  1.00  0.00     0.000 A 
HETATM   24  C   UNL     1     -39.859  52.169 -51.362  1.00  0.00     0.001 A 
HETATM   25  C   UNL     1     -40.320  53.353 -51.940  1.00  0.00     0.009 A 
ENDBRANCH  17  20
ENDBRANCH  12  13
ENDBRANCH  10  12
BRANCH   9  26
HETATM   26  C   UNL     1     -43.056  56.366 -58.063  1.00  0.00     0.088 A 
HETATM   27  C   UNL     1     -44.002  55.493 -58.863  1.00  0.00     0.027 A 
HETATM   28  C   UNL     1     -42.958  56.282 -59.571  1.00  0.00     0.027 A 
ENDBRANCH   9  26
ENDBRANCH   6   9
BRANCH   6  29
HETATM   29  C   UNL     1     -44.484  59.589 -58.452  1.00  0.00     0.251 C 
HETATM   30  N   UNL     1     -45.199  60.389 -57.584  1.00  0.00    -0.325 N 
HETATM   31  H   UNL     1     -44.665  60.814 -56.833  1.00  0.00     0.169 HD
HETATM   32  O   UNL     1     -44.894  59.187 -59.541  1.00  0.00    -0.270 OA
BRANCH  30  33
HETATM   33  C   UNL     1     -46.577  60.684 -57.624  1.00  0.00     0.034 A 
HETATM   34  C   UNL     1     -47.561  59.754 -57.935  1.00  0.00     0.032 A 
HETATM   35  C   UNL     1     -48.919  60.101 -57.853  1.00  0.00     0.031 A 
HETATM   36  C   UNL     1     -49.349  61.372 -57.447  1.00  0.00     0.030 A 
HETATM   37  C   UNL     1     -48.340  62.305 -57.180  1.00  0.00     0.031 A 
HETATM   38  C   UNL     1     -46.977  61.971 -57.260  1.00  0.00     0.032 A 
BRANCH  36  39
HETATM   39  N   UNL     1     -50.708  61.664 -57.383  1.00  0.00    -0.377 N 
HETATM   40  C   UNL     1     -51.673  60.576 -57.681  1.00  0.00     0.149 C 
HETATM   41  C   UNL     1     -52.099  59.873 -56.380  1.00  0.00     0.187 C 
HETATM   42  O   UNL     1     -52.654  60.802 -55.434  1.00  0.00    -0.388 OA
HETATM   43  C   UNL     1     -51.704  61.833 -55.115  1.00  0.00     0.187 C 
HETATM   44  C   UNL     1     -51.257  62.596 -56.374  1.00  0.00     0.149 C 
ENDBRANCH  36  39
ENDBRANCH  30  33
ENDBRANCH   6  29
TORSDOF 8
ENDMDL
MODEL 8
REMARK VINA RESULT:      -7.4      2.785      7.732
REMARK  8 active torsions:
REMARK  status: ('A' for Active; 'I' for Inactive)
REMARK    1  A    between atoms: C_6  and  N_7 
REMARK    2  A    between atoms: C_6  and  C_26 
REMARK       I    between atoms: N_7  and  C_8 
REMARK    3  A    between atoms: N_7  and  C_23 
REMARK    4  A    between atoms: C_8  and  C_9 
REMARK    5  A    between atoms: C_9  and  N_10 
REMARK    6  A    between atoms: C_14  and  C_15 
REMARK       I    between atoms: C_26  and  N_27 
REMARK    7  A    between atoms: N_27  and  C_28 
REMARK    8  A    between atoms: C_31  and  N_32 
ROOT
HETATM    1  C   UNL     1     -40.894  52.776 -50.866  1.00  0.00     0.269 C 
HETATM    2  N   UNL     1     -41.455  54.177 -50.878  1.00  0.00    -0.075 N 
HETATM    3  H   UNL     1     -41.266  54.571 -49.945  1.00  0.00     0.279 HD
HETATM    4  C   UNL     1     -40.740  55.025 -51.892  1.00  0.00     0.237 C 
HETATM    5  C   UNL     1     -41.314  56.436 -51.917  1.00  0.00     0.069 C 
HETATM    6  C   UNL     1     -42.859  56.535 -52.094  1.00  0.00     0.120 C 
HETATM    7  C   UNL     1     -43.494  55.574 -51.047  1.00  0.00     0.069 C 
HETATM    8  C   UNL     1     -42.939  54.156 -51.094  1.00  0.00     0.237 C 
ENDROOT
BRANCH   6   9
HETATM    9  N   UNL     1     -43.323  57.969 -51.925  1.00  0.00    -0.328 N 
HETATM   10  C   UNL     1     -44.582  58.187 -51.332  1.00  0.00     0.239 C 
HETATM   11  O   UNL     1     -45.108  57.311 -50.642  1.00  0.00    -0.271 OA
BRANCH  10  12
HETATM   12  C   UNL     1     -45.300  59.529 -51.579  1.00  0.00     0.228 C 
BRANCH  12  13
HETATM   13  N   UNL     1     -44.924  60.588 -50.646  1.00  0.00    -0.347 N 
HETATM   14  C   UNL     1     -44.590  61.902 -50.994  1.00  0.00     0.171 C 
HETATM   15  S   UNL     1     -44.266  62.546 -52.482  1.00  0.00    -0.041 SA
HETATM   16  N   UNL     1     -44.571  62.661 -49.839  1.00  0.00    -0.357 N 
HETATM   17  C   UNL     1     -44.795  61.854 -48.665  1.00  0.00     0.135 C 
HETATM   18  H   UNL     1     -44.268  63.628 -49.824  1.00  0.00     0.162 HD
HETATM   19  C   UNL     1     -45.375  60.562 -49.255  1.00  0.00     0.155 C 
BRANCH  17  20
HETATM   20  C   UNL     1     -45.661  62.525 -47.633  1.00  0.00    -0.034 A 
HETATM   21  C   UNL     1     -45.251  62.662 -46.298  1.00  0.00     0.009 A 
HETATM   22  C   UNL     1     -46.078  63.280 -45.358  1.00  0.00     0.001 A 
HETATM   23  C   UNL     1     -47.320  63.779 -45.743  1.00  0.00     0.000 A 
HETATM   24  C   UNL     1     -47.735  63.665 -47.068  1.00  0.00     0.001 A 
HETATM   25  C   UNL     1     -46.910  63.045 -48.008  1.00  0.00     0.009 A 
ENDBRANCH  17  20
ENDBRANCH  12  13
ENDBRANCH  10  12
BRANCH   9  26
HETATM   26  C   UNL     1     -42.555  59.063 -52.494  1.00  0.00     0.088 A 
HETATM   27  C   UNL     1     -41.623  59.877 -51.619  1.00  0.00     0.027 A 
HETATM   28  C   UNL     1     -41.057  59.033 -52.707  1.00  0.00     0.027 A 
ENDBRANCH   9  26
ENDBRANCH   6   9
BRANCH   6  29
HETATM   29  C   UNL     1     -43.302  55.987 -53.489  1.00  0.00     0.251 C 
HETATM   30  N   UNL     1     -42.484  56.387 -54.527  1.00  0.00    -0.325 N 
HETATM   31  H   UNL     1     -41.518  56.577 -54.279  1.00  0.00     0.169 HD
HETATM   32  O   UNL     1     -44.420  55.491 -53.624  1.00  0.00    -0.270 OA
BRANCH  30  33
HETATM   33  C   UNL     1     -42.834  56.556 -55.881  1.00  0.00     0.034 A 
HETATM   34  C   UNL     1     -42.770  55.544 -56.832  1.00  0.00     0.032 A 
HETATM   35  C   UNL     1     -43.234  55.764 -58.138  1.00  0.00     0.031 A 
HETATM   36  C   UNL     1     -43.788  56.986 -58.545  1.00  0.00     0.030 A 
HETATM   37  C   UNL     1     -43.802  58.004 -57.584  1.00  0.00     0.031 A 
HETATM   38  C   UNL     1     -43.340  57.796 -56.272  1.00  0.00     0.032 A 
BRANCH  36  39
HETATM   39  N   UNL     1     -44.233  57.152 -59.853  1.00  0.00    -0.377 N 
HETATM   40  C   UNL     1     -44.690  55.951 -60.595  1.00  0.00     0.149 C 
HETATM   41  C   UNL     1     -46.213  55.783 -60.448  1.00  0.00     0.187 C 
HETATM   42  O   UNL     1     -46.919  56.955 -60.890  1.00  0.00    -0.388 OA
HETATM   43  C   UNL     1     -46.504  58.111 -60.143  1.00  0.00     0.187 C 
HETATM   44  C   UNL     1     -44.991  58.351 -60.271  1.00  0.00     0.149 C 
ENDBRANCH  36  39
ENDBRANCH  30  33
ENDBRANCH   6  29
TORSDOF 8
ENDMDL
MODEL 9
REMARK VINA RESULT:      -7.3      4.007      8.446
REMARK  8 active torsions:
REMARK  status: ('A' for Active; 'I' for Inactive)
REMARK    1  A    between atoms: C_6  and  N_7 
REMARK    2  A    between atoms: C_6  and  C_26 
REMARK       I    between atoms: N_7  and  C_8 
REMARK    3  A    between atoms: N_7  and  C_23 
REMARK    4  A    between atoms: C_8  and  C_9 
REMARK    5  A    between atoms: C_9  and  N_10 
REMARK    6  A    between atoms: C_14  and  C_15 
REMARK       I    between atoms: C_26  and  N_27 
REMARK    7  A    between atoms: N_27  and  C_28 
REMARK    8  A    between atoms: C_31  and  N_32 
ROOT
HETATM    1  C   UNL     1     -41.954  56.220 -51.239  1.00  0.00     0.269 C 
HETATM    2  N   UNL     1     -42.680  57.511 -50.947  1.00  0.00    -0.075 N 
HETATM    3  H   UNL     1     -42.992  57.451 -49.968  1.00  0.00     0.279 HD
HETATM    4  C   UNL     1     -41.747  58.683 -51.066  1.00  0.00     0.237 C 
HETATM    5  C   UNL     1     -42.482  59.988 -50.787  1.00  0.00     0.069 C 
HETATM    6  C   UNL     1     -43.782  60.222 -51.614  1.00  0.00     0.120 C 
HETATM    7  C   UNL     1     -44.641  58.930 -51.477  1.00  0.00     0.069 C 
HETATM    8  C   UNL     1     -43.890  57.651 -51.823  1.00  0.00     0.237 C 
ENDROOT
BRANCH   6   9
HETATM    9  N   UNL     1     -44.510  61.459 -51.121  1.00  0.00    -0.328 N 
HETATM   10  C   UNL     1     -45.516  61.287 -50.150  1.00  0.00     0.239 C 
HETATM   11  O   UNL     1     -45.547  60.268 -49.456  1.00  0.00    -0.271 OA
BRANCH  10  12
HETATM   12  C   UNL     1     -46.588  62.383 -49.986  1.00  0.00     0.228 C 
BRANCH  12  13
HETATM   13  N   UNL     1     -46.411  63.218 -48.802  1.00  0.00    -0.347 N 
HETATM   14  C   UNL     1     -47.440  63.803 -48.055  1.00  0.00     0.171 C 
HETATM   15  S   UNL     1     -49.047  63.955 -48.414  1.00  0.00    -0.041 SA
HETATM   16  N   UNL     1     -46.899  64.273 -46.872  1.00  0.00    -0.357 N 
HETATM   17  C   UNL     1     -45.468  64.104 -46.835  1.00  0.00     0.135 C 
HETATM   18  H   UNL     1     -47.433  64.817 -46.204  1.00  0.00     0.162 HD
HETATM   19  C   UNL     1     -45.223  63.090 -47.959  1.00  0.00     0.155 C 
BRANCH  17  20
HETATM   20  C   UNL     1     -44.948  63.692 -45.483  1.00  0.00    -0.034 A 
HETATM   21  C   UNL     1     -44.614  64.634 -44.499  1.00  0.00     0.009 A 
HETATM   22  C   UNL     1     -44.125  64.225 -43.257  1.00  0.00     0.001 A 
HETATM   23  C   UNL     1     -43.975  62.869 -42.978  1.00  0.00     0.000 A 
HETATM   24  C   UNL     1     -44.317  61.920 -43.939  1.00  0.00     0.001 A 
HETATM   25  C   UNL     1     -44.804  62.328 -45.183  1.00  0.00     0.009 A 
ENDBRANCH  17  20
ENDBRANCH  12  13
ENDBRANCH  10  12
BRANCH   9  26
HETATM   26  C   UNL     1     -44.273  62.749 -51.746  1.00  0.00     0.088 A 
HETATM   27  C   UNL     1     -43.500  63.823 -51.008  1.00  0.00     0.027 A 
HETATM   28  C   UNL     1     -42.924  63.222 -52.242  1.00  0.00     0.027 A 
ENDBRANCH   9  26
ENDBRANCH   6   9
BRANCH   6  29
HETATM   29  C   UNL     1     -43.465  60.355 -53.138  1.00  0.00     0.251 C 
HETATM   30  N   UNL     1     -44.565  60.167 -53.951  1.00  0.00    -0.325 N 
HETATM   31  H   UNL     1     -45.463  60.406 -53.542  1.00  0.00     0.169 HD
HETATM   32  O   UNL     1     -42.296  60.351 -53.522  1.00  0.00    -0.270 OA
BRANCH  30  33
HETATM   33  C   UNL     1     -44.583  59.690 -55.277  1.00  0.00     0.034 A 
HETATM   34  C   UNL     1     -44.201  60.446 -56.379  1.00  0.00     0.032 A 
HETATM   35  C   UNL     1     -44.148  59.865 -57.656  1.00  0.00     0.031 A 
HETATM   36  C   UNL     1     -44.459  58.517 -57.885  1.00  0.00     0.030 A 
HETATM   37  C   UNL     1     -44.882  57.787 -56.768  1.00  0.00     0.031 A 
HETATM   38  C   UNL     1     -44.940  58.357 -55.484  1.00  0.00     0.032 A 
BRANCH  36  39
HETATM   39  N   UNL     1     -44.391  57.991 -59.172  1.00  0.00    -0.377 N 
HETATM   40  C   UNL     1     -43.510  58.665 -60.158  1.00  0.00     0.149 C 
HETATM   41  C   UNL     1     -42.121  58.002 -60.169  1.00  0.00     0.187 C 
HETATM   42  O   UNL     1     -42.209  56.594 -60.443  1.00  0.00    -0.388 OA
HETATM   43  C   UNL     1     -43.030  55.935 -59.463  1.00  0.00     0.187 C 
HETATM   44  C   UNL     1     -44.446  56.534 -59.421  1.00  0.00     0.149 C 
ENDBRANCH  36  39
ENDBRANCH  30  33
ENDBRANCH   6  29
TORSDOF 8
ENDMDL
MODEL 10
REMARK VINA RESULT:      -7.3      3.507      4.420
REMARK  8 active torsions:
REMARK  status: ('A' for Active; 'I' for Inactive)
REMARK    1  A    between atoms: C_6  and  N_7 
REMARK    2  A    between atoms: C_6  and  C_26 
REMARK       I    between atoms: N_7  and  C_8 
REMARK    3  A    between atoms: N_7  and  C_23 
REMARK    4  A    between atoms: C_8  and  C_9 
REMARK    5  A    between atoms: C_9  and  N_10 
REMARK    6  A    between atoms: C_14  and  C_15 
REMARK       I    between atoms: C_26  and  N_27 
REMARK    7  A    between atoms: N_27  and  C_28 
REMARK    8  A    between atoms: C_31  and  N_32 
ROOT
HETATM    1  C   UNL     1     -48.516  63.645 -51.997  1.00  0.00     0.269 C 
HETATM    2  N   UNL     1     -47.460  62.604 -51.713  1.00  0.00    -0.075 N 
HETATM    3  H   UNL     1     -47.788  62.077 -50.892  1.00  0.00     0.279 HD
HETATM    4  C   UNL     1     -47.338  61.644 -52.863  1.00  0.00     0.237 C 
HETATM    5  C   UNL     1     -46.262  60.602 -52.584  1.00  0.00     0.069 C 
HETATM    6  C   UNL     1     -44.867  61.164 -52.174  1.00  0.00     0.120 C 
HETATM    7  C   UNL     1     -45.115  62.190 -51.030  1.00  0.00     0.069 C 
HETATM    8  C   UNL     1     -46.152  63.252 -51.368  1.00  0.00     0.237 C 
ENDROOT
BRANCH   6   9
HETATM    9  N   UNL     1     -43.943  60.035 -51.755  1.00  0.00    -0.328 N 
HETATM   10  C   UNL     1     -44.006  58.830 -52.481  1.00  0.00     0.239 C 
HETATM   11  O   UNL     1     -44.486  58.808 -53.617  1.00  0.00    -0.271 OA
BRANCH  10  12
HETATM   12  C   UNL     1     -43.485  57.536 -51.823  1.00  0.00     0.228 C 
BRANCH  12  13
HETATM   13  N   UNL     1     -42.682  56.698 -52.709  1.00  0.00    -0.347 N 
HETATM   14  C   UNL     1     -41.474  57.070 -53.311  1.00  0.00     0.171 C 
HETATM   15  S   UNL     1     -40.772  58.562 -53.428  1.00  0.00    -0.041 SA
HETATM   16  N   UNL     1     -40.887  55.933 -53.836  1.00  0.00    -0.357 N 
HETATM   17  C   UNL     1     -41.735  54.776 -53.686  1.00  0.00     0.135 C 
HETATM   18  H   UNL     1     -40.046  55.962 -54.399  1.00  0.00     0.162 HD
HETATM   19  C   UNL     1     -42.747  55.239 -52.630  1.00  0.00     0.155 C 
BRANCH  17  20
HETATM   20  C   UNL     1     -40.981  53.522 -53.336  1.00  0.00    -0.034 A 
HETATM   21  C   UNL     1     -40.481  53.294 -52.045  1.00  0.00     0.009 A 
HETATM   22  C   UNL     1     -39.776  52.126 -51.749  1.00  0.00     0.001 A 
HETATM   23  C   UNL     1     -39.572  51.165 -52.736  1.00  0.00     0.000 A 
HETATM   24  C   UNL     1     -40.075  51.369 -54.019  1.00  0.00     0.001 A 
HETATM   25  C   UNL     1     -40.778  52.538 -54.317  1.00  0.00     0.009 A 
ENDBRANCH  17  20
ENDBRANCH  12  13
ENDBRANCH  10  12
BRANCH   9  26
HETATM   26  C   UNL     1     -43.137  60.154 -50.553  1.00  0.00     0.088 A 
HETATM   27  C   UNL     1     -41.649  60.421 -50.656  1.00  0.00     0.027 A 
HETATM   28  C   UNL     1     -42.538  61.450 -50.051  1.00  0.00     0.027 A 
ENDBRANCH   9  26
ENDBRANCH   6   9
BRANCH   6  29
HETATM   29  C   UNL     1     -44.224  61.982 -53.340  1.00  0.00     0.251 C 
HETATM   30  N   UNL     1     -44.464  61.447 -54.590  1.00  0.00    -0.325 N 
HETATM   31  H   UNL     1     -45.324  60.916 -54.685  1.00  0.00     0.169 HD
HETATM   32  O   UNL     1     -43.376  62.838 -53.090  1.00  0.00    -0.270 OA
BRANCH  30  33
HETATM   33  C   UNL     1     -43.660  61.560 -55.742  1.00  0.00     0.034 A 
HETATM   34  C   UNL     1     -43.627  62.684 -56.558  1.00  0.00     0.032 A 
HETATM   35  C   UNL     1     -42.722  62.759 -57.629  1.00  0.00     0.031 A 
HETATM   36  C   UNL     1     -41.814  61.732 -57.922  1.00  0.00     0.030 A 
HETATM   37  C   UNL     1     -41.896  60.592 -57.113  1.00  0.00     0.031 A 
HETATM   38  C   UNL     1     -42.797  60.504 -56.038  1.00  0.00     0.032 A 
BRANCH  36  39
HETATM   39  N   UNL     1     -40.938  61.856 -58.997  1.00  0.00    -0.377 N 
HETATM   40  C   UNL     1     -41.492  61.733 -60.368  1.00  0.00     0.149 C 
HETATM   41  C   UNL     1     -41.849  63.124 -60.923  1.00  0.00     0.187 C 
HETATM   42  O   UNL     1     -40.714  64.006 -60.909  1.00  0.00    -0.388 OA
HETATM   43  C   UNL     1     -40.203  64.156 -59.573  1.00  0.00     0.187 C 
HETATM   44  C   UNL     1     -39.801  62.800 -58.968  1.00  0.00     0.149 C 
ENDBRANCH  36  39
ENDBRANCH  30  33
ENDBRANCH   6  29
TORSDOF 8
ENDMDL
