MODEL 1
REMARK VINA RESULT:      -9.1      0.000      0.000
REMARK  6 active torsions:
REMARK  status: ('A' for Active; 'I' for Inactive)
REMARK    1  A    between atoms: C_2  and  N_3 
REMARK    2  A    between atoms: N_6  and  C_8 
REMARK    3  A    between atoms: C_8  and  C_9 
REMARK       I    between atoms: C_9  and  N_10 
REMARK       I    between atoms: N_10  and  C_11 
REMARK       I    between atoms: C_11  and  N_12 
REMARK    4  A    between atoms: N_12  and  C_13 
REMARK    5  A    between atoms: C_13  and  C_14 
REMARK    6  A    between atoms: C_14  and  C_15 
ROOT
HETATM    1  C   UNL     1     -43.995  58.513 -52.110  1.00  0.00     0.251 C 
HETATM    2  N   UNL     1     -44.608  59.238 -53.095  1.00  0.00    -0.278 N 
HETATM    3  C   UNL     1     -45.055  58.731 -54.289  1.00  0.00     0.322 C 
HETATM    4  N   UNL     1     -45.398  59.708 -55.183  1.00  0.00    -0.343 N 
HETATM    5  O   UNL     1     -45.174  57.530 -54.500  1.00  0.00    -0.247 OA
HETATM    6  O   UNL     1     -43.331  59.074 -51.233  1.00  0.00    -0.271 OA
HETATM    7  H   UNL     1     -44.471  60.237 -53.035  1.00  0.00     0.173 HD
HETATM    8  H   UNL     1     -44.963  60.615 -55.071  1.00  0.00     0.164 HD
ENDROOT
BRANCH   1   9
HETATM    9  C   UNL     1     -44.103  56.980 -52.117  1.00  0.00     0.337 C 
BRANCH   9  10
HETATM   10  N   UNL     1     -42.711  56.345 -52.195  1.00  0.00    -0.060 N 
HETATM   11  C   UNL     1     -42.451  55.357 -51.056  1.00  0.00     0.255 C 
HETATM   12  C   UNL     1     -41.001  54.843 -51.131  1.00  0.00     0.150 C 
HETATM   13  N   UNL     1     -40.740  54.271 -52.460  1.00  0.00    -0.378 N 
HETATM   14  C   UNL     1     -40.987  55.153 -53.609  1.00  0.00     0.150 C 
HETATM   15  C   UNL     1     -42.428  55.714 -53.550  1.00  0.00     0.255 C 
HETATM   16  H   UNL     1     -42.048  57.123 -52.051  1.00  0.00     0.280 HD
BRANCH  13  17
HETATM   17  C   UNL     1     -40.346  52.957 -52.630  1.00  0.00     0.030 A 
HETATM   18  C   UNL     1     -39.898  52.171 -51.553  1.00  0.00     0.032 A 
HETATM   19  C   UNL     1     -39.510  50.838 -51.724  1.00  0.00     0.044 A 
HETATM   20  C   UNL     1     -39.560  50.268 -52.985  1.00  0.00     0.116 A 
HETATM   21  C   UNL     1     -39.987  51.008 -54.074  1.00  0.00     0.044 A 
HETATM   22  F   UNL     1     -39.190  48.992 -53.153  1.00  0.00    -0.206 F 
HETATM   23  C   UNL     1     -40.377  52.340 -53.893  1.00  0.00     0.032 A 
ENDBRANCH  13  17
ENDBRANCH   9  10
ENDBRANCH   1   9
BRANCH   4  24
HETATM   24  C   UNL     1     -45.722  59.350 -56.559  1.00  0.00     0.129 C 
BRANCH  24  25
HETATM   25  C   UNL     1     -44.513  59.355 -57.499  1.00  0.00     0.060 C 
BRANCH  25  26
HETATM   26  C   UNL     1     -44.021  57.998 -57.923  1.00  0.00    -0.029 A 
HETATM   27  C   UNL     1     -44.593  57.081 -58.869  1.00  0.00     0.001 A 
HETATM   28  C   UNL     1     -43.784  55.940 -58.887  1.00  0.00     0.043 A 
HETATM   29  C   UNL     1     -45.730  57.096 -59.703  1.00  0.00     0.056 A 
HETATM   30  C   UNL     1     -44.061  54.817 -59.679  1.00  0.00     0.033 A 
HETATM   31  N   UNL     1     -42.733  56.172 -58.033  1.00  0.00    -0.365 N 
HETATM   32  C   UNL     1     -45.206  54.853 -60.477  1.00  0.00     0.044 A 
HETATM   33  C   UNL     1     -46.018  55.977 -60.484  1.00  0.00     0.117 A 
HETATM   34  F   UNL     1     -47.117  55.986 -61.252  1.00  0.00    -0.206 F 
HETATM   35  H   UNL     1     -41.968  55.530 -57.875  1.00  0.00     0.165 HD
HETATM   36  C   UNL     1     -42.875  57.394 -57.436  1.00  0.00     0.096 A 
ENDBRANCH  25  26
ENDBRANCH  24  25
ENDBRANCH   4  24
TORSDOF 6
ENDMDL
MODEL 2
REMARK VINA RESULT:      -9.0      1.959      7.692
REMARK  6 active torsions:
REMARK  status: ('A' for Active; 'I' for Inactive)
REMARK    1  A    between atoms: C_2  and  N_3 
REMARK    2  A    between atoms: N_6  and  C_8 
REMARK    3  A    between atoms: C_8  and  C_9 
REMARK       I    between atoms: C_9  and  N_10 
REMARK       I    between atoms: N_10  and  C_11 
REMARK       I    between atoms: C_11  and  N_12 
REMARK    4  A    between atoms: N_12  and  C_13 
REMARK    5  A    between atoms: C_13  and  C_14 
REMARK    6  A    between atoms: C_14  and  C_15 
ROOT
HETATM    1  C   UNL     1     -43.615  58.552 -51.736  1.00  0.00     0.251 C 
HETATM    2  N   UNL     1     -42.689  57.841 -51.022  1.00  0.00    -0.278 N 
HETATM    3  C   UNL     1     -42.699  56.479 -50.852  1.00  0.00     0.322 C 
HETATM    4  N   UNL     1     -41.812  56.059 -49.899  1.00  0.00    -0.343 N 
HETATM    5  O   UNL     1     -43.397  55.728 -51.523  1.00  0.00    -0.247 OA
HETATM    6  O   UNL     1     -43.739  59.770 -51.570  1.00  0.00    -0.271 OA
HETATM    7  H   UNL     1     -42.139  58.387 -50.375  1.00  0.00     0.173 HD
HETATM    8  H   UNL     1     -41.546  56.725 -49.185  1.00  0.00     0.164 HD
ENDROOT
BRANCH   1   9
HETATM    9  C   UNL     1     -44.536  57.822 -52.726  1.00  0.00     0.337 C 
BRANCH   9  10
HETATM   10  N   UNL     1     -44.068  58.056 -54.165  1.00  0.00    -0.060 N 
HETATM   11  C   UNL     1     -43.318  56.853 -54.742  1.00  0.00     0.255 C 
HETATM   12  C   UNL     1     -42.781  57.195 -56.144  1.00  0.00     0.150 C 
HETATM   13  N   UNL     1     -43.881  57.653 -57.004  1.00  0.00    -0.378 N 
HETATM   14  C   UNL     1     -44.664  58.794 -56.509  1.00  0.00     0.150 C 
HETATM   15  C   UNL     1     -45.195  58.498 -55.086  1.00  0.00     0.255 C 
HETATM   16  H   UNL     1     -43.375  58.819 -54.106  1.00  0.00     0.280 HD
BRANCH  13  17
HETATM   17  C   UNL     1     -44.208  57.011 -58.184  1.00  0.00     0.030 A 
HETATM   18  C   UNL     1     -43.444  55.941 -58.683  1.00  0.00     0.032 A 
HETATM   19  C   UNL     1     -43.783  55.285 -59.872  1.00  0.00     0.044 A 
HETATM   20  C   UNL     1     -44.895  55.696 -60.587  1.00  0.00     0.116 A 
HETATM   21  C   UNL     1     -45.670  56.751 -60.136  1.00  0.00     0.044 A 
HETATM   22  F   UNL     1     -45.222  55.070 -61.725  1.00  0.00    -0.206 F 
HETATM   23  C   UNL     1     -45.326  57.399 -58.944  1.00  0.00     0.032 A 
ENDBRANCH  13  17
ENDBRANCH   9  10
ENDBRANCH   1   9
BRANCH   4  24
HETATM   24  C   UNL     1     -41.819  54.667 -49.465  1.00  0.00     0.129 C 
BRANCH  24  25
HETATM   25  C   UNL     1     -40.447  53.990 -49.541  1.00  0.00     0.060 C 
BRANCH  25  26
HETATM   26  C   UNL     1     -40.277  53.001 -50.662  1.00  0.00    -0.029 A 
HETATM   27  C   UNL     1     -40.264  53.233 -52.081  1.00  0.00     0.001 A 
HETATM   28  C   UNL     1     -40.112  51.991 -52.705  1.00  0.00     0.043 A 
HETATM   29  C   UNL     1     -40.384  54.374 -52.901  1.00  0.00     0.056 A 
HETATM   30  C   UNL     1     -40.089  51.831 -54.098  1.00  0.00     0.033 A 
HETATM   31  N   UNL     1     -39.980  51.050 -51.713  1.00  0.00    -0.365 N 
HETATM   32  C   UNL     1     -40.233  52.976 -54.884  1.00  0.00     0.044 A 
HETATM   33  C   UNL     1     -40.375  54.220 -54.288  1.00  0.00     0.117 A 
HETATM   34  F   UNL     1     -40.520  55.305 -55.062  1.00  0.00    -0.206 F 
HETATM   35  H   UNL     1     -39.819  50.064 -51.873  1.00  0.00     0.165 HD
HETATM   36  C   UNL     1     -40.096  51.641 -50.486  1.00  0.00     0.096 A 
ENDBRANCH  25  26
ENDBRANCH  24  25
ENDBRANCH   4  24
TORSDOF 6
ENDMDL
MODEL 3
REMARK VINA RESULT:      -9.0      1.674      2.270
REMARK  6 active torsions:
REMARK  status: ('A' for Active; 'I' for Inactive)
REMARK    1  A    between atoms: C_2  and  N_3 
REMARK    2  A    between atoms: N_6  and  C_8 
REMARK    3  A    between atoms: C_8  and  C_9 
REMARK       I    between atoms: C_9  and  N_10 
REMARK       I    between atoms: N_10  and  C_11 
REMARK       I    between atoms: C_11  and  N_12 
REMARK    4  A    between atoms: N_12  and  C_13 
REMARK    5  A    between atoms: C_13  and  C_14 
REMARK    6  A    between atoms: C_14  and  C_15 
ROOT
HETATM    1  C   UNL     1     -43.995  58.490 -54.250  1.00  0.00     0.251 C 
HETATM    2  N   UNL     1     -44.282  58.847 -55.540  1.00  0.00    -0.278 N 
HETATM    3  C   UNL     1     -43.360  59.257 -56.470  1.00  0.00     0.322 C 
HETATM    4  N   UNL     1     -43.940  59.787 -57.590  1.00  0.00    -0.343 N 
HETATM    5  O   UNL     1     -42.153  59.114 -56.320  1.00  0.00    -0.247 OA
HETATM    6  O   UNL     1     -44.882  58.460 -53.392  1.00  0.00    -0.271 OA
HETATM    7  H   UNL     1     -45.251  59.072 -55.714  1.00  0.00     0.173 HD
HETATM    8  H   UNL     1     -44.871  60.172 -57.495  1.00  0.00     0.164 HD
ENDROOT
BRANCH   1   9
HETATM    9  C   UNL     1     -42.546  58.160 -53.857  1.00  0.00     0.337 C 
BRANCH   9  10
HETATM   10  N   UNL     1     -42.185  56.736 -54.291  1.00  0.00    -0.060 N 
HETATM   11  C   UNL     1     -40.686  56.451 -54.179  1.00  0.00     0.255 C 
HETATM   12  C   UNL     1     -40.379  55.047 -54.732  1.00  0.00     0.150 C 
HETATM   13  N   UNL     1     -41.208  54.045 -54.047  1.00  0.00    -0.378 N 
HETATM   14  C   UNL     1     -42.661  54.261 -54.091  1.00  0.00     0.150 C 
HETATM   15  C   UNL     1     -43.005  55.677 -53.570  1.00  0.00     0.255 C 
HETATM   16  H   UNL     1     -42.407  56.693 -55.298  1.00  0.00     0.280 HD
BRANCH  13  17
HETATM   17  C   UNL     1     -40.656  52.991 -53.342  1.00  0.00     0.030 A 
HETATM   18  C   UNL     1     -40.241  51.809 -53.981  1.00  0.00     0.032 A 
HETATM   19  C   UNL     1     -39.673  50.747 -53.269  1.00  0.00     0.044 A 
HETATM   20  C   UNL     1     -39.515  50.850 -51.897  1.00  0.00     0.116 A 
HETATM   21  C   UNL     1     -39.917  51.994 -51.228  1.00  0.00     0.044 A 
HETATM   22  F   UNL     1     -38.971  49.837 -51.212  1.00  0.00    -0.206 F 
HETATM   23  C   UNL     1     -40.482  53.053 -51.948  1.00  0.00     0.032 A 
ENDBRANCH  13  17
ENDBRANCH   9  10
ENDBRANCH   1   9
BRANCH   4  24
HETATM   24  C   UNL     1     -43.110  60.433 -58.600  1.00  0.00     0.129 C 
BRANCH  24  25
HETATM   25  C   UNL     1     -43.157  59.748 -59.969  1.00  0.00     0.060 C 
BRANCH  25  26
HETATM   26  C   UNL     1     -42.982  58.254 -59.948  1.00  0.00    -0.029 A 
HETATM   27  C   UNL     1     -43.979  57.224 -60.049  1.00  0.00     0.001 A 
HETATM   28  C   UNL     1     -43.321  55.994 -59.943  1.00  0.00     0.043 A 
HETATM   29  C   UNL     1     -45.380  57.211 -60.204  1.00  0.00     0.056 A 
HETATM   30  C   UNL     1     -43.990  54.763 -59.968  1.00  0.00     0.033 A 
HETATM   31  N   UNL     1     -41.977  56.259 -59.839  1.00  0.00    -0.365 N 
HETATM   32  C   UNL     1     -45.380  54.783 -60.098  1.00  0.00     0.044 A 
HETATM   33  C   UNL     1     -46.054  55.989 -60.216  1.00  0.00     0.117 A 
HETATM   34  F   UNL     1     -47.389  55.985 -60.332  1.00  0.00    -0.206 F 
HETATM   35  H   UNL     1     -41.254  55.553 -59.785  1.00  0.00     0.165 HD
HETATM   36  C   UNL     1     -41.764  57.610 -59.823  1.00  0.00     0.096 A 
ENDBRANCH  25  26
ENDBRANCH  24  25
ENDBRANCH   4  24
TORSDOF 6
ENDMDL
MODEL 4
REMARK VINA RESULT:      -8.9      1.880      7.756
REMARK  6 active torsions:
REMARK  status: ('A' for Active; 'I' for Inactive)
REMARK    1  A    between atoms: C_2  and  N_3 
REMARK    2  A    between atoms: N_6  and  C_8 
REMARK    3  A    between atoms: C_8  and  C_9 
REMARK       I    between atoms: C_9  and  N_10 
REMARK       I    between atoms: N_10  and  C_11 
REMARK       I    between atoms: C_11  and  N_12 
REMARK    4  A    between atoms: N_12  and  C_13 
REMARK    5  A    between atoms: C_13  and  C_14 
REMARK    6  A    between atoms: C_14  and  C_15 
ROOT
HETATM    1  C   UNL     1     -42.457  60.191 -52.549  1.00  0.00     0.251 C 
HETATM    2  N   UNL     1     -42.194  59.432 -51.441  1.00  0.00    -0.278 N 
HETATM    3  C   UNL     1     -41.612  58.189 -51.455  1.00  0.00     0.322 C 
HETATM    4  N   UNL     1     -41.694  57.554 -50.246  1.00  0.00    -0.343 N 
HETATM    5  O   UNL     1     -41.044  57.730 -52.438  1.00  0.00    -0.247 OA
HETATM    6  O   UNL     1     -43.267  61.122 -52.497  1.00  0.00    -0.271 OA
HETATM    7  H   UNL     1     -42.705  59.698 -50.611  1.00  0.00     0.173 HD
HETATM    8  H   UNL     1     -42.442  57.831 -49.623  1.00  0.00     0.164 HD
ENDROOT
BRANCH   1   9
HETATM    9  C   UNL     1     -41.766  59.858 -53.880  1.00  0.00     0.337 C 
BRANCH   9  10
HETATM   10  N   UNL     1     -42.803  59.691 -54.995  1.00  0.00    -0.060 N 
HETATM   11  C   UNL     1     -42.175  59.720 -56.390  1.00  0.00     0.255 C 
HETATM   12  C   UNL     1     -43.280  59.659 -57.461  1.00  0.00     0.150 C 
HETATM   13  N   UNL     1     -44.131  58.482 -57.238  1.00  0.00    -0.378 N 
HETATM   14  C   UNL     1     -44.754  58.370 -55.911  1.00  0.00     0.150 C 
HETATM   15  C   UNL     1     -43.675  58.459 -54.807  1.00  0.00     0.255 C 
HETATM   16  H   UNL     1     -43.403  60.528 -54.937  1.00  0.00     0.280 HD
BRANCH  13  17
HETATM   17  C   UNL     1     -44.289  57.496 -58.195  1.00  0.00     0.030 A 
HETATM   18  C   UNL     1     -45.479  57.363 -58.932  1.00  0.00     0.032 A 
HETATM   19  C   UNL     1     -45.634  56.372 -59.909  1.00  0.00     0.044 A 
HETATM   20  C   UNL     1     -44.595  55.491 -60.160  1.00  0.00     0.116 A 
HETATM   21  C   UNL     1     -43.409  55.583 -59.451  1.00  0.00     0.044 A 
HETATM   22  F   UNL     1     -44.740  54.543 -61.093  1.00  0.00    -0.206 F 
HETATM   23  C   UNL     1     -43.261  56.579 -58.479  1.00  0.00     0.032 A 
ENDBRANCH  13  17
ENDBRANCH   9  10
ENDBRANCH   1   9
BRANCH   4  24
HETATM   24  C   UNL     1     -41.287  56.158 -50.131  1.00  0.00     0.129 C 
BRANCH  24  25
HETATM   25  C   UNL     1     -42.383  55.162 -50.521  1.00  0.00     0.060 C 
BRANCH  25  26
HETATM   26  C   UNL     1     -42.193  54.482 -51.849  1.00  0.00    -0.029 A 
HETATM   27  C   UNL     1     -41.302  53.411 -52.200  1.00  0.00     0.001 A 
HETATM   28  C   UNL     1     -41.472  53.155 -53.564  1.00  0.00     0.043 A 
HETATM   29  C   UNL     1     -40.351  52.642 -51.498  1.00  0.00     0.056 A 
HETATM   30  C   UNL     1     -40.736  52.187 -54.260  1.00  0.00     0.033 A 
HETATM   31  N   UNL     1     -42.464  53.993 -54.014  1.00  0.00    -0.365 N 
HETATM   32  C   UNL     1     -39.785  51.457 -53.544  1.00  0.00     0.044 A 
HETATM   33  C   UNL     1     -39.605  51.685 -52.188  1.00  0.00     0.117 A 
HETATM   34  F   UNL     1     -38.682  50.978 -51.522  1.00  0.00    -0.206 F 
HETATM   35  H   UNL     1     -42.824  54.002 -54.960  1.00  0.00     0.165 HD
HETATM   36  C   UNL     1     -42.890  54.805 -53.000  1.00  0.00     0.096 A 
ENDBRANCH  25  26
ENDBRANCH  24  25
ENDBRANCH   4  24
TORSDOF 6
ENDMDL
MODEL 5
REMARK VINA RESULT:      -8.8      1.939      2.493
REMARK  6 active torsions:
REMARK  status: ('A' for Active; 'I' for Inactive)
REMARK    1  A    between atoms: C_2  and  N_3 
REMARK    2  A    between atoms: N_6  and  C_8 
REMARK    3  A    between atoms: C_8  and  C_9 
REMARK       I    between atoms: C_9  and  N_10 
REMARK       I    between atoms: N_10  and  C_11 
REMARK       I    between atoms: C_11  and  N_12 
REMARK    4  A    between atoms: N_12  and  C_13 
REMARK    5  A    between atoms: C_13  and  C_14 
REMARK    6  A    between atoms: C_14  and  C_15 
ROOT
HETATM    1  C   UNL     1     -44.634  58.632 -53.146  1.00  0.00     0.251 C 
HETATM    2  N   UNL     1     -45.458  58.786 -54.228  1.00  0.00    -0.278 N 
HETATM    3  C   UNL     1     -45.060  59.214 -55.470  1.00  0.00     0.322 C 
HETATM    4  N   UNL     1     -46.115  59.514 -56.288  1.00  0.00    -0.343 N 
HETATM    5  O   UNL     1     -43.885  59.270 -55.810  1.00  0.00    -0.247 OA
HETATM    6  O   UNL     1     -45.098  58.574 -52.003  1.00  0.00    -0.271 OA
HETATM    7  H   UNL     1     -46.442  58.843 -54.009  1.00  0.00     0.173 HD
HETATM    8  H   UNL     1     -46.990  59.767 -55.847  1.00  0.00     0.164 HD
ENDROOT
BRANCH   1   9
HETATM    9  C   UNL     1     -43.113  58.569 -53.352  1.00  0.00     0.337 C 
BRANCH   9  10
HETATM   10  N   UNL     1     -42.699  57.189 -53.872  1.00  0.00    -0.060 N 
HETATM   11  C   UNL     1     -41.182  56.991 -53.870  1.00  0.00     0.255 C 
HETATM   12  C   UNL     1     -40.832  55.632 -54.505  1.00  0.00     0.150 C 
HETATM   13  N   UNL     1     -41.554  54.554 -53.813  1.00  0.00    -0.378 N 
HETATM   14  C   UNL     1     -43.017  54.683 -53.753  1.00  0.00     0.150 C 
HETATM   15  C   UNL     1     -43.406  56.053 -53.148  1.00  0.00     0.255 C 
HETATM   16  H   UNL     1     -42.986  57.173 -54.863  1.00  0.00     0.280 HD
BRANCH  13  17
HETATM   17  C   UNL     1     -40.895  53.508 -53.193  1.00  0.00     0.030 A 
HETATM   18  C   UNL     1     -40.728  53.459 -51.798  1.00  0.00     0.032 A 
HETATM   19  C   UNL     1     -40.072  52.394 -51.171  1.00  0.00     0.044 A 
HETATM   20  C   UNL     1     -39.564  51.357 -51.937  1.00  0.00     0.116 A 
HETATM   21  C   UNL     1     -39.700  51.370 -53.315  1.00  0.00     0.044 A 
HETATM   22  F   UNL     1     -38.936  50.336 -51.341  1.00  0.00    -0.206 F 
HETATM   23  C   UNL     1     -40.361  52.438 -53.933  1.00  0.00     0.032 A 
ENDBRANCH  13  17
ENDBRANCH   9  10
ENDBRANCH   1   9
BRANCH   4  24
HETATM   24  C   UNL     1     -45.874  60.151 -57.577  1.00  0.00     0.129 C 
BRANCH  24  25
HETATM   25  C   UNL     1     -46.626  59.496 -58.739  1.00  0.00     0.060 C 
BRANCH  25  26
HETATM   26  C   UNL     1     -46.175  58.106 -59.097  1.00  0.00    -0.029 A 
HETATM   27  C   UNL     1     -44.839  57.601 -59.259  1.00  0.00     0.001 A 
HETATM   28  C   UNL     1     -44.944  56.256 -59.629  1.00  0.00     0.043 A 
HETATM   29  C   UNL     1     -43.548  58.155 -59.147  1.00  0.00     0.056 A 
HETATM   30  C   UNL     1     -43.832  55.448 -59.904  1.00  0.00     0.033 A 
HETATM   31  N   UNL     1     -46.280  55.938 -59.636  1.00  0.00    -0.365 N 
HETATM   32  C   UNL     1     -42.567  56.031 -59.806  1.00  0.00     0.044 A 
HETATM   33  C   UNL     1     -42.437  57.360 -59.431  1.00  0.00     0.117 A 
HETATM   34  F   UNL     1     -41.214  57.901 -59.352  1.00  0.00    -0.206 F 
HETATM   35  H   UNL     1     -46.652  55.018 -59.833  1.00  0.00     0.165 HD
HETATM   36  C   UNL     1     -47.027  57.044 -59.337  1.00  0.00     0.096 A 
ENDBRANCH  25  26
ENDBRANCH  24  25
ENDBRANCH   4  24
TORSDOF 6
ENDMDL
MODEL 6
REMARK VINA RESULT:      -8.7      2.298      2.678
REMARK  6 active torsions:
REMARK  status: ('A' for Active; 'I' for Inactive)
REMARK    1  A    between atoms: C_2  and  N_3 
REMARK    2  A    between atoms: N_6  and  C_8 
REMARK    3  A    between atoms: C_8  and  C_9 
REMARK       I    between atoms: C_9  and  N_10 
REMARK       I    between atoms: N_10  and  C_11 
REMARK       I    between atoms: C_11  and  N_12 
REMARK    4  A    between atoms: N_12  and  C_13 
REMARK    5  A    between atoms: C_13  and  C_14 
REMARK    6  A    between atoms: C_14  and  C_15 
ROOT
HETATM    1  C   UNL     1     -41.508  58.971 -51.982  1.00  0.00     0.251 C 
HETATM    2  N   UNL     1     -41.558  59.898 -52.987  1.00  0.00    -0.278 N 
HETATM    3  C   UNL     1     -42.367  59.821 -54.094  1.00  0.00     0.322 C 
HETATM    4  N   UNL     1     -42.040  60.741 -55.052  1.00  0.00    -0.343 N 
HETATM    5  O   UNL     1     -43.306  59.040 -54.179  1.00  0.00    -0.247 OA
HETATM    6  O   UNL     1     -40.544  58.928 -51.211  1.00  0.00    -0.271 OA
HETATM    7  H   UNL     1     -40.763  60.519 -53.034  1.00  0.00     0.173 HD
HETATM    8  H   UNL     1     -41.090  61.090 -55.058  1.00  0.00     0.164 HD
ENDROOT
BRANCH   1   9
HETATM    9  C   UNL     1     -42.646  57.948 -51.834  1.00  0.00     0.337 C 
BRANCH   9  10
HETATM   10  N   UNL     1     -42.429  56.765 -52.782  1.00  0.00    -0.060 N 
HETATM   11  C   UNL     1     -40.947  56.494 -53.055  1.00  0.00     0.255 C 
HETATM   12  C   UNL     1     -40.805  55.370 -54.097  1.00  0.00     0.150 C 
HETATM   13  N   UNL     1     -41.535  54.176 -53.649  1.00  0.00    -0.378 N 
HETATM   14  C   UNL     1     -42.962  54.359 -53.346  1.00  0.00     0.150 C 
HETATM   15  C   UNL     1     -43.146  55.505 -52.323  1.00  0.00     0.255 C 
HETATM   16  H   UNL     1     -42.833  57.061 -53.685  1.00  0.00     0.280 HD
BRANCH  13  17
HETATM   17  C   UNL     1     -40.907  52.958 -53.458  1.00  0.00     0.030 A 
HETATM   18  C   UNL     1     -40.255  52.641 -52.254  1.00  0.00     0.032 A 
HETATM   19  C   UNL     1     -39.629  51.405 -52.058  1.00  0.00     0.044 A 
HETATM   20  C   UNL     1     -39.643  50.463 -53.073  1.00  0.00     0.116 A 
HETATM   21  C   UNL     1     -40.267  50.738 -54.278  1.00  0.00     0.044 A 
HETATM   22  F   UNL     1     -39.046  49.279 -52.889  1.00  0.00    -0.206 F 
HETATM   23  C   UNL     1     -40.894  51.976 -54.464  1.00  0.00     0.032 A 
ENDBRANCH  13  17
ENDBRANCH   9  10
ENDBRANCH   1   9
BRANCH   4  24
HETATM   24  C   UNL     1     -42.679  60.682 -56.361  1.00  0.00     0.129 C 
BRANCH  24  25
HETATM   25  C   UNL     1     -41.691  60.569 -57.526  1.00  0.00     0.060 C 
BRANCH  25  26
HETATM   26  C   UNL     1     -42.061  59.574 -58.592  1.00  0.00    -0.029 A 
HETATM   27  C   UNL     1     -42.454  58.199 -58.450  1.00  0.00     0.001 A 
HETATM   28  C   UNL     1     -42.660  57.689 -59.736  1.00  0.00     0.043 A 
HETATM   29  C   UNL     1     -42.639  57.327 -57.357  1.00  0.00     0.056 A 
HETATM   30  C   UNL     1     -43.025  56.358 -59.983  1.00  0.00     0.033 A 
HETATM   31  N   UNL     1     -42.459  58.721 -60.620  1.00  0.00    -0.365 N 
HETATM   32  C   UNL     1     -43.178  55.513 -58.883  1.00  0.00     0.044 A 
HETATM   33  C   UNL     1     -42.990  55.998 -57.597  1.00  0.00     0.117 A 
HETATM   34  F   UNL     1     -43.135  55.167 -56.556  1.00  0.00    -0.206 F 
HETATM   35  H   UNL     1     -42.575  58.650 -61.623  1.00  0.00     0.165 HD
HETATM   36  C   UNL     1     -42.081  59.850 -59.947  1.00  0.00     0.096 A 
ENDBRANCH  25  26
ENDBRANCH  24  25
ENDBRANCH   4  24
TORSDOF 6
ENDMDL
MODEL 7
REMARK VINA RESULT:      -8.6      2.264      8.235
REMARK  6 active torsions:
REMARK  status: ('A' for Active; 'I' for Inactive)
REMARK    1  A    between atoms: C_2  and  N_3 
REMARK    2  A    between atoms: N_6  and  C_8 
REMARK    3  A    between atoms: C_8  and  C_9 
REMARK       I    between atoms: C_9  and  N_10 
REMARK       I    between atoms: N_10  and  C_11 
REMARK       I    between atoms: C_11  and  N_12 
REMARK    4  A    between atoms: N_12  and  C_13 
REMARK    5  A    between atoms: C_13  and  C_14 
REMARK    6  A    between atoms: C_14  and  C_15 
ROOT
HETATM    1  C   UNL     1     -44.098  57.792 -51.452  1.00  0.00     0.251 C 
HETATM    2  N   UNL     1     -43.365  57.081 -50.540  1.00  0.00    -0.278 N 
HETATM    3  C   UNL     1     -42.030  56.786 -50.656  1.00  0.00     0.322 C 
HETATM    4  N   UNL     1     -41.612  55.862 -49.738  1.00  0.00    -0.343 N 
HETATM    5  O   UNL     1     -41.295  57.334 -51.467  1.00  0.00    -0.247 OA
HETATM    6  O   UNL     1     -45.331  57.731 -51.455  1.00  0.00    -0.271 OA
HETATM    7  H   UNL     1     -43.910  56.527 -49.895  1.00  0.00     0.173 HD
HETATM    8  H   UNL     1     -42.308  55.232 -49.360  1.00  0.00     0.164 HD
ENDROOT
BRANCH   1   9
HETATM    9  C   UNL     1     -43.376  58.644 -52.508  1.00  0.00     0.337 C 
BRANCH   9  10
HETATM   10  N   UNL     1     -43.487  57.991 -53.889  1.00  0.00    -0.060 N 
HETATM   11  C   UNL     1     -44.340  58.812 -54.859  1.00  0.00     0.255 C 
HETATM   12  C   UNL     1     -44.501  58.049 -56.187  1.00  0.00     0.150 C 
HETATM   13  N   UNL     1     -43.180  57.705 -56.732  1.00  0.00    -0.378 N 
HETATM   14  C   UNL     1     -42.292  56.933 -55.850  1.00  0.00     0.150 C 
HETATM   15  C   UNL     1     -42.131  57.656 -54.492  1.00  0.00     0.255 C 
HETATM   16  H   UNL     1     -44.003  57.111 -53.734  1.00  0.00     0.280 HD
BRANCH  13  17
HETATM   17  C   UNL     1     -42.764  58.134 -57.978  1.00  0.00     0.030 A 
HETATM   18  C   UNL     1     -42.543  57.235 -59.037  1.00  0.00     0.032 A 
HETATM   19  C   UNL     1     -42.132  57.673 -60.301  1.00  0.00     0.044 A 
HETATM   20  C   UNL     1     -41.930  59.024 -60.525  1.00  0.00     0.116 A 
HETATM   21  C   UNL     1     -42.129  59.942 -59.508  1.00  0.00     0.044 A 
HETATM   22  F   UNL     1     -41.538  59.446 -61.734  1.00  0.00    -0.206 F 
HETATM   23  C   UNL     1     -42.543  59.497 -58.247  1.00  0.00     0.032 A 
ENDBRANCH  13  17
ENDBRANCH   9  10
ENDBRANCH   1   9
BRANCH   4  24
HETATM   24  C   UNL     1     -40.269  55.302 -49.834  1.00  0.00     0.129 C 
BRANCH  24  25
HETATM   25  C   UNL     1     -40.246  53.799 -50.126  1.00  0.00     0.060 C 
BRANCH  25  26
HETATM   26  C   UNL     1     -40.307  53.424 -51.582  1.00  0.00    -0.029 A 
HETATM   27  C   UNL     1     -40.085  52.144 -52.197  1.00  0.00     0.001 A 
HETATM   28  C   UNL     1     -40.222  52.316 -53.578  1.00  0.00     0.043 A 
HETATM   29  C   UNL     1     -39.763  50.857 -51.722  1.00  0.00     0.056 A 
HETATM   30  C   UNL     1     -40.040  51.277 -54.502  1.00  0.00     0.033 A 
HETATM   31  N   UNL     1     -40.568  53.629 -53.793  1.00  0.00    -0.365 N 
HETATM   32  C   UNL     1     -39.699  50.019 -54.003  1.00  0.00     0.044 A 
HETATM   33  C   UNL     1     -39.569  49.821 -52.637  1.00  0.00     0.117 A 
HETATM   34  F   UNL     1     -39.233  48.606 -52.180  1.00  0.00    -0.206 F 
HETATM   35  H   UNL     1     -40.768  54.030 -54.700  1.00  0.00     0.165 HD
HETATM   36  C   UNL     1     -40.604  54.305 -52.605  1.00  0.00     0.096 A 
ENDBRANCH  25  26
ENDBRANCH  24  25
ENDBRANCH   4  24
TORSDOF 6
ENDMDL
MODEL 8
REMARK VINA RESULT:      -8.5      2.145      2.791
REMARK  6 active torsions:
REMARK  status: ('A' for Active; 'I' for Inactive)
REMARK    1  A    between atoms: C_2  and  N_3 
REMARK    2  A    between atoms: N_6  and  C_8 
REMARK    3  A    between atoms: C_8  and  C_9 
REMARK       I    between atoms: C_9  and  N_10 
REMARK       I    between atoms: N_10  and  C_11 
REMARK       I    between atoms: C_11  and  N_12 
REMARK    4  A    between atoms: N_12  and  C_13 
REMARK    5  A    between atoms: C_13  and  C_14 
REMARK    6  A    between atoms: C_14  and  C_15 
ROOT
HETATM    1  C   UNL     1     -41.231  59.416 -52.672  1.00  0.00     0.251 C 
HETATM    2  N   UNL     1     -41.758  60.166 -53.688  1.00  0.00    -0.278 N 
HETATM    3  C   UNL     1     -43.098  60.344 -53.926  1.00  0.00     0.322 C 
HETATM    4  N   UNL     1     -43.347  60.925 -55.139  1.00  0.00    -0.343 N 
HETATM    5  O   UNL     1     -43.964  60.053 -53.111  1.00  0.00    -0.247 OA
HETATM    6  O   UNL     1     -40.059  59.029 -52.716  1.00  0.00    -0.271 OA
HETATM    7  H   UNL     1     -41.121  60.364 -54.446  1.00  0.00     0.173 HD
HETATM    8  H   UNL     1     -42.645  60.817 -55.861  1.00  0.00     0.164 HD
ENDROOT
BRANCH   1   9
HETATM    9  C   UNL     1     -42.118  59.021 -51.481  1.00  0.00     0.337 C 
BRANCH   9  10
HETATM   10  N   UNL     1     -42.407  57.516 -51.505  1.00  0.00    -0.060 N 
HETATM   11  C   UNL     1     -42.518  56.962 -52.927  1.00  0.00     0.255 C 
HETATM   12  C   UNL     1     -42.918  55.476 -52.879  1.00  0.00     0.150 C 
HETATM   13  N   UNL     1     -41.968  54.728 -52.043  1.00  0.00    -0.378 N 
HETATM   14  C   UNL     1     -41.790  55.213 -50.667  1.00  0.00     0.150 C 
HETATM   15  C   UNL     1     -41.417  56.714 -50.675  1.00  0.00     0.255 C 
HETATM   16  H   UNL     1     -43.345  57.412 -51.087  1.00  0.00     0.280 HD
BRANCH  13  17
HETATM   17  C   UNL     1     -41.231  53.667 -52.536  1.00  0.00     0.030 A 
HETATM   18  C   UNL     1     -41.301  53.279 -53.886  1.00  0.00     0.032 A 
HETATM   19  C   UNL     1     -40.547  52.212 -54.386  1.00  0.00     0.044 A 
HETATM   20  C   UNL     1     -39.710  51.508 -53.536  1.00  0.00     0.116 A 
HETATM   21  C   UNL     1     -39.617  51.852 -52.198  1.00  0.00     0.044 A 
HETATM   22  F   UNL     1     -38.986  50.487 -54.012  1.00  0.00    -0.206 F 
HETATM   23  C   UNL     1     -40.373  52.924 -51.707  1.00  0.00     0.032 A 
ENDBRANCH  13  17
ENDBRANCH   9  10
ENDBRANCH   1   9
BRANCH   4  24
HETATM   24  C   UNL     1     -44.717  61.024 -55.628  1.00  0.00     0.129 C 
BRANCH  24  25
HETATM   25  C   UNL     1     -44.896  60.533 -57.068  1.00  0.00     0.060 C 
BRANCH  25  26
HETATM   26  C   UNL     1     -44.445  59.121 -57.328  1.00  0.00    -0.029 A 
HETATM   27  C   UNL     1     -43.572  58.624 -58.356  1.00  0.00     0.001 A 
HETATM   28  C   UNL     1     -43.490  57.237 -58.198  1.00  0.00     0.043 A 
HETATM   29  C   UNL     1     -42.855  59.211 -59.418  1.00  0.00     0.056 A 
HETATM   30  C   UNL     1     -42.745  56.411 -59.052  1.00  0.00     0.033 A 
HETATM   31  N   UNL     1     -44.233  56.908 -57.090  1.00  0.00    -0.365 N 
HETATM   32  C   UNL     1     -42.065  57.018 -60.109  1.00  0.00     0.044 A 
HETATM   33  C   UNL     1     -42.122  58.393 -60.279  1.00  0.00     0.117 A 
HETATM   34  F   UNL     1     -41.467  58.954 -61.306  1.00  0.00    -0.206 F 
HETATM   35  H   UNL     1     -44.324  55.972 -56.716  1.00  0.00     0.165 HD
HETATM   36  C   UNL     1     -44.824  58.027 -56.572  1.00  0.00     0.096 A 
ENDBRANCH  25  26
ENDBRANCH  24  25
ENDBRANCH   4  24
TORSDOF 6
ENDMDL
MODEL 9
REMARK VINA RESULT:      -8.5      3.737      9.628
REMARK  6 active torsions:
REMARK  status: ('A' for Active; 'I' for Inactive)
REMARK    1  A    between atoms: C_2  and  N_3 
REMARK    2  A    between atoms: N_6  and  C_8 
REMARK    3  A    between atoms: C_8  and  C_9 
REMARK       I    between atoms: C_9  and  N_10 
REMARK       I    between atoms: N_10  and  C_11 
REMARK       I    between atoms: C_11  and  N_12 
REMARK    4  A    between atoms: N_12  and  C_13 
REMARK    5  A    between atoms: C_13  and  C_14 
REMARK    6  A    between atoms: C_14  and  C_15 
ROOT
HETATM    1  C   UNL     1     -43.745  56.895 -57.718  1.00  0.00     0.251 C 
HETATM    2  N   UNL     1     -43.318  55.842 -56.955  1.00  0.00    -0.278 N 
HETATM    3  C   UNL     1     -43.369  55.787 -55.585  1.00  0.00     0.322 C 
HETATM    4  N   UNL     1     -42.654  54.740 -55.071  1.00  0.00    -0.343 N 
HETATM    5  O   UNL     1     -44.026  56.570 -54.910  1.00  0.00    -0.247 OA
HETATM    6  O   UNL     1     -43.369  57.020 -58.888  1.00  0.00    -0.271 OA
HETATM    7  H   UNL     1     -42.692  55.203 -57.424  1.00  0.00     0.173 HD
HETATM    8  H   UNL     1     -41.897  54.372 -55.633  1.00  0.00     0.164 HD
ENDROOT
BRANCH   1   9
HETATM    9  C   UNL     1     -44.673  57.953 -57.101  1.00  0.00     0.337 C 
BRANCH   9  10
HETATM   10  N   UNL     1     -44.053  59.348 -57.226  1.00  0.00    -0.060 N 
HETATM   11  C   UNL     1     -42.537  59.337 -57.013  1.00  0.00     0.255 C 
HETATM   12  C   UNL     1     -41.996  60.779 -57.041  1.00  0.00     0.150 C 
HETATM   13  N   UNL     1     -42.397  61.441 -58.291  1.00  0.00    -0.378 N 
HETATM   14  C   UNL     1     -43.839  61.473 -58.578  1.00  0.00     0.150 C 
HETATM   15  C   UNL     1     -44.424  60.042 -58.527  1.00  0.00     0.255 C 
HETATM   16  H   UNL     1     -44.445  59.892 -56.441  1.00  0.00     0.280 HD
BRANCH  13  17
HETATM   17  C   UNL     1     -41.472  61.949 -59.184  1.00  0.00     0.030 A 
HETATM   18  C   UNL     1     -41.610  61.779 -60.573  1.00  0.00     0.032 A 
HETATM   19  C   UNL     1     -40.679  62.304 -61.476  1.00  0.00     0.044 A 
HETATM   20  C   UNL     1     -39.585  63.007 -60.999  1.00  0.00     0.116 A 
HETATM   21  C   UNL     1     -39.407  63.191 -59.639  1.00  0.00     0.044 A 
HETATM   22  F   UNL     1     -38.693  63.511 -61.861  1.00  0.00    -0.206 F 
HETATM   23  C   UNL     1     -40.345  62.666 -58.742  1.00  0.00     0.032 A 
ENDBRANCH  13  17
ENDBRANCH   9  10
ENDBRANCH   1   9
BRANCH   4  24
HETATM   24  C   UNL     1     -42.454  54.636 -53.631  1.00  0.00     0.129 C 
BRANCH  24  25
HETATM   25  C   UNL     1     -40.984  54.690 -53.206  1.00  0.00     0.060 C 
BRANCH  25  26
HETATM   26  C   UNL     1     -40.524  53.558 -52.328  1.00  0.00    -0.029 A 
HETATM   27  C   UNL     1     -40.194  52.207 -52.691  1.00  0.00     0.001 A 
HETATM   28  C   UNL     1     -39.856  51.530 -51.514  1.00  0.00     0.043 A 
HETATM   29  C   UNL     1     -40.164  51.483 -53.900  1.00  0.00     0.056 A 
HETATM   30  C   UNL     1     -39.508  50.172 -51.485  1.00  0.00     0.033 A 
HETATM   31  N   UNL     1     -39.922  52.440 -50.487  1.00  0.00    -0.365 N 
HETATM   32  C   UNL     1     -39.510  49.476 -52.695  1.00  0.00     0.044 A 
HETATM   33  C   UNL     1     -39.830  50.129 -53.876  1.00  0.00     0.117 A 
HETATM   34  F   UNL     1     -39.832  49.439 -55.025  1.00  0.00    -0.206 F 
HETATM   35  H   UNL     1     -39.693  52.237 -49.523  1.00  0.00     0.165 HD
HETATM   36  C   UNL     1     -40.339  53.653 -50.961  1.00  0.00     0.096 A 
ENDBRANCH  25  26
ENDBRANCH  24  25
ENDBRANCH   4  24
TORSDOF 6
ENDMDL
MODEL 10
REMARK VINA RESULT:      -8.4      3.341      6.140
REMARK  6 active torsions:
REMARK  status: ('A' for Active; 'I' for Inactive)
REMARK    1  A    between atoms: C_2  and  N_3 
REMARK    2  A    between atoms: N_6  and  C_8 
REMARK    3  A    between atoms: C_8  and  C_9 
REMARK       I    between atoms: C_9  and  N_10 
REMARK       I    between atoms: N_10  and  C_11 
REMARK       I    between atoms: C_11  and  N_12 
REMARK    4  A    between atoms: N_12  and  C_13 
REMARK    5  A    between atoms: C_13  and  C_14 
REMARK    6  A    between atoms: C_14  and  C_15 
ROOT
HETATM    1  C   UNL     1     -45.448  58.598 -56.232  1.00  0.00     0.251 C 
HETATM    2  N   UNL     1     -45.629  59.737 -55.495  1.00  0.00    -0.278 N 
HETATM    3  C   UNL     1     -44.714  60.262 -54.616  1.00  0.00     0.322 C 
HETATM    4  N   UNL     1     -45.242  61.253 -53.834  1.00  0.00    -0.343 N 
HETATM    5  O   UNL     1     -43.544  59.905 -54.579  1.00  0.00    -0.247 OA
HETATM    6  O   UNL     1     -46.414  58.011 -56.731  1.00  0.00    -0.271 OA
HETATM    7  H   UNL     1     -46.588  60.038 -55.403  1.00  0.00     0.173 HD
HETATM    8  H   UNL     1     -46.243  61.246 -53.686  1.00  0.00     0.164 HD
ENDROOT
BRANCH   1   9
HETATM    9  C   UNL     1     -44.034  58.024 -56.410  1.00  0.00     0.337 C 
BRANCH   9  10
HETATM   10  N   UNL     1     -43.966  56.591 -55.872  1.00  0.00    -0.060 N 
HETATM   11  C   UNL     1     -42.843  55.775 -56.515  1.00  0.00     0.255 C 
HETATM   12  C   UNL     1     -42.902  54.320 -56.014  1.00  0.00     0.150 C 
HETATM   13  N   UNL     1     -42.864  54.294 -54.545  1.00  0.00    -0.378 N 
HETATM   14  C   UNL     1     -43.900  55.073 -53.852  1.00  0.00     0.150 C 
HETATM   15  C   UNL     1     -43.891  56.536 -54.354  1.00  0.00     0.255 C 
HETATM   16  H   UNL     1     -44.848  56.145 -56.173  1.00  0.00     0.280 HD
BRANCH  13  17
HETATM   17  C   UNL     1     -41.873  53.629 -53.847  1.00  0.00     0.030 A 
HETATM   18  C   UNL     1     -41.071  52.645 -54.453  1.00  0.00     0.032 A 
HETATM   19  C   UNL     1     -40.061  51.981 -53.748  1.00  0.00     0.044 A 
HETATM   20  C   UNL     1     -39.840  52.289 -52.416  1.00  0.00     0.116 A 
HETATM   21  C   UNL     1     -40.612  53.245 -51.779  1.00  0.00     0.044 A 
HETATM   22  F   UNL     1     -38.874  51.655 -51.739  1.00  0.00    -0.206 F 
HETATM   23  C   UNL     1     -41.618  53.908 -52.492  1.00  0.00     0.032 A 
ENDBRANCH  13  17
ENDBRANCH   9  10
ENDBRANCH   1   9
BRANCH   4  24
HETATM   24  C   UNL     1     -44.463  61.796 -52.728  1.00  0.00     0.129 C 
BRANCH  24  25
HETATM   25  C   UNL     1     -44.792  61.164 -51.372  1.00  0.00     0.060 C 
BRANCH  25  26
HETATM   26  C   UNL     1     -44.310  59.751 -51.185  1.00  0.00    -0.029 A 
HETATM   27  C   UNL     1     -42.963  59.260 -51.083  1.00  0.00     0.001 A 
HETATM   28  C   UNL     1     -43.034  57.870 -50.952  1.00  0.00     0.043 A 
HETATM   29  C   UNL     1     -41.685  59.856 -51.105  1.00  0.00     0.056 A 
HETATM   30  C   UNL     1     -41.901  57.050 -50.859  1.00  0.00     0.033 A 
HETATM   31  N   UNL     1     -44.366  57.532 -50.918  1.00  0.00    -0.365 N 
HETATM   32  C   UNL     1     -40.650  57.666 -50.908  1.00  0.00     0.044 A 
HETATM   33  C   UNL     1     -40.553  59.044 -51.026  1.00  0.00     0.117 A 
HETATM   34  F   UNL     1     -39.341  59.614 -51.079  1.00  0.00    -0.206 F 
HETATM   35  H   UNL     1     -44.717  56.591 -50.794  1.00  0.00     0.165 HD
HETATM   36  C   UNL     1     -45.138  58.649 -51.075  1.00  0.00     0.096 A 
ENDBRANCH  25  26
ENDBRANCH  24  25
ENDBRANCH   4  24
TORSDOF 6
ENDMDL
