MODEL 1
REMARK VINA RESULT:      -7.7      0.000      0.000
REMARK  6 active torsions:
REMARK  status: ('A' for Active; 'I' for Inactive)
REMARK    1  A    between atoms: C_2  and  O_3 
REMARK    2  A    between atoms: O_3  and  C_4 
REMARK    3  A    between atoms: C_9  and  S_10 
REMARK    4  A    between atoms: S_10  and  C_11 
REMARK    5  A    between atoms: C_11  and  C_12 
REMARK       I    between atoms: C_12  and  N_13 
REMARK    6  A    between atoms: N_13  and  C_14 
ROOT
HETATM    1  C   UNL     1     -43.615  56.546 -59.310  1.00  0.00     0.069 A 
HETATM    2  C   UNL     1     -43.644  57.725 -58.568  1.00  0.00     0.050 A 
HETATM    3  C   UNL     1     -43.291  57.718 -57.202  1.00  0.00    -0.004 A 
HETATM    4  C   UNL     1     -42.913  56.522 -56.568  1.00  0.00     0.068 A 
HETATM    5  N   UNL     1     -42.568  56.475 -55.271  1.00  0.00    -0.241 NA
HETATM    6  C   UNL     1     -42.582  57.621 -54.547  1.00  0.00     0.100 A 
HETATM    7  C   UNL     1     -42.920  58.861 -55.084  1.00  0.00    -0.026 A 
HETATM    8  C   UNL     1     -42.951  60.136 -54.295  1.00  0.00     0.051 C 
HETATM    9  C   UNL     1     -43.296  58.889 -56.433  1.00  0.00     0.023 A 
HETATM   10  C   UNL     1     -42.899  55.359 -57.322  1.00  0.00     0.035 A 
HETATM   11  C   UNL     1     -43.243  55.362 -58.678  1.00  0.00     0.039 A 
ENDROOT
BRANCH   6  12
HETATM   12  S   UNL     1     -42.122  57.359 -52.847  1.00  0.00    -0.096 SA
BRANCH  12  13
HETATM   13  C   UNL     1     -43.387  56.135 -52.341  1.00  0.00     0.142 C 
HETATM   14  C   UNL     1     -43.984  56.575 -51.009  1.00  0.00     0.031 C 
BRANCH  13  15
HETATM   15  C   UNL     1     -42.856  54.704 -52.219  1.00  0.00     0.236 C 
HETATM   16  N   UNL     1     -41.742  54.435 -52.993  1.00  0.00    -0.326 N 
HETATM   17  H   UNL     1     -41.573  55.094 -53.749  1.00  0.00     0.169 HD
HETATM   18  O   UNL     1     -43.380  53.934 -51.416  1.00  0.00    -0.272 OA
BRANCH  16  19
HETATM   19  C   UNL     1     -40.977  53.254 -53.024  1.00  0.00     0.034 A 
HETATM   20  C   UNL     1     -40.225  52.783 -51.948  1.00  0.00     0.029 A 
HETATM   21  C   UNL     1     -39.487  51.600 -52.063  1.00  0.00     0.002 A 
HETATM   22  C   UNL     1     -39.492  50.883 -53.257  1.00  0.00     0.000 A 
HETATM   23  C   UNL     1     -40.234  51.347 -54.338  1.00  0.00     0.002 A 
HETATM   24  C   UNL     1     -40.972  52.528 -54.222  1.00  0.00     0.029 A 
ENDBRANCH  16  19
ENDBRANCH  13  15
ENDBRANCH  12  13
ENDBRANCH   6  12
BRANCH   1  25
HETATM   25  O   UNL     1     -43.918  56.418 -60.636  1.00  0.00    -0.351 OA
BRANCH  25  26
HETATM   26  C   UNL     1     -44.932  55.477 -60.986  1.00  0.00     0.171 C 
HETATM   27  C   UNL     1     -46.278  56.087 -60.639  1.00  0.00     0.034 C 
ENDBRANCH  25  26
ENDBRANCH   1  25
TORSDOF 6
ENDMDL
MODEL 2
REMARK VINA RESULT:      -7.5      1.358      1.857
REMARK  6 active torsions:
REMARK  status: ('A' for Active; 'I' for Inactive)
REMARK    1  A    between atoms: C_2  and  O_3 
REMARK    2  A    between atoms: O_3  and  C_4 
REMARK    3  A    between atoms: C_9  and  S_10 
REMARK    4  A    between atoms: S_10  and  C_11 
REMARK    5  A    between atoms: C_11  and  C_12 
REMARK       I    between atoms: C_12  and  N_13 
REMARK    6  A    between atoms: N_13  and  C_14 
ROOT
HETATM    1  C   UNL     1     -43.002  56.210 -57.762  1.00  0.00     0.069 A 
HETATM    2  C   UNL     1     -43.281  57.396 -57.086  1.00  0.00     0.050 A 
HETATM    3  C   UNL     1     -43.505  57.388 -55.694  1.00  0.00    -0.004 A 
HETATM    4  C   UNL     1     -43.460  56.185 -54.969  1.00  0.00     0.068 A 
HETATM    5  N   UNL     1     -43.666  56.137 -53.643  1.00  0.00    -0.241 NA
HETATM    6  C   UNL     1     -43.925  57.290 -52.977  1.00  0.00     0.100 A 
HETATM    7  C   UNL     1     -43.972  58.537 -53.598  1.00  0.00    -0.026 A 
HETATM    8  C   UNL     1     -44.268  59.819 -52.879  1.00  0.00     0.051 C 
HETATM    9  C   UNL     1     -43.773  58.566 -54.983  1.00  0.00     0.023 A 
HETATM   10  C   UNL     1     -43.189  55.015 -55.662  1.00  0.00     0.035 A 
HETATM   11  C   UNL     1     -42.960  55.019 -57.042  1.00  0.00     0.039 A 
ENDROOT
BRANCH   6  12
HETATM   12  S   UNL     1     -44.196  57.027 -51.238  1.00  0.00    -0.096 SA
BRANCH  12  13
HETATM   13  C   UNL     1     -42.575  56.329 -50.747  1.00  0.00     0.142 C 
HETATM   14  C   UNL     1     -41.473  57.241 -51.276  1.00  0.00     0.031 C 
BRANCH  13  15
HETATM   15  C   UNL     1     -42.338  54.898 -51.236  1.00  0.00     0.236 C 
HETATM   16  N   UNL     1     -41.201  54.732 -52.004  1.00  0.00    -0.326 N 
HETATM   17  H   UNL     1     -40.813  55.588 -52.391  1.00  0.00     0.169 HD
HETATM   18  O   UNL     1     -43.099  54.004 -50.869  1.00  0.00    -0.272 OA
BRANCH  16  19
HETATM   19  C   UNL     1     -40.670  53.532 -52.513  1.00  0.00     0.034 A 
HETATM   20  C   UNL     1     -40.865  53.085 -53.820  1.00  0.00     0.029 A 
HETATM   21  C   UNL     1     -40.306  51.875 -54.246  1.00  0.00     0.002 A 
HETATM   22  C   UNL     1     -39.553  51.101 -53.366  1.00  0.00     0.000 A 
HETATM   23  C   UNL     1     -39.358  51.535 -52.059  1.00  0.00     0.002 A 
HETATM   24  C   UNL     1     -39.915  52.744 -51.634  1.00  0.00     0.029 A 
ENDBRANCH  16  19
ENDBRANCH  13  15
ENDBRANCH  12  13
ENDBRANCH   6  12
BRANCH   1  25
HETATM   25  O   UNL     1     -42.752  56.081 -59.099  1.00  0.00    -0.351 OA
BRANCH  25  26
HETATM   26  C   UNL     1     -43.830  56.353 -59.994  1.00  0.00     0.171 C 
HETATM   27  C   UNL     1     -44.521  55.039 -60.310  1.00  0.00     0.034 C 
ENDBRANCH  25  26
ENDBRANCH   1  25
TORSDOF 6
ENDMDL
MODEL 3
REMARK VINA RESULT:      -7.4      1.749      7.335
REMARK  6 active torsions:
REMARK  status: ('A' for Active; 'I' for Inactive)
REMARK    1  A    between atoms: C_2  and  O_3 
REMARK    2  A    between atoms: O_3  and  C_4 
REMARK    3  A    between atoms: C_9  and  S_10 
REMARK    4  A    between atoms: S_10  and  C_11 
REMARK    5  A    between atoms: C_11  and  C_12 
REMARK       I    between atoms: C_12  and  N_13 
REMARK    6  A    between atoms: N_13  and  C_14 
ROOT
HETATM    1  C   UNL     1     -40.417  52.676 -53.220  1.00  0.00     0.069 A 
HETATM    2  C   UNL     1     -41.242  53.429 -52.386  1.00  0.00     0.050 A 
HETATM    3  C   UNL     1     -41.880  54.590 -52.871  1.00  0.00    -0.004 A 
HETATM    4  C   UNL     1     -41.686  55.011 -54.198  1.00  0.00     0.068 A 
HETATM    5  N   UNL     1     -42.276  56.108 -54.697  1.00  0.00    -0.241 NA
HETATM    6  C   UNL     1     -43.090  56.837 -53.894  1.00  0.00     0.100 A 
HETATM    7  C   UNL     1     -43.365  56.496 -52.571  1.00  0.00    -0.026 A 
HETATM    8  C   UNL     1     -44.254  57.296 -51.667  1.00  0.00     0.051 C 
HETATM    9  C   UNL     1     -42.726  55.359 -52.061  1.00  0.00     0.023 A 
HETATM   10  C   UNL     1     -40.854  54.253 -55.008  1.00  0.00     0.035 A 
HETATM   11  C   UNL     1     -40.225  53.097 -54.533  1.00  0.00     0.039 A 
ENDROOT
BRANCH   6  12
HETATM   12  S   UNL     1     -43.759  58.266 -54.718  1.00  0.00    -0.096 SA
BRANCH  12  13
HETATM   13  C   UNL     1     -42.454  58.577 -55.965  1.00  0.00     0.142 C 
HETATM   14  C   UNL     1     -42.090  60.057 -55.927  1.00  0.00     0.031 C 
BRANCH  13  15
HETATM   15  C   UNL     1     -42.846  58.180 -57.390  1.00  0.00     0.236 C 
HETATM   16  N   UNL     1     -43.727  57.118 -57.470  1.00  0.00    -0.326 N 
HETATM   17  H   UNL     1     -43.795  56.548 -56.631  1.00  0.00     0.169 HD
HETATM   18  O   UNL     1     -42.433  58.848 -58.336  1.00  0.00    -0.272 OA
BRANCH  16  19
HETATM   19  C   UNL     1     -44.339  56.588 -58.622  1.00  0.00     0.034 A 
HETATM   20  C   UNL     1     -45.454  57.152 -59.244  1.00  0.00     0.029 A 
HETATM   21  C   UNL     1     -46.004  56.558 -60.385  1.00  0.00     0.002 A 
HETATM   22  C   UNL     1     -45.448  55.395 -60.909  1.00  0.00     0.000 A 
HETATM   23  C   UNL     1     -44.339  54.821 -60.293  1.00  0.00     0.002 A 
HETATM   24  C   UNL     1     -43.789  55.415 -59.154  1.00  0.00     0.029 A 
ENDBRANCH  16  19
ENDBRANCH  13  15
ENDBRANCH  12  13
ENDBRANCH   6  12
BRANCH   1  25
HETATM   25  O   UNL     1     -39.755  51.530 -52.881  1.00  0.00    -0.351 OA
BRANCH  25  26
HETATM   26  C   UNL     1     -39.536  51.288 -51.493  1.00  0.00     0.171 C 
HETATM   27  C   UNL     1     -39.572  49.788 -51.266  1.00  0.00     0.034 C 
ENDBRANCH  25  26
ENDBRANCH   1  25
TORSDOF 6
ENDMDL
MODEL 4
REMARK VINA RESULT:      -7.4      2.199      6.501
REMARK  6 active torsions:
REMARK  status: ('A' for Active; 'I' for Inactive)
REMARK    1  A    between atoms: C_2  and  O_3 
REMARK    2  A    between atoms: O_3  and  C_4 
REMARK    3  A    between atoms: C_9  and  S_10 
REMARK    4  A    between atoms: S_10  and  C_11 
REMARK    5  A    between atoms: C_11  and  C_12 
REMARK       I    between atoms: C_12  and  N_13 
REMARK    6  A    between atoms: N_13  and  C_14 
ROOT
HETATM    1  C   UNL     1     -41.074  53.105 -54.147  1.00  0.00     0.069 A 
HETATM    2  C   UNL     1     -42.045  53.585 -53.269  1.00  0.00     0.050 A 
HETATM    3  C   UNL     1     -42.238  54.973 -53.109  1.00  0.00    -0.004 A 
HETATM    4  C   UNL     1     -41.449  55.892 -53.823  1.00  0.00     0.068 A 
HETATM    5  N   UNL     1     -41.604  57.220 -53.698  1.00  0.00    -0.241 NA
HETATM    6  C   UNL     1     -42.556  57.693 -52.856  1.00  0.00     0.100 A 
HETATM    7  C   UNL     1     -43.403  56.868 -52.118  1.00  0.00    -0.026 A 
HETATM    8  C   UNL     1     -44.452  57.375 -51.174  1.00  0.00     0.051 C 
HETATM    9  C   UNL     1     -43.215  55.487 -52.245  1.00  0.00     0.023 A 
HETATM   10  C   UNL     1     -40.484  55.394 -54.684  1.00  0.00     0.035 A 
HETATM   11  C   UNL     1     -40.293  54.018 -54.851  1.00  0.00     0.039 A 
ENDROOT
BRANCH   6  12
HETATM   12  S   UNL     1     -42.596  59.472 -52.803  1.00  0.00    -0.096 SA
BRANCH  12  13
HETATM   13  C   UNL     1     -43.447  59.836 -54.383  1.00  0.00     0.142 C 
HETATM   14  C   UNL     1     -44.827  59.188 -54.353  1.00  0.00     0.031 C 
BRANCH  13  15
HETATM   15  C   UNL     1     -42.685  59.367 -55.625  1.00  0.00     0.236 C 
HETATM   16  N   UNL     1     -43.348  58.422 -56.385  1.00  0.00    -0.326 N 
HETATM   17  H   UNL     1     -44.109  57.942 -55.911  1.00  0.00     0.169 HD
HETATM   18  O   UNL     1     -41.607  59.891 -55.903  1.00  0.00    -0.272 OA
BRANCH  16  19
HETATM   19  C   UNL     1     -42.951  57.874 -57.619  1.00  0.00     0.034 A 
HETATM   20  C   UNL     1     -42.379  58.614 -58.655  1.00  0.00     0.029 A 
HETATM   21  C   UNL     1     -42.017  57.992 -59.854  1.00  0.00     0.002 A 
HETATM   22  C   UNL     1     -42.229  56.627 -60.029  1.00  0.00     0.000 A 
HETATM   23  C   UNL     1     -42.804  55.881 -59.005  1.00  0.00     0.002 A 
HETATM   24  C   UNL     1     -43.164  56.502 -57.807  1.00  0.00     0.029 A 
ENDBRANCH  16  19
ENDBRANCH  13  15
ENDBRANCH  12  13
ENDBRANCH   6  12
BRANCH   1  25
HETATM   25  O   UNL     1     -40.796  51.792 -54.405  1.00  0.00    -0.351 OA
BRANCH  25  26
HETATM   26  C   UNL     1     -39.635  51.238 -53.789  1.00  0.00     0.171 C 
HETATM   27  C   UNL     1     -39.509  49.793 -54.239  1.00  0.00     0.034 C 
ENDBRANCH  25  26
ENDBRANCH   1  25
TORSDOF 6
ENDMDL
MODEL 5
REMARK VINA RESULT:      -7.2      4.724      6.904
REMARK  6 active torsions:
REMARK  status: ('A' for Active; 'I' for Inactive)
REMARK    1  A    between atoms: C_2  and  O_3 
REMARK    2  A    between atoms: O_3  and  C_4 
REMARK    3  A    between atoms: C_9  and  S_10 
REMARK    4  A    between atoms: S_10  and  C_11 
REMARK    5  A    between atoms: C_11  and  C_12 
REMARK       I    between atoms: C_12  and  N_13 
REMARK    6  A    between atoms: N_13  and  C_14 
ROOT
HETATM    1  C   UNL     1     -44.954  61.935 -49.709  1.00  0.00     0.069 A 
HETATM    2  C   UNL     1     -43.569  61.773 -49.690  1.00  0.00     0.050 A 
HETATM    3  C   UNL     1     -42.968  60.690 -50.365  1.00  0.00    -0.004 A 
HETATM    4  C   UNL     1     -43.755  59.753 -51.057  1.00  0.00     0.068 A 
HETATM    5  N   UNL     1     -43.220  58.711 -51.713  1.00  0.00    -0.241 NA
HETATM    6  C   UNL     1     -41.873  58.555 -51.709  1.00  0.00     0.100 A 
HETATM    7  C   UNL     1     -41.003  59.438 -51.072  1.00  0.00    -0.026 A 
HETATM    8  C   UNL     1     -39.513  59.275 -51.049  1.00  0.00     0.051 C 
HETATM    9  C   UNL     1     -41.579  60.509 -50.377  1.00  0.00     0.023 A 
HETATM   10  C   UNL     1     -45.130  59.928 -51.056  1.00  0.00     0.035 A 
HETATM   11  C   UNL     1     -45.730  61.004 -50.393  1.00  0.00     0.039 A 
ENDROOT
BRANCH   6  12
HETATM   12  S   UNL     1     -41.351  57.108 -52.605  1.00  0.00    -0.096 SA
BRANCH  12  13
HETATM   13  C   UNL     1     -41.809  55.793 -51.415  1.00  0.00     0.142 C 
HETATM   14  C   UNL     1     -40.825  55.827 -50.251  1.00  0.00     0.031 C 
BRANCH  13  15
HETATM   15  C   UNL     1     -41.841  54.388 -52.021  1.00  0.00     0.236 C 
HETATM   16  N   UNL     1     -40.598  53.826 -52.239  1.00  0.00    -0.326 N 
HETATM   17  H   UNL     1     -39.822  54.483 -52.248  1.00  0.00     0.169 HD
HETATM   18  O   UNL     1     -42.926  53.834 -52.199  1.00  0.00    -0.272 OA
BRANCH  16  19
HETATM   19  C   UNL     1     -40.305  52.525 -52.692  1.00  0.00     0.034 A 
HETATM   20  C   UNL     1     -40.473  52.101 -54.010  1.00  0.00     0.029 A 
HETATM   21  C   UNL     1     -40.163  50.788 -54.377  1.00  0.00     0.002 A 
HETATM   22  C   UNL     1     -39.688  49.887 -53.427  1.00  0.00     0.000 A 
HETATM   23  C   UNL     1     -39.522  50.298 -52.108  1.00  0.00     0.002 A 
HETATM   24  C   UNL     1     -39.831  51.611 -51.742  1.00  0.00     0.029 A 
ENDBRANCH  16  19
ENDBRANCH  13  15
ENDBRANCH  12  13
ENDBRANCH   6  12
BRANCH   1  25
HETATM   25  O   UNL     1     -45.658  62.942 -49.112  1.00  0.00    -0.351 OA
BRANCH  25  26
HETATM   26  C   UNL     1     -47.081  62.881 -49.192  1.00  0.00     0.171 C 
HETATM   27  C   UNL     1     -47.634  62.956 -47.780  1.00  0.00     0.034 C 
ENDBRANCH  25  26
ENDBRANCH   1  25
TORSDOF 6
ENDMDL
MODEL 6
REMARK VINA RESULT:      -7.1      1.981      8.091
REMARK  6 active torsions:
REMARK  status: ('A' for Active; 'I' for Inactive)
REMARK    1  A    between atoms: C_2  and  O_3 
REMARK    2  A    between atoms: O_3  and  C_4 
REMARK    3  A    between atoms: C_9  and  S_10 
REMARK    4  A    between atoms: S_10  and  C_11 
REMARK    5  A    between atoms: C_11  and  C_12 
REMARK       I    between atoms: C_12  and  N_13 
REMARK    6  A    between atoms: N_13  and  C_14 
ROOT
HETATM    1  C   UNL     1     -39.866  52.182 -52.692  1.00  0.00     0.069 A 
HETATM    2  C   UNL     1     -40.606  53.064 -51.907  1.00  0.00     0.050 A 
HETATM    3  C   UNL     1     -41.467  54.006 -52.509  1.00  0.00    -0.004 A 
HETATM    4  C   UNL     1     -41.584  54.075 -53.908  1.00  0.00     0.068 A 
HETATM    5  N   UNL     1     -42.393  54.956 -54.518  1.00  0.00    -0.241 NA
HETATM    6  C   UNL     1     -43.126  55.808 -53.759  1.00  0.00     0.100 A 
HETATM    7  C   UNL     1     -43.099  55.807 -52.366  1.00  0.00    -0.026 A 
HETATM    8  C   UNL     1     -43.893  56.750 -51.512  1.00  0.00     0.051 C 
HETATM    9  C   UNL     1     -42.235  54.896 -51.746  1.00  0.00     0.023 A 
HETATM   10  C   UNL     1     -40.832  53.195 -54.670  1.00  0.00     0.035 A 
HETATM   11  C   UNL     1     -39.982  52.255 -54.077  1.00  0.00     0.039 A 
ENDROOT
BRANCH   6  12
HETATM   12  S   UNL     1     -44.116  56.915 -54.740  1.00  0.00    -0.096 SA
BRANCH  12  13
HETATM   13  C   UNL     1     -42.955  57.281 -56.109  1.00  0.00     0.142 C 
HETATM   14  C   UNL     1     -42.429  58.701 -55.934  1.00  0.00     0.031 C 
BRANCH  13  15
HETATM   15  C   UNL     1     -43.569  57.127 -57.503  1.00  0.00     0.236 C 
HETATM   16  N   UNL     1     -44.918  57.420 -57.574  1.00  0.00    -0.326 N 
HETATM   17  H   UNL     1     -45.407  57.423 -56.683  1.00  0.00     0.169 HD
HETATM   18  O   UNL     1     -42.841  56.841 -58.452  1.00  0.00    -0.272 OA
BRANCH  16  19
HETATM   19  C   UNL     1     -45.732  57.463 -58.722  1.00  0.00     0.034 A 
HETATM   20  C   UNL     1     -45.978  56.365 -59.546  1.00  0.00     0.029 A 
HETATM   21  C   UNL     1     -46.798  56.493 -60.673  1.00  0.00     0.002 A 
HETATM   22  C   UNL     1     -47.373  57.722 -60.985  1.00  0.00     0.000 A 
HETATM   23  C   UNL     1     -47.130  58.826 -60.172  1.00  0.00     0.002 A 
HETATM   24  C   UNL     1     -46.312  58.696 -59.047  1.00  0.00     0.029 A 
ENDBRANCH  16  19
ENDBRANCH  13  15
ENDBRANCH  12  13
ENDBRANCH   6  12
BRANCH   1  25
HETATM   25  O   UNL     1     -39.011  51.218 -52.237  1.00  0.00    -0.351 OA
BRANCH  25  26
HETATM   26  C   UNL     1     -39.547  49.910 -52.042  1.00  0.00     0.171 C 
HETATM   27  C   UNL     1     -39.878  49.754 -50.568  1.00  0.00     0.034 C 
ENDBRANCH  25  26
ENDBRANCH   1  25
TORSDOF 6
ENDMDL
MODEL 7
REMARK VINA RESULT:      -7.0      4.073      6.517
REMARK  6 active torsions:
REMARK  status: ('A' for Active; 'I' for Inactive)
REMARK    1  A    between atoms: C_2  and  O_3 
REMARK    2  A    between atoms: O_3  and  C_4 
REMARK    3  A    between atoms: C_9  and  S_10 
REMARK    4  A    between atoms: S_10  and  C_11 
REMARK    5  A    between atoms: C_11  and  C_12 
REMARK       I    between atoms: C_12  and  N_13 
REMARK    6  A    between atoms: N_13  and  C_14 
ROOT
HETATM    1  C   UNL     1     -42.504  54.251 -52.391  1.00  0.00     0.069 A 
HETATM    2  C   UNL     1     -42.877  55.268 -53.267  1.00  0.00     0.050 A 
HETATM    3  C   UNL     1     -43.640  56.362 -52.808  1.00  0.00    -0.004 A 
HETATM    4  C   UNL     1     -44.043  56.438 -51.463  1.00  0.00     0.068 A 
HETATM    5  N   UNL     1     -44.768  57.464 -50.988  1.00  0.00    -0.241 NA
HETATM    6  C   UNL     1     -45.123  58.463 -51.833  1.00  0.00     0.100 A 
HETATM    7  C   UNL     1     -44.757  58.494 -53.177  1.00  0.00    -0.026 A 
HETATM    8  C   UNL     1     -45.150  59.585 -54.128  1.00  0.00     0.051 C 
HETATM    9  C   UNL     1     -44.018  57.407 -53.661  1.00  0.00     0.023 A 
HETATM   10  C   UNL     1     -43.669  55.412 -50.610  1.00  0.00     0.035 A 
HETATM   11  C   UNL     1     -42.907  54.328 -51.060  1.00  0.00     0.039 A 
ENDROOT
BRANCH   6  12
HETATM   12  S   UNL     1     -46.099  59.718 -51.033  1.00  0.00    -0.096 SA
BRANCH  12  13
HETATM   13  C   UNL     1     -44.823  60.531 -50.001  1.00  0.00     0.142 C 
HETATM   14  C   UNL     1     -45.326  61.915 -49.608  1.00  0.00     0.031 C 
BRANCH  13  15
HETATM   15  C   UNL     1     -43.457  60.653 -50.681  1.00  0.00     0.236 C 
HETATM   16  N   UNL     1     -42.548  59.674 -50.328  1.00  0.00    -0.326 N 
HETATM   17  H   UNL     1     -42.768  59.167 -49.475  1.00  0.00     0.169 HD
HETATM   18  O   UNL     1     -43.281  61.532 -51.524  1.00  0.00    -0.272 OA
BRANCH  16  19
HETATM   19  C   UNL     1     -41.257  59.466 -50.850  1.00  0.00     0.034 A 
HETATM   20  C   UNL     1     -40.080  59.687 -50.134  1.00  0.00     0.029 A 
HETATM   21  C   UNL     1     -38.835  59.460 -50.729  1.00  0.00     0.002 A 
HETATM   22  C   UNL     1     -38.757  59.015 -52.046  1.00  0.00     0.000 A 
HETATM   23  C   UNL     1     -39.925  58.796 -52.771  1.00  0.00     0.002 A 
HETATM   24  C   UNL     1     -41.168  59.022 -52.176  1.00  0.00     0.029 A 
ENDBRANCH  16  19
ENDBRANCH  13  15
ENDBRANCH  12  13
ENDBRANCH   6  12
BRANCH   1  25
HETATM   25  O   UNL     1     -41.758  53.149 -52.702  1.00  0.00    -0.351 OA
BRANCH  25  26
HETATM   26  C   UNL     1     -40.453  53.373 -53.232  1.00  0.00     0.171 C 
HETATM   27  C   UNL     1     -40.186  52.312 -54.285  1.00  0.00     0.034 C 
ENDBRANCH  25  26
ENDBRANCH   1  25
TORSDOF 6
ENDMDL
MODEL 8
REMARK VINA RESULT:      -7.0      2.692      6.612
REMARK  6 active torsions:
REMARK  status: ('A' for Active; 'I' for Inactive)
REMARK    1  A    between atoms: C_2  and  O_3 
REMARK    2  A    between atoms: O_3  and  C_4 
REMARK    3  A    between atoms: C_9  and  S_10 
REMARK    4  A    between atoms: S_10  and  C_11 
REMARK    5  A    between atoms: C_11  and  C_12 
REMARK       I    between atoms: C_12  and  N_13 
REMARK    6  A    between atoms: N_13  and  C_14 
ROOT
HETATM    1  C   UNL     1     -41.444  53.070 -53.966  1.00  0.00     0.069 A 
HETATM    2  C   UNL     1     -40.912  53.837 -52.931  1.00  0.00     0.050 A 
HETATM    3  C   UNL     1     -41.512  55.061 -52.568  1.00  0.00    -0.004 A 
HETATM    4  C   UNL     1     -42.648  55.530 -53.249  1.00  0.00     0.068 A 
HETATM    5  N   UNL     1     -43.249  56.688 -52.932  1.00  0.00    -0.241 NA
HETATM    6  C   UNL     1     -42.744  57.432 -51.917  1.00  0.00     0.100 A 
HETATM    7  C   UNL     1     -41.635  57.048 -51.165  1.00  0.00    -0.026 A 
HETATM    8  C   UNL     1     -41.057  57.863 -50.048  1.00  0.00     0.051 C 
HETATM    9  C   UNL     1     -41.010  55.847 -51.522  1.00  0.00     0.023 A 
HETATM   10  C   UNL     1     -43.156  54.757 -54.282  1.00  0.00     0.035 A 
HETATM   11  C   UNL     1     -42.568  53.539 -54.641  1.00  0.00     0.039 A 
ENDROOT
BRANCH   6  12
HETATM   12  S   UNL     1     -43.652  58.941 -51.660  1.00  0.00    -0.096 SA
BRANCH  12  13
HETATM   13  C   UNL     1     -42.545  60.145 -52.485  1.00  0.00     0.142 C 
HETATM   14  C   UNL     1     -43.335  61.420 -52.762  1.00  0.00     0.031 C 
BRANCH  13  15
HETATM   15  C   UNL     1     -41.925  59.631 -53.787  1.00  0.00     0.236 C 
HETATM   16  N   UNL     1     -42.832  59.388 -54.801  1.00  0.00    -0.326 N 
HETATM   17  H   UNL     1     -43.800  59.300 -54.503  1.00  0.00     0.169 HD
HETATM   18  O   UNL     1     -40.701  59.541 -53.875  1.00  0.00    -0.272 OA
BRANCH  16  19
HETATM   19  C   UNL     1     -42.561  59.004 -56.128  1.00  0.00     0.034 A 
HETATM   20  C   UNL     1     -42.727  57.707 -56.615  1.00  0.00     0.029 A 
HETATM   21  C   UNL     1     -42.429  57.408 -57.949  1.00  0.00     0.002 A 
HETATM   22  C   UNL     1     -41.959  58.402 -58.803  1.00  0.00     0.000 A 
HETATM   23  C   UNL     1     -41.785  59.698 -58.326  1.00  0.00     0.002 A 
HETATM   24  C   UNL     1     -42.083  59.996 -56.994  1.00  0.00     0.029 A 
ENDBRANCH  16  19
ENDBRANCH  13  15
ENDBRANCH  12  13
ENDBRANCH   6  12
BRANCH   1  25
HETATM   25  O   UNL     1     -40.970  51.867 -54.406  1.00  0.00    -0.351 OA
BRANCH  25  26
HETATM   26  C   UNL     1     -39.679  51.467 -53.951  1.00  0.00     0.171 C 
HETATM   27  C   UNL     1     -39.808  50.095 -53.316  1.00  0.00     0.034 C 
ENDBRANCH  25  26
ENDBRANCH   1  25
TORSDOF 6
ENDMDL
MODEL 9
REMARK VINA RESULT:      -6.9      2.487      7.872
REMARK  6 active torsions:
REMARK  status: ('A' for Active; 'I' for Inactive)
REMARK    1  A    between atoms: C_2  and  O_3 
REMARK    2  A    between atoms: O_3  and  C_4 
REMARK    3  A    between atoms: C_9  and  S_10 
REMARK    4  A    between atoms: S_10  and  C_11 
REMARK    5  A    between atoms: C_11  and  C_12 
REMARK       I    between atoms: C_12  and  N_13 
REMARK    6  A    between atoms: N_13  and  C_14 
ROOT
HETATM    1  C   UNL     1     -40.226  52.726 -52.216  1.00  0.00     0.069 A 
HETATM    2  C   UNL     1     -40.532  52.949 -53.558  1.00  0.00     0.050 A 
HETATM    3  C   UNL     1     -41.464  53.943 -53.922  1.00  0.00    -0.004 A 
HETATM    4  C   UNL     1     -42.106  54.716 -52.939  1.00  0.00     0.068 A 
HETATM    5  N   UNL     1     -42.997  55.672 -53.246  1.00  0.00    -0.241 NA
HETATM    6  C   UNL     1     -43.289  55.902 -54.550  1.00  0.00     0.100 A 
HETATM    7  C   UNL     1     -42.694  55.207 -55.601  1.00  0.00    -0.026 A 
HETATM    8  C   UNL     1     -43.013  55.441 -57.047  1.00  0.00     0.051 C 
HETATM    9  C   UNL     1     -41.781  54.201 -55.262  1.00  0.00     0.023 A 
HETATM   10  C   UNL     1     -41.794  54.472 -51.610  1.00  0.00     0.035 A 
HETATM   11  C   UNL     1     -40.866  53.492 -51.245  1.00  0.00     0.039 A 
ENDROOT
BRANCH   6  12
HETATM   12  S   UNL     1     -44.507  57.183 -54.760  1.00  0.00    -0.096 SA
BRANCH  12  13
HETATM   13  C   UNL     1     -43.463  58.675 -54.561  1.00  0.00     0.142 C 
HETATM   14  C   UNL     1     -44.348  59.828 -54.100  1.00  0.00     0.031 C 
BRANCH  13  15
HETATM   15  C   UNL     1     -42.708  59.082 -55.829  1.00  0.00     0.236 C 
HETATM   16  N   UNL     1     -43.439  58.968 -56.996  1.00  0.00    -0.326 N 
HETATM   17  H   UNL     1     -44.265  58.378 -56.933  1.00  0.00     0.169 HD
HETATM   18  O   UNL     1     -41.570  59.539 -55.731  1.00  0.00    -0.272 OA
BRANCH  16  19
HETATM   19  C   UNL     1     -43.056  59.351 -58.296  1.00  0.00     0.034 A 
HETATM   20  C   UNL     1     -43.258  60.625 -58.826  1.00  0.00     0.029 A 
HETATM   21  C   UNL     1     -42.851  60.922 -60.131  1.00  0.00     0.002 A 
HETATM   22  C   UNL     1     -42.244  59.946 -60.917  1.00  0.00     0.000 A 
HETATM   23  C   UNL     1     -42.042  58.670 -60.399  1.00  0.00     0.002 A 
HETATM   24  C   UNL     1     -42.448  58.374 -59.096  1.00  0.00     0.029 A 
ENDBRANCH  16  19
ENDBRANCH  13  15
ENDBRANCH  12  13
ENDBRANCH   6  12
BRANCH   1  25
HETATM   25  O   UNL     1     -39.336  51.810 -51.731  1.00  0.00    -0.351 OA
BRANCH  25  26
HETATM   26  C   UNL     1     -39.543  50.445 -52.091  1.00  0.00     0.171 C 
HETATM   27  C   UNL     1     -39.685  49.639 -50.812  1.00  0.00     0.034 C 
ENDBRANCH  25  26
ENDBRANCH   1  25
TORSDOF 6
ENDMDL
MODEL 10
REMARK VINA RESULT:      -6.9      1.786      2.145
REMARK  6 active torsions:
REMARK  status: ('A' for Active; 'I' for Inactive)
REMARK    1  A    between atoms: C_2  and  O_3 
REMARK    2  A    between atoms: O_3  and  C_4 
REMARK    3  A    between atoms: C_9  and  S_10 
REMARK    4  A    between atoms: S_10  and  C_11 
REMARK    5  A    between atoms: C_11  and  C_12 
REMARK       I    between atoms: C_12  and  N_13 
REMARK    6  A    between atoms: N_13  and  C_14 
ROOT
HETATM    1  C   UNL     1     -44.346  57.471 -58.833  1.00  0.00     0.069 A 
HETATM    2  C   UNL     1     -45.074  57.987 -57.762  1.00  0.00     0.050 A 
HETATM    3  C   UNL     1     -44.413  58.438 -56.601  1.00  0.00    -0.004 A 
HETATM    4  C   UNL     1     -43.013  58.366 -56.502  1.00  0.00     0.068 A 
HETATM    5  N   UNL     1     -42.348  58.788 -55.414  1.00  0.00    -0.241 NA
HETATM    6  C   UNL     1     -43.050  59.302 -54.374  1.00  0.00     0.100 A 
HETATM    7  C   UNL     1     -44.437  59.437 -54.380  1.00  0.00    -0.026 A 
HETATM    8  C   UNL     1     -45.230  59.993 -53.235  1.00  0.00     0.051 C 
HETATM    9  C   UNL     1     -45.116  58.975 -55.514  1.00  0.00     0.023 A 
HETATM   10  C   UNL     1     -42.308  57.842 -57.574  1.00  0.00     0.035 A 
HETATM   11  C   UNL     1     -42.959  57.399 -58.730  1.00  0.00     0.039 A 
ENDROOT
BRANCH   6  12
HETATM   12  S   UNL     1     -42.005  59.781 -53.016  1.00  0.00    -0.096 SA
BRANCH  12  13
HETATM   13  C   UNL     1     -42.394  58.459 -51.809  1.00  0.00     0.142 C 
HETATM   14  C   UNL     1     -41.362  58.506 -50.687  1.00  0.00     0.031 C 
BRANCH  13  15
HETATM   15  C   UNL     1     -42.431  57.054 -52.416  1.00  0.00     0.236 C 
HETATM   16  N   UNL     1     -41.201  56.565 -52.815  1.00  0.00    -0.326 N 
HETATM   17  H   UNL     1     -40.474  57.267 -52.930  1.00  0.00     0.169 HD
HETATM   18  O   UNL     1     -43.495  56.437 -52.440  1.00  0.00    -0.272 OA
BRANCH  16  19
HETATM   19  C   UNL     1     -40.902  55.284 -53.314  1.00  0.00     0.034 A 
HETATM   20  C   UNL     1     -40.892  54.125 -52.537  1.00  0.00     0.029 A 
HETATM   21  C   UNL     1     -40.579  52.889 -53.112  1.00  0.00     0.002 A 
HETATM   22  C   UNL     1     -40.267  52.803 -54.466  1.00  0.00     0.000 A 
HETATM   23  C   UNL     1     -40.268  53.954 -55.249  1.00  0.00     0.002 A 
HETATM   24  C   UNL     1     -40.582  55.188 -54.675  1.00  0.00     0.029 A 
ENDBRANCH  16  19
ENDBRANCH  13  15
ENDBRANCH  12  13
ENDBRANCH   6  12
BRANCH   1  25
HETATM   25  O   UNL     1     -44.859  57.015 -60.015  1.00  0.00    -0.351 OA
BRANCH  25  26
HETATM   26  C   UNL     1     -45.690  55.857 -59.962  1.00  0.00     0.171 C 
HETATM   27  C   UNL     1     -47.025  56.208 -60.594  1.00  0.00     0.034 C 
ENDBRANCH  25  26
ENDBRANCH   1  25
TORSDOF 6
ENDMDL
