MODEL 1
REMARK VINA RESULT:      -9.5      0.000      0.000
REMARK  7 active torsions:
REMARK  status: ('A' for Active; 'I' for Inactive)
REMARK    1  A    between atoms: C_2  and  C_3 
REMARK    2  A    between atoms: C_7  and  N_8 
REMARK    3  A    between atoms: C_10  and  C_11 
REMARK    4  A    between atoms: C_17  and  N_18 
REMARK       I    between atoms: N_18  and  C_19 
REMARK    5  A    between atoms: C_19  and  C_20 
REMARK    6  A    between atoms: C_20  and  O_21 
REMARK    7  A    between atoms: O_21  and  C_22 
ROOT
HETATM    1  N   UNL     1     -42.484  58.097 -55.917  1.00  0.00    -0.044 N 
HETATM    2  N   UNL     1     -42.193  59.219 -56.643  1.00  0.00    -0.148 NA
HETATM    3  C   UNL     1     -42.663  58.954 -57.866  1.00  0.00     0.115 A 
HETATM    4  C   UNL     1     -43.269  57.685 -57.942  1.00  0.00     0.087 A 
HETATM    5  C   UNL     1     -43.093  57.122 -56.700  1.00  0.00     0.152 A 
ENDROOT
BRANCH   5   6
HETATM    6  N   UNL     1     -43.605  55.876 -56.372  1.00  0.00    -0.309 N 
HETATM    7  C   UNL     1     -42.919  54.830 -55.670  1.00  0.00     0.247 C 
HETATM    8  O   UNL     1     -43.645  53.981 -55.171  1.00  0.00    -0.271 OA
HETATM    9  H   UNL     1     -44.539  55.631 -56.681  1.00  0.00     0.170 HD
BRANCH   7  10
HETATM   10  C   UNL     1     -41.409  54.711 -55.754  1.00  0.00     0.278 C 
BRANCH  10  11
HETATM   11  O   UNL     1     -40.882  55.185 -54.516  1.00  0.00    -0.342 OA
BRANCH  11  12
HETATM   12  C   UNL     1     -40.652  54.247 -53.547  1.00  0.00     0.070 A 
HETATM   13  C   UNL     1     -40.333  52.974 -54.026  1.00  0.00     0.049 A 
HETATM   14  C   UNL     1     -40.072  51.908 -53.147  1.00  0.00    -0.023 A 
HETATM   15  C   UNL     1     -40.130  52.135 -51.755  1.00  0.00    -0.026 A 
HETATM   16  C   UNL     1     -39.757  50.623 -53.620  1.00  0.00     0.012 A 
HETATM   17  C   UNL     1     -40.446  53.417 -51.284  1.00  0.00     0.015 A 
HETATM   18  C   UNL     1     -39.871  51.073 -50.873  1.00  0.00     0.012 A 
HETATM   19  C   UNL     1     -40.704  54.467 -52.171  1.00  0.00     0.037 A 
HETATM   20  C   UNL     1     -39.558  49.803 -51.358  1.00  0.00     0.001 A 
HETATM   21  C   UNL     1     -39.501  49.578 -52.731  1.00  0.00     0.001 A 
ENDBRANCH  11  12
ENDBRANCH  10  11
ENDBRANCH   7  10
ENDBRANCH   5   6
BRANCH   1  22
HETATM   22  C   UNL     1     -42.238  58.111 -54.531  1.00  0.00     0.732 A 
HETATM   23  N   UNL     1     -40.969  58.522 -54.248  1.00  0.00    -0.152 N 
HETATM   24  C   UNL     1     -40.536  58.671 -52.971  1.00  0.00     0.268 A 
HETATM   25  H   UNL     1     -40.349  58.808 -55.000  1.00  0.00     0.188 HD
HETATM   26  C   UNL     1     -41.496  58.234 -51.918  1.00  0.00     0.035 A 
HETATM   27  O   UNL     1     -39.433  59.134 -52.713  1.00  0.00    -0.267 OA
HETATM   28  C   UNL     1     -42.715  57.814 -52.324  1.00  0.00     0.061 A 
HETATM   29  N   UNL     1     -43.117  57.774 -53.646  1.00  0.00    -0.067 NA
HETATM   30  C   UNL     1     -43.783  57.345 -51.367  1.00  0.00     0.072 C 
BRANCH  26  31
HETATM   31  C   UNL     1     -40.974  58.268 -50.504  1.00  0.00     0.042 C 
HETATM   32  C   UNL     1     -41.144  59.637 -49.862  1.00  0.00     0.010 C 
ENDBRANCH  26  31
ENDBRANCH   1  22
BRANCH   3  33
HETATM   33  C   UNL     1     -42.544  59.912 -59.002  1.00  0.00     0.105 A 
HETATM   34  O   UNL     1     -42.889  61.234 -58.931  1.00  0.00    -0.320 OA
HETATM   35  C   UNL     1     -42.669  61.774 -60.157  1.00  0.00     0.142 A 
HETATM   36  C   UNL     1     -42.167  60.827 -61.017  1.00  0.00     0.027 A 
HETATM   37  C   UNL     1     -42.089  59.625 -60.275  1.00  0.00     0.041 A 
ENDBRANCH   3  33
TORSDOF 7
ENDMDL
MODEL 2
REMARK VINA RESULT:      -9.3      2.537      3.678
REMARK  7 active torsions:
REMARK  status: ('A' for Active; 'I' for Inactive)
REMARK    1  A    between atoms: C_2  and  C_3 
REMARK    2  A    between atoms: C_7  and  N_8 
REMARK    3  A    between atoms: C_10  and  C_11 
REMARK    4  A    between atoms: C_17  and  N_18 
REMARK       I    between atoms: N_18  and  C_19 
REMARK    5  A    between atoms: C_19  and  C_20 
REMARK    6  A    between atoms: C_20  and  O_21 
REMARK    7  A    between atoms: O_21  and  C_22 
ROOT
HETATM    1  N   UNL     1     -43.567  57.500 -53.539  1.00  0.00    -0.044 N 
HETATM    2  N   UNL     1     -43.316  57.999 -54.787  1.00  0.00    -0.148 NA
HETATM    3  C   UNL     1     -43.212  56.916 -55.564  1.00  0.00     0.115 A 
HETATM    4  C   UNL     1     -43.408  55.722 -54.843  1.00  0.00     0.087 A 
HETATM    5  C   UNL     1     -43.575  56.109 -53.534  1.00  0.00     0.152 A 
ENDROOT
BRANCH   5   6
HETATM    6  N   UNL     1     -43.844  55.201 -52.523  1.00  0.00    -0.309 N 
HETATM    7  C   UNL     1     -43.322  55.234 -51.186  1.00  0.00     0.247 C 
HETATM    8  O   UNL     1     -43.953  54.577 -50.369  1.00  0.00    -0.271 OA
HETATM    9  H   UNL     1     -44.429  54.398 -52.723  1.00  0.00     0.170 HD
BRANCH   7  10
HETATM   10  C   UNL     1     -41.973  55.868 -50.904  1.00  0.00     0.278 C 
BRANCH  10  11
HETATM   11  O   UNL     1     -41.075  55.407 -51.911  1.00  0.00    -0.342 OA
BRANCH  11  12
HETATM   12  C   UNL     1     -40.683  54.098 -51.832  1.00  0.00     0.070 A 
HETATM   13  C   UNL     1     -40.624  53.428 -53.058  1.00  0.00     0.049 A 
HETATM   14  C   UNL     1     -40.239  52.078 -53.133  1.00  0.00    -0.023 A 
HETATM   15  C   UNL     1     -39.901  51.393 -51.946  1.00  0.00    -0.026 A 
HETATM   16  C   UNL     1     -40.184  51.395 -54.359  1.00  0.00     0.012 A 
HETATM   17  C   UNL     1     -39.957  52.075 -50.722  1.00  0.00     0.015 A 
HETATM   18  C   UNL     1     -39.515  50.043 -52.016  1.00  0.00     0.012 A 
HETATM   19  C   UNL     1     -40.343  53.419 -50.664  1.00  0.00     0.037 A 
HETATM   20  C   UNL     1     -39.464  49.379 -53.241  1.00  0.00     0.001 A 
HETATM   21  C   UNL     1     -39.799  50.054 -54.412  1.00  0.00     0.001 A 
ENDBRANCH  11  12
ENDBRANCH  10  11
ENDBRANCH   7  10
ENDBRANCH   5   6
BRANCH   1  22
HETATM   22  C   UNL     1     -43.869  58.402 -52.502  1.00  0.00     0.732 A 
HETATM   23  N   UNL     1     -45.119  58.193 -51.999  1.00  0.00    -0.152 N 
HETATM   24  C   UNL     1     -45.593  58.909 -50.948  1.00  0.00     0.268 A 
HETATM   25  H   UNL     1     -45.686  57.429 -52.353  1.00  0.00     0.188 HD
HETATM   26  C   UNL     1     -44.709  60.012 -50.478  1.00  0.00     0.035 A 
HETATM   27  O   UNL     1     -46.673  58.656 -50.431  1.00  0.00    -0.267 OA
HETATM   28  C   UNL     1     -43.505  60.142 -51.078  1.00  0.00     0.061 A 
HETATM   29  N   UNL     1     -43.052  59.313 -52.088  1.00  0.00    -0.067 NA
HETATM   30  C   UNL     1     -42.511  61.213 -50.702  1.00  0.00     0.072 C 
BRANCH  26  31
HETATM   31  C   UNL     1     -45.286  60.897 -49.403  1.00  0.00     0.042 C 
HETATM   32  C   UNL     1     -46.081  62.058 -49.981  1.00  0.00     0.010 C 
ENDBRANCH  26  31
ENDBRANCH   1  22
BRANCH   3  33
HETATM   33  C   UNL     1     -42.921  56.994 -57.024  1.00  0.00     0.105 A 
HETATM   34  O   UNL     1     -43.144  55.974 -57.907  1.00  0.00    -0.320 OA
HETATM   35  C   UNL     1     -42.735  56.402 -59.129  1.00  0.00     0.142 A 
HETATM   36  C   UNL     1     -42.268  57.692 -59.056  1.00  0.00     0.027 A 
HETATM   37  C   UNL     1     -42.385  58.075 -57.697  1.00  0.00     0.041 A 
ENDBRANCH   3  33
TORSDOF 7
ENDMDL
MODEL 3
REMARK VINA RESULT:      -9.2      2.377      5.333
REMARK  7 active torsions:
REMARK  status: ('A' for Active; 'I' for Inactive)
REMARK    1  A    between atoms: C_2  and  C_3 
REMARK    2  A    between atoms: C_7  and  N_8 
REMARK    3  A    between atoms: C_10  and  C_11 
REMARK    4  A    between atoms: C_17  and  N_18 
REMARK       I    between atoms: N_18  and  C_19 
REMARK    5  A    between atoms: C_19  and  C_20 
REMARK    6  A    between atoms: C_20  and  O_21 
REMARK    7  A    between atoms: O_21  and  C_22 
ROOT
HETATM    1  N   UNL     1     -43.820  58.440 -53.479  1.00  0.00    -0.044 N 
HETATM    2  N   UNL     1     -43.628  59.794 -53.444  1.00  0.00    -0.148 NA
HETATM    3  C   UNL     1     -43.817  60.123 -52.162  1.00  0.00     0.115 A 
HETATM    4  C   UNL     1     -44.112  59.002 -51.362  1.00  0.00     0.087 A 
HETATM    5  C   UNL     1     -44.170  57.938 -52.230  1.00  0.00     0.152 A 
ENDROOT
BRANCH   5   6
HETATM    6  N   UNL     1     -44.393  56.640 -51.798  1.00  0.00    -0.309 N 
HETATM    7  C   UNL     1     -43.581  55.897 -50.877  1.00  0.00     0.247 C 
HETATM    8  O   UNL     1     -44.136  54.938 -50.358  1.00  0.00    -0.271 OA
HETATM    9  H   UNL     1     -45.174  56.120 -52.181  1.00  0.00     0.170 HD
BRANCH   7  10
HETATM   10  C   UNL     1     -42.096  56.185 -50.758  1.00  0.00     0.278 C 
BRANCH  10  11
HETATM   11  O   UNL     1     -41.476  55.686 -51.941  1.00  0.00    -0.342 OA
BRANCH  11  12
HETATM   12  C   UNL     1     -40.960  54.420 -51.877  1.00  0.00     0.070 A 
HETATM   13  C   UNL     1     -40.990  53.713 -53.083  1.00  0.00     0.049 A 
HETATM   14  C   UNL     1     -40.495  52.400 -53.169  1.00  0.00    -0.023 A 
HETATM   15  C   UNL     1     -39.956  51.791 -52.016  1.00  0.00    -0.026 A 
HETATM   16  C   UNL     1     -40.527  51.679 -54.375  1.00  0.00     0.012 A 
HETATM   17  C   UNL     1     -39.926  52.511 -50.813  1.00  0.00     0.015 A 
HETATM   18  C   UNL     1     -39.460  50.479 -52.098  1.00  0.00     0.012 A 
HETATM   19  C   UNL     1     -40.422  53.816 -50.742  1.00  0.00     0.037 A 
HETATM   20  C   UNL     1     -39.498  49.776 -53.303  1.00  0.00     0.001 A 
HETATM   21  C   UNL     1     -40.031  50.376 -54.440  1.00  0.00     0.001 A 
ENDBRANCH  11  12
ENDBRANCH  10  11
ENDBRANCH   7  10
ENDBRANCH   5   6
BRANCH   1  22
HETATM   22  C   UNL     1     -43.554  57.755 -54.680  1.00  0.00     0.732 A 
HETATM   23  N   UNL     1     -43.509  58.604 -55.745  1.00  0.00    -0.152 N 
HETATM   24  C   UNL     1     -43.203  58.166 -56.993  1.00  0.00     0.268 A 
HETATM   25  H   UNL     1     -43.620  59.603 -55.603  1.00  0.00     0.188 HD
HETATM   26  C   UNL     1     -43.052  56.690 -57.131  1.00  0.00     0.035 A 
HETATM   27  O   UNL     1     -43.063  58.939 -57.932  1.00  0.00    -0.267 OA
HETATM   28  C   UNL     1     -43.151  55.947 -56.006  1.00  0.00     0.061 A 
HETATM   29  N   UNL     1     -43.377  56.478 -54.748  1.00  0.00    -0.067 NA
HETATM   30  C   UNL     1     -43.018  54.445 -55.999  1.00  0.00     0.072 C 
BRANCH  26  31
HETATM   31  C   UNL     1     -42.848  56.183 -58.536  1.00  0.00     0.042 C 
HETATM   32  C   UNL     1     -44.164  55.861 -59.226  1.00  0.00     0.010 C 
ENDBRANCH  26  31
ENDBRANCH   1  22
BRANCH   3  33
HETATM   33  C   UNL     1     -43.721  61.525 -51.665  1.00  0.00     0.105 A 
HETATM   34  O   UNL     1     -44.428  62.574 -52.185  1.00  0.00    -0.320 OA
HETATM   35  C   UNL     1     -44.060  63.687 -51.499  1.00  0.00     0.142 A 
HETATM   36  C   UNL     1     -43.140  63.372 -50.529  1.00  0.00     0.027 A 
HETATM   37  C   UNL     1     -42.917  61.978 -50.637  1.00  0.00     0.041 A 
ENDBRANCH   3  33
TORSDOF 7
ENDMDL
MODEL 4
REMARK VINA RESULT:      -9.2      2.208      6.711
REMARK  7 active torsions:
REMARK  status: ('A' for Active; 'I' for Inactive)
REMARK    1  A    between atoms: C_2  and  C_3 
REMARK    2  A    between atoms: C_7  and  N_8 
REMARK    3  A    between atoms: C_10  and  C_11 
REMARK    4  A    between atoms: C_17  and  N_18 
REMARK       I    between atoms: N_18  and  C_19 
REMARK    5  A    between atoms: C_19  and  C_20 
REMARK    6  A    between atoms: C_20  and  O_21 
REMARK    7  A    between atoms: O_21  and  C_22 
ROOT
HETATM    1  N   UNL     1     -42.591  55.270 -55.846  1.00  0.00    -0.044 N 
HETATM    2  N   UNL     1     -41.603  54.333 -55.715  1.00  0.00    -0.148 NA
HETATM    3  C   UNL     1     -41.797  53.814 -54.498  1.00  0.00     0.115 A 
HETATM    4  C   UNL     1     -42.905  54.387 -53.844  1.00  0.00     0.087 A 
HETATM    5  C   UNL     1     -43.368  55.363 -54.696  1.00  0.00     0.152 A 
ENDROOT
BRANCH   5   6
HETATM    6  N   UNL     1     -44.493  56.120 -54.412  1.00  0.00    -0.309 N 
HETATM    7  C   UNL     1     -44.519  57.513 -54.068  1.00  0.00     0.247 C 
HETATM    8  O   UNL     1     -45.603  58.060 -54.217  1.00  0.00    -0.271 OA
HETATM    9  H   UNL     1     -45.400  55.667 -54.396  1.00  0.00     0.170 HD
BRANCH   7  10
HETATM   10  C   UNL     1     -43.333  58.155 -53.374  1.00  0.00     0.278 C 
BRANCH  10  11
HETATM   11  O   UNL     1     -43.595  58.116 -51.973  1.00  0.00    -0.342 OA
BRANCH  11  12
HETATM   12  C   UNL     1     -43.234  56.973 -51.312  1.00  0.00     0.070 A 
HETATM   13  C   UNL     1     -41.861  56.830 -51.096  1.00  0.00     0.049 A 
HETATM   14  C   UNL     1     -41.342  55.705 -50.430  1.00  0.00    -0.023 A 
HETATM   15  C   UNL     1     -42.229  54.708 -49.970  1.00  0.00    -0.026 A 
HETATM   16  C   UNL     1     -39.963  55.549 -50.213  1.00  0.00     0.012 A 
HETATM   17  C   UNL     1     -43.605  54.864 -50.188  1.00  0.00     0.015 A 
HETATM   18  C   UNL     1     -41.715  53.582 -49.304  1.00  0.00     0.012 A 
HETATM   19  C   UNL     1     -44.107  55.988 -50.852  1.00  0.00     0.037 A 
HETATM   20  C   UNL     1     -40.343  53.443 -49.096  1.00  0.00     0.001 A 
HETATM   21  C   UNL     1     -39.467  54.425 -49.551  1.00  0.00     0.001 A 
ENDBRANCH  11  12
ENDBRANCH  10  11
ENDBRANCH   7  10
ENDBRANCH   5   6
BRANCH   1  22
HETATM   22  C   UNL     1     -42.749  55.910 -57.090  1.00  0.00     0.732 A 
HETATM   23  N   UNL     1     -42.206  57.160 -57.086  1.00  0.00    -0.152 N 
HETATM   24  C   UNL     1     -42.189  57.933 -58.202  1.00  0.00     0.268 A 
HETATM   25  H   UNL     1     -41.724  57.502 -56.260  1.00  0.00     0.188 HD
HETATM   26  C   UNL     1     -42.913  57.371 -59.377  1.00  0.00     0.035 A 
HETATM   27  O   UNL     1     -41.615  59.014 -58.229  1.00  0.00    -0.267 OA
HETATM   28  C   UNL     1     -43.439  56.133 -59.249  1.00  0.00     0.061 A 
HETATM   29  N   UNL     1     -43.338  55.366 -58.102  1.00  0.00    -0.067 NA
HETATM   30  C   UNL     1     -44.196  55.443 -60.357  1.00  0.00     0.072 C 
BRANCH  26  31
HETATM   31  C   UNL     1     -43.016  58.280 -60.575  1.00  0.00     0.042 C 
HETATM   32  C   UNL     1     -44.267  59.145 -60.534  1.00  0.00     0.010 C 
ENDBRANCH  26  31
ENDBRANCH   1  22
BRANCH   3  33
HETATM   33  C   UNL     1     -40.924  52.750 -53.925  1.00  0.00     0.105 A 
HETATM   34  O   UNL     1     -40.626  51.576 -54.560  1.00  0.00    -0.320 OA
HETATM   35  C   UNL     1     -39.833  50.857 -53.726  1.00  0.00     0.142 A 
HETATM   36  C   UNL     1     -39.596  51.554 -52.566  1.00  0.00     0.027 A 
HETATM   37  C   UNL     1     -40.301  52.776 -52.692  1.00  0.00     0.041 A 
ENDBRANCH   3  33
TORSDOF 7
ENDMDL
MODEL 5
REMARK VINA RESULT:      -9.0      1.198      2.161
REMARK  7 active torsions:
REMARK  status: ('A' for Active; 'I' for Inactive)
REMARK    1  A    between atoms: C_2  and  C_3 
REMARK    2  A    between atoms: C_7  and  N_8 
REMARK    3  A    between atoms: C_10  and  C_11 
REMARK    4  A    between atoms: C_17  and  N_18 
REMARK       I    between atoms: N_18  and  C_19 
REMARK    5  A    between atoms: C_19  and  C_20 
REMARK    6  A    between atoms: C_20  and  O_21 
REMARK    7  A    between atoms: O_21  and  C_22 
ROOT
HETATM    1  N   UNL     1     -42.489  58.154 -56.076  1.00  0.00    -0.044 N 
HETATM    2  N   UNL     1     -42.093  59.148 -56.927  1.00  0.00    -0.148 NA
HETATM    3  C   UNL     1     -42.489  58.731 -58.133  1.00  0.00     0.115 A 
HETATM    4  C   UNL     1     -43.152  57.489 -58.077  1.00  0.00     0.087 A 
HETATM    5  C   UNL     1     -43.090  57.102 -56.759  1.00  0.00     0.152 A 
ENDROOT
BRANCH   5   6
HETATM    6  N   UNL     1     -43.686  55.937 -56.301  1.00  0.00    -0.309 N 
HETATM    7  C   UNL     1     -43.045  54.884 -55.566  1.00  0.00     0.247 C 
HETATM    8  O   UNL     1     -43.805  54.146 -54.954  1.00  0.00    -0.271 OA
HETATM    9  H   UNL     1     -44.658  55.759 -56.525  1.00  0.00     0.170 HD
BRANCH   7  10
HETATM   10  C   UNL     1     -41.562  54.617 -55.742  1.00  0.00     0.278 C 
BRANCH  10  11
HETATM   11  O   UNL     1     -40.887  55.289 -54.681  1.00  0.00    -0.342 OA
BRANCH  11  12
HETATM   12  C   UNL     1     -40.725  54.589 -53.516  1.00  0.00     0.070 A 
HETATM   13  C   UNL     1     -41.013  55.310 -52.353  1.00  0.00     0.049 A 
HETATM   14  C   UNL     1     -40.891  54.722 -51.082  1.00  0.00    -0.023 A 
HETATM   15  C   UNL     1     -40.474  53.377 -50.983  1.00  0.00    -0.026 A 
HETATM   16  C   UNL     1     -41.172  55.441 -49.908  1.00  0.00     0.012 A 
HETATM   17  C   UNL     1     -40.193  52.661 -52.156  1.00  0.00     0.015 A 
HETATM   18  C   UNL     1     -40.351  52.785 -49.715  1.00  0.00     0.012 A 
HETATM   19  C   UNL     1     -40.319  53.260 -53.414  1.00  0.00     0.037 A 
HETATM   20  C   UNL     1     -40.634  53.512 -48.559  1.00  0.00     0.001 A 
HETATM   21  C   UNL     1     -41.044  54.839 -48.655  1.00  0.00     0.001 A 
ENDBRANCH  11  12
ENDBRANCH  10  11
ENDBRANCH   7  10
ENDBRANCH   5   6
BRANCH   1  22
HETATM   22  C   UNL     1     -42.339  58.355 -54.691  1.00  0.00     0.732 A 
HETATM   23  N   UNL     1     -41.045  58.624 -54.358  1.00  0.00    -0.152 N 
HETATM   24  C   UNL     1     -40.683  58.914 -53.082  1.00  0.00     0.268 A 
HETATM   25  H   UNL     1     -40.338  58.695 -55.084  1.00  0.00     0.188 HD
HETATM   26  C   UNL     1     -41.768  58.791 -52.068  1.00  0.00     0.035 A 
HETATM   27  O   UNL     1     -39.541  59.253 -52.797  1.00  0.00    -0.267 OA
HETATM   28  C   UNL     1     -43.006  58.487 -52.517  1.00  0.00     0.061 A 
HETATM   29  N   UNL     1     -43.317  58.292 -53.850  1.00  0.00    -0.067 NA
HETATM   30  C   UNL     1     -44.196  58.332 -51.602  1.00  0.00     0.072 C 
BRANCH  26  31
HETATM   31  C   UNL     1     -41.344  58.978 -50.634  1.00  0.00     0.042 C 
HETATM   32  C   UNL     1     -41.602  60.393 -50.138  1.00  0.00     0.010 C 
ENDBRANCH  26  31
ENDBRANCH   1  22
BRANCH   3  33
HETATM   33  C   UNL     1     -42.244  59.511 -59.379  1.00  0.00     0.105 A 
HETATM   34  O   UNL     1     -42.094  58.953 -60.619  1.00  0.00    -0.320 OA
HETATM   35  C   UNL     1     -41.863  59.967 -61.492  1.00  0.00     0.142 A 
HETATM   36  C   UNL     1     -41.880  61.176 -60.841  1.00  0.00     0.027 A 
HETATM   37  C   UNL     1     -42.123  60.884 -59.477  1.00  0.00     0.041 A 
ENDBRANCH   3  33
TORSDOF 7
ENDMDL
MODEL 6
REMARK VINA RESULT:      -9.0      2.421      3.337
REMARK  7 active torsions:
REMARK  status: ('A' for Active; 'I' for Inactive)
REMARK    1  A    between atoms: C_2  and  C_3 
REMARK    2  A    between atoms: C_7  and  N_8 
REMARK    3  A    between atoms: C_10  and  C_11 
REMARK    4  A    between atoms: C_17  and  N_18 
REMARK       I    between atoms: N_18  and  C_19 
REMARK    5  A    between atoms: C_19  and  C_20 
REMARK    6  A    between atoms: C_20  and  O_21 
REMARK    7  A    between atoms: O_21  and  C_22 
ROOT
HETATM    1  N   UNL     1     -43.580  57.916 -54.396  1.00  0.00    -0.044 N 
HETATM    2  N   UNL     1     -43.359  58.160 -55.722  1.00  0.00    -0.148 NA
HETATM    3  C   UNL     1     -43.252  56.946 -56.271  1.00  0.00     0.115 A 
HETATM    4  C   UNL     1     -43.417  55.916 -55.324  1.00  0.00     0.087 A 
HETATM    5  C   UNL     1     -43.566  56.553 -54.115  1.00  0.00     0.152 A 
ENDROOT
BRANCH   5   6
HETATM    6  N   UNL     1     -43.804  55.861 -52.938  1.00  0.00    -0.309 N 
HETATM    7  C   UNL     1     -43.051  55.965 -51.721  1.00  0.00     0.247 C 
HETATM    8  O   UNL     1     -43.630  55.564 -50.720  1.00  0.00    -0.271 OA
HETATM    9  H   UNL     1     -44.548  55.174 -52.912  1.00  0.00     0.170 HD
BRANCH   7  10
HETATM   10  C   UNL     1     -41.582  56.344 -51.756  1.00  0.00     0.278 C 
BRANCH  10  11
HETATM   11  O   UNL     1     -40.851  55.236 -51.237  1.00  0.00    -0.342 OA
BRANCH  11  12
HETATM   12  C   UNL     1     -40.612  54.200 -52.098  1.00  0.00     0.070 A 
HETATM   13  C   UNL     1     -40.317  52.980 -51.482  1.00  0.00     0.049 A 
HETATM   14  C   UNL     1     -40.048  51.827 -52.239  1.00  0.00    -0.023 A 
HETATM   15  C   UNL     1     -40.082  51.906 -53.648  1.00  0.00    -0.026 A 
HETATM   16  C   UNL     1     -39.745  50.598 -51.629  1.00  0.00     0.012 A 
HETATM   17  C   UNL     1     -40.384  53.133 -54.257  1.00  0.00     0.015 A 
HETATM   18  C   UNL     1     -39.814  50.756 -54.410  1.00  0.00     0.012 A 
HETATM   19  C   UNL     1     -40.649  54.272 -53.489  1.00  0.00     0.037 A 
HETATM   20  C   UNL     1     -39.515  49.544 -53.789  1.00  0.00     0.001 A 
HETATM   21  C   UNL     1     -39.480  49.465 -52.399  1.00  0.00     0.001 A 
ENDBRANCH  11  12
ENDBRANCH  10  11
ENDBRANCH   7  10
ENDBRANCH   5   6
BRANCH   1  22
HETATM   22  C   UNL     1     -43.877  59.003 -53.552  1.00  0.00     0.732 A 
HETATM   23  N   UNL     1     -43.194  60.125 -53.916  1.00  0.00    -0.152 N 
HETATM   24  C   UNL     1     -43.378  61.309 -53.279  1.00  0.00     0.268 A 
HETATM   25  H   UNL     1     -42.594  60.110 -54.736  1.00  0.00     0.188 HD
HETATM   26  C   UNL     1     -44.271  61.259 -52.087  1.00  0.00     0.035 A 
HETATM   27  O   UNL     1     -42.842  62.339 -53.666  1.00  0.00    -0.267 OA
HETATM   28  C   UNL     1     -44.867  60.080 -51.806  1.00  0.00     0.061 A 
HETATM   29  N   UNL     1     -44.700  58.932 -52.559  1.00  0.00    -0.067 NA
HETATM   30  C   UNL     1     -45.794  59.887 -50.632  1.00  0.00     0.072 C 
BRANCH  26  31
HETATM   31  C   UNL     1     -44.372  62.538 -51.294  1.00  0.00     0.042 C 
HETATM   32  C   UNL     1     -43.225  62.693 -50.307  1.00  0.00     0.010 C 
ENDBRANCH  26  31
ENDBRANCH   1  22
BRANCH   3  33
HETATM   33  C   UNL     1     -42.987  56.736 -57.723  1.00  0.00     0.105 A 
HETATM   34  O   UNL     1     -42.369  57.649 -58.531  1.00  0.00    -0.320 OA
HETATM   35  C   UNL     1     -42.330  57.121 -59.781  1.00  0.00     0.142 A 
HETATM   36  C   UNL     1     -42.897  55.869 -59.792  1.00  0.00     0.027 A 
HETATM   37  C   UNL     1     -43.324  55.620 -58.466  1.00  0.00     0.041 A 
ENDBRANCH   3  33
TORSDOF 7
ENDMDL
MODEL 7
REMARK VINA RESULT:      -8.8      1.279      5.373
REMARK  7 active torsions:
REMARK  status: ('A' for Active; 'I' for Inactive)
REMARK    1  A    between atoms: C_2  and  C_3 
REMARK    2  A    between atoms: C_7  and  N_8 
REMARK    3  A    between atoms: C_10  and  C_11 
REMARK    4  A    between atoms: C_17  and  N_18 
REMARK       I    between atoms: N_18  and  C_19 
REMARK    5  A    between atoms: C_19  and  C_20 
REMARK    6  A    between atoms: C_20  and  O_21 
REMARK    7  A    between atoms: O_21  and  C_22 
ROOT
HETATM    1  N   UNL     1     -42.941  58.449 -55.527  1.00  0.00    -0.044 N 
HETATM    2  N   UNL     1     -42.627  59.426 -54.623  1.00  0.00    -0.148 NA
HETATM    3  C   UNL     1     -42.860  58.865 -53.432  1.00  0.00     0.115 A 
HETATM    4  C   UNL     1     -43.304  57.533 -53.548  1.00  0.00     0.087 A 
HETATM    5  C   UNL     1     -43.409  57.299 -54.899  1.00  0.00     0.152 A 
ENDROOT
BRANCH   5   6
HETATM    6  N   UNL     1     -43.776  56.065 -55.410  1.00  0.00    -0.309 N 
HETATM    7  C   UNL     1     -42.954  54.891 -55.477  1.00  0.00     0.247 C 
HETATM    8  O   UNL     1     -43.565  53.840 -55.615  1.00  0.00    -0.271 OA
HETATM    9  H   UNL     1     -44.695  55.956 -55.825  1.00  0.00     0.170 HD
BRANCH   7  10
HETATM   10  C   UNL     1     -41.445  55.015 -55.584  1.00  0.00     0.278 C 
BRANCH  10  11
HETATM   11  O   UNL     1     -40.954  55.281 -54.272  1.00  0.00    -0.342 OA
BRANCH  11  12
HETATM   12  C   UNL     1     -40.628  54.195 -53.505  1.00  0.00     0.070 A 
HETATM   13  C   UNL     1     -40.425  53.012 -54.221  1.00  0.00     0.049 A 
HETATM   14  C   UNL     1     -40.085  51.814 -53.568  1.00  0.00    -0.023 A 
HETATM   15  C   UNL     1     -39.944  51.813 -52.163  1.00  0.00    -0.026 A 
HETATM   16  C   UNL     1     -39.885  50.619 -54.278  1.00  0.00     0.012 A 
HETATM   17  C   UNL     1     -40.145  53.007 -51.455  1.00  0.00     0.015 A 
HETATM   18  C   UNL     1     -39.605  50.619 -51.505  1.00  0.00     0.012 A 
HETATM   19  C   UNL     1     -40.483  54.191 -52.119  1.00  0.00     0.037 A 
HETATM   20  C   UNL     1     -39.409  49.440 -52.225  1.00  0.00     0.001 A 
HETATM   21  C   UNL     1     -39.549  49.440 -53.610  1.00  0.00     0.001 A 
ENDBRANCH  11  12
ENDBRANCH  10  11
ENDBRANCH   7  10
ENDBRANCH   5   6
BRANCH   1  22
HETATM   22  C   UNL     1     -42.669  58.680 -56.888  1.00  0.00     0.732 A 
HETATM   23  N   UNL     1     -42.591  60.012 -57.168  1.00  0.00    -0.152 N 
HETATM   24  C   UNL     1     -42.275  60.463 -58.408  1.00  0.00     0.268 A 
HETATM   25  H   UNL     1     -42.687  60.694 -56.420  1.00  0.00     0.188 HD
HETATM   26  C   UNL     1     -42.148  59.411 -59.455  1.00  0.00     0.035 A 
HETATM   27  O   UNL     1     -42.106  61.654 -58.638  1.00  0.00    -0.267 OA
HETATM   28  C   UNL     1     -42.279  58.124 -59.063  1.00  0.00     0.061 A 
HETATM   29  N   UNL     1     -42.514  57.736 -57.756  1.00  0.00    -0.067 NA
HETATM   30  C   UNL     1     -42.174  56.959 -60.016  1.00  0.00     0.072 C 
BRANCH  26  31
HETATM   31  C   UNL     1     -41.932  59.911 -60.861  1.00  0.00     0.042 C 
HETATM   32  C   UNL     1     -43.237  60.303 -61.538  1.00  0.00     0.010 C 
ENDBRANCH  26  31
ENDBRANCH   1  22
BRANCH   3  33
HETATM   33  C   UNL     1     -42.663  59.591 -52.145  1.00  0.00     0.105 A 
HETATM   34  O   UNL     1     -41.453  59.742 -51.526  1.00  0.00    -0.320 OA
HETATM   35  C   UNL     1     -41.673  60.429 -50.376  1.00  0.00     0.142 A 
HETATM   36  C   UNL     1     -43.005  60.743 -50.249  1.00  0.00     0.027 A 
HETATM   37  C   UNL     1     -43.646  60.200 -51.388  1.00  0.00     0.041 A 
ENDBRANCH   3  33
TORSDOF 7
ENDMDL
MODEL 8
REMARK VINA RESULT:      -8.8      1.834      5.899
REMARK  7 active torsions:
REMARK  status: ('A' for Active; 'I' for Inactive)
REMARK    1  A    between atoms: C_2  and  C_3 
REMARK    2  A    between atoms: C_7  and  N_8 
REMARK    3  A    between atoms: C_10  and  C_11 
REMARK    4  A    between atoms: C_17  and  N_18 
REMARK       I    between atoms: N_18  and  C_19 
REMARK    5  A    between atoms: C_19  and  C_20 
REMARK    6  A    between atoms: C_20  and  O_21 
REMARK    7  A    between atoms: O_21  and  C_22 
ROOT
HETATM    1  N   UNL     1     -41.915  59.195 -55.946  1.00  0.00    -0.044 N 
HETATM    2  N   UNL     1     -41.740  59.894 -54.784  1.00  0.00    -0.148 NA
HETATM    3  C   UNL     1     -41.655  58.951 -53.839  1.00  0.00     0.115 A 
HETATM    4  C   UNL     1     -41.756  57.652 -54.372  1.00  0.00     0.087 A 
HETATM    5  C   UNL     1     -41.983  57.825 -55.717  1.00  0.00     0.152 A 
ENDROOT
BRANCH   5   6
HETATM    6  N   UNL     1     -42.090  56.757 -56.594  1.00  0.00    -0.309 N 
HETATM    7  C   UNL     1     -43.012  55.662 -56.496  1.00  0.00     0.247 C 
HETATM    8  O   UNL     1     -43.189  55.042 -57.536  1.00  0.00    -0.271 OA
HETATM    9  H   UNL     1     -41.439  56.688 -57.368  1.00  0.00     0.170 HD
BRANCH   7  10
HETATM   10  C   UNL     1     -43.532  55.214 -55.142  1.00  0.00     0.278 C 
BRANCH  10  11
HETATM   11  O   UNL     1     -43.014  53.906 -54.907  1.00  0.00    -0.342 OA
BRANCH  11  12
HETATM   12  C   UNL     1     -42.151  53.768 -53.853  1.00  0.00     0.070 A 
HETATM   13  C   UNL     1     -42.489  54.508 -52.717  1.00  0.00     0.049 A 
HETATM   14  C   UNL     1     -41.695  54.467 -51.557  1.00  0.00    -0.023 A 
HETATM   15  C   UNL     1     -40.539  53.657 -51.544  1.00  0.00    -0.026 A 
HETATM   16  C   UNL     1     -42.023  55.212 -50.413  1.00  0.00     0.012 A 
HETATM   17  C   UNL     1     -40.212  52.913 -52.687  1.00  0.00     0.015 A 
HETATM   18  C   UNL     1     -39.743  53.612 -50.388  1.00  0.00     0.012 A 
HETATM   19  C   UNL     1     -41.012  52.966 -53.834  1.00  0.00     0.037 A 
HETATM   20  C   UNL     1     -40.082  54.357 -49.259  1.00  0.00     0.001 A 
HETATM   21  C   UNL     1     -41.222  55.158 -49.272  1.00  0.00     0.001 A 
ENDBRANCH  11  12
ENDBRANCH  10  11
ENDBRANCH   7  10
ENDBRANCH   5   6
BRANCH   1  22
HETATM   22  C   UNL     1     -41.902  59.902 -57.163  1.00  0.00     0.732 A 
HETATM   23  N   UNL     1     -41.854  61.250 -56.964  1.00  0.00    -0.152 N 
HETATM   24  C   UNL     1     -41.770  62.122 -58.000  1.00  0.00     0.268 A 
HETATM   25  H   UNL     1     -41.794  61.620 -56.020  1.00  0.00     0.188 HD
HETATM   26  C   UNL     1     -41.864  61.510 -59.356  1.00  0.00     0.035 A 
HETATM   27  O   UNL     1     -41.626  63.324 -57.822  1.00  0.00    -0.267 OA
HETATM   28  C   UNL     1     -41.941  60.163 -59.426  1.00  0.00     0.061 A 
HETATM   29  N   UNL     1     -41.932  59.331 -58.321  1.00  0.00    -0.067 NA
HETATM   30  C   UNL     1     -42.040  59.412 -60.731  1.00  0.00     0.072 C 
BRANCH  26  31
HETATM   31  C   UNL     1     -41.909  62.481 -60.508  1.00  0.00     0.042 C 
HETATM   32  C   UNL     1     -40.527  62.760 -61.078  1.00  0.00     0.010 C 
ENDBRANCH  26  31
ENDBRANCH   1  22
BRANCH   3  33
HETATM   33  C   UNL     1     -41.475  59.270 -52.394  1.00  0.00     0.105 A 
HETATM   34  O   UNL     1     -42.058  60.335 -51.764  1.00  0.00    -0.320 OA
HETATM   35  C   UNL     1     -41.645  60.313 -50.471  1.00  0.00     0.142 A 
HETATM   36  C   UNL     1     -40.817  59.239 -50.248  1.00  0.00     0.027 A 
HETATM   37  C   UNL     1     -40.704  58.567 -51.488  1.00  0.00     0.041 A 
ENDBRANCH   3  33
TORSDOF 7
ENDMDL
MODEL 9
REMARK VINA RESULT:      -8.8      2.389      2.888
REMARK  7 active torsions:
REMARK  status: ('A' for Active; 'I' for Inactive)
REMARK    1  A    between atoms: C_2  and  C_3 
REMARK    2  A    between atoms: C_7  and  N_8 
REMARK    3  A    between atoms: C_10  and  C_11 
REMARK    4  A    between atoms: C_17  and  N_18 
REMARK       I    between atoms: N_18  and  C_19 
REMARK    5  A    between atoms: C_19  and  C_20 
REMARK    6  A    between atoms: C_20  and  O_21 
REMARK    7  A    between atoms: O_21  and  C_22 
ROOT
HETATM    1  N   UNL     1     -43.419  57.954 -53.654  1.00  0.00    -0.044 N 
HETATM    2  N   UNL     1     -43.480  59.317 -53.574  1.00  0.00    -0.148 NA
HETATM    3  C   UNL     1     -44.026  59.694 -54.736  1.00  0.00     0.115 A 
HETATM    4  C   UNL     1     -44.334  58.596 -55.561  1.00  0.00     0.087 A 
HETATM    5  C   UNL     1     -43.884  57.489 -54.880  1.00  0.00     0.152 A 
ENDROOT
BRANCH   5   6
HETATM    6  N   UNL     1     -44.057  56.202 -55.362  1.00  0.00    -0.309 N 
HETATM    7  C   UNL     1     -43.058  55.173 -55.428  1.00  0.00     0.247 C 
HETATM    8  O   UNL     1     -43.495  54.036 -55.535  1.00  0.00    -0.271 OA
HETATM    9  H   UNL     1     -44.954  55.939 -55.755  1.00  0.00     0.170 HD
BRANCH   7  10
HETATM   10  C   UNL     1     -41.592  55.536 -55.570  1.00  0.00     0.278 C 
BRANCH  10  11
HETATM   11  O   UNL     1     -40.868  54.313 -55.696  1.00  0.00    -0.342 OA
BRANCH  11  12
HETATM   12  C   UNL     1     -40.612  53.629 -54.539  1.00  0.00     0.070 A 
HETATM   13  C   UNL     1     -40.325  52.272 -54.712  1.00  0.00     0.049 A 
HETATM   14  C   UNL     1     -40.043  51.441 -53.613  1.00  0.00    -0.023 A 
HETATM   15  C   UNL     1     -40.046  51.994 -52.314  1.00  0.00    -0.026 A 
HETATM   16  C   UNL     1     -39.760  50.075 -53.776  1.00  0.00     0.012 A 
HETATM   17  C   UNL     1     -40.330  53.358 -52.152  1.00  0.00     0.015 A 
HETATM   18  C   UNL     1     -39.765  51.169 -51.213  1.00  0.00     0.012 A 
HETATM   19  C   UNL     1     -40.609  54.172 -53.255  1.00  0.00     0.037 A 
HETATM   20  C   UNL     1     -39.484  49.814 -51.391  1.00  0.00     0.001 A 
HETATM   21  C   UNL     1     -39.482  49.267 -52.672  1.00  0.00     0.001 A 
ENDBRANCH  11  12
ENDBRANCH  10  11
ENDBRANCH   7  10
ENDBRANCH   5   6
BRANCH   1  22
HETATM   22  C   UNL     1     -43.013  57.232 -52.516  1.00  0.00     0.732 A 
HETATM   23  N   UNL     1     -41.924  57.797 -51.922  1.00  0.00    -0.152 N 
HETATM   24  C   UNL     1     -41.402  57.301 -50.772  1.00  0.00     0.268 A 
HETATM   25  H   UNL     1     -41.535  58.659 -52.292  1.00  0.00     0.188 HD
HETATM   26  C   UNL     1     -42.020  56.035 -50.286  1.00  0.00     0.035 A 
HETATM   27  O   UNL     1     -40.488  57.863 -50.183  1.00  0.00    -0.267 OA
HETATM   28  C   UNL     1     -43.075  55.552 -50.978  1.00  0.00     0.061 A 
HETATM   29  N   UNL     1     -43.610  56.166 -52.097  1.00  0.00    -0.067 NA
HETATM   30  C   UNL     1     -43.796  54.283 -50.598  1.00  0.00     0.072 C 
BRANCH  26  31
HETATM   31  C   UNL     1     -41.359  55.405 -49.086  1.00  0.00     0.042 C 
HETATM   32  C   UNL     1     -40.098  54.641 -49.461  1.00  0.00     0.010 C 
ENDBRANCH  26  31
ENDBRANCH   1  22
BRANCH   3  33
HETATM   33  C   UNL     1     -44.267  61.122 -55.089  1.00  0.00     0.105 A 
HETATM   34  O   UNL     1     -43.321  61.951 -55.626  1.00  0.00    -0.320 OA
HETATM   35  C   UNL     1     -43.897  63.170 -55.786  1.00  0.00     0.142 A 
HETATM   36  C   UNL     1     -45.209  63.139 -55.378  1.00  0.00     0.027 A 
HETATM   37  C   UNL     1     -45.449  61.819 -54.926  1.00  0.00     0.041 A 
ENDBRANCH   3  33
TORSDOF 7
ENDMDL
MODEL 10
REMARK VINA RESULT:      -8.8      2.469      6.736
REMARK  7 active torsions:
REMARK  status: ('A' for Active; 'I' for Inactive)
REMARK    1  A    between atoms: C_2  and  C_3 
REMARK    2  A    between atoms: C_7  and  N_8 
REMARK    3  A    between atoms: C_10  and  C_11 
REMARK    4  A    between atoms: C_17  and  N_18 
REMARK       I    between atoms: N_18  and  C_19 
REMARK    5  A    between atoms: C_19  and  C_20 
REMARK    6  A    between atoms: C_20  and  O_21 
REMARK    7  A    between atoms: O_21  and  C_22 
ROOT
HETATM    1  N   UNL     1     -42.239  56.197 -55.941  1.00  0.00    -0.044 N 
HETATM    2  N   UNL     1     -41.971  54.866 -55.784  1.00  0.00    -0.148 NA
HETATM    3  C   UNL     1     -41.204  54.808 -54.690  1.00  0.00     0.115 A 
HETATM    4  C   UNL     1     -40.983  56.079 -54.126  1.00  0.00     0.087 A 
HETATM    5  C   UNL     1     -41.602  56.968 -54.973  1.00  0.00     0.152 A 
ENDROOT
BRANCH   5   6
HETATM    6  N   UNL     1     -41.642  58.329 -54.717  1.00  0.00    -0.309 N 
HETATM    7  C   UNL     1     -42.373  58.978 -53.666  1.00  0.00     0.247 C 
HETATM    8  O   UNL     1     -41.990  60.108 -53.394  1.00  0.00    -0.271 OA
HETATM    9  H   UNL     1     -41.154  58.962 -55.340  1.00  0.00     0.170 HD
BRANCH   7  10
HETATM   10  C   UNL     1     -43.644  58.358 -53.119  1.00  0.00     0.278 C 
BRANCH  10  11
HETATM   11  O   UNL     1     -43.492  58.271 -51.703  1.00  0.00    -0.342 OA
BRANCH  11  12
HETATM   12  C   UNL     1     -43.171  57.042 -51.194  1.00  0.00     0.070 A 
HETATM   13  C   UNL     1     -41.836  56.898 -50.806  1.00  0.00     0.049 A 
HETATM   14  C   UNL     1     -41.361  55.690 -50.266  1.00  0.00    -0.023 A 
HETATM   15  C   UNL     1     -42.253  54.607 -50.112  1.00  0.00    -0.026 A 
HETATM   16  C   UNL     1     -40.019  55.534 -49.880  1.00  0.00     0.012 A 
HETATM   17  C   UNL     1     -43.592  54.764 -50.499  1.00  0.00     0.015 A 
HETATM   18  C   UNL     1     -41.783  53.398 -49.573  1.00  0.00     0.012 A 
HETATM   19  C   UNL     1     -44.050  55.972 -51.035  1.00  0.00     0.037 A 
HETATM   20  C   UNL     1     -40.448  53.259 -49.193  1.00  0.00     0.001 A 
HETATM   21  C   UNL     1     -39.567  54.326 -49.346  1.00  0.00     0.001 A 
ENDBRANCH  11  12
ENDBRANCH  10  11
ENDBRANCH   7  10
ENDBRANCH   5   6
BRANCH   1  22
HETATM   22  C   UNL     1     -43.152  56.586 -56.939  1.00  0.00     0.732 A 
HETATM   23  N   UNL     1     -42.861  56.010 -58.140  1.00  0.00    -0.152 N 
HETATM   24  C   UNL     1     -43.650  56.195 -59.229  1.00  0.00     0.268 A 
HETATM   25  H   UNL     1     -42.088  55.355 -58.214  1.00  0.00     0.188 HD
HETATM   26  C   UNL     1     -44.766  57.166 -59.049  1.00  0.00     0.035 A 
HETATM   27  O   UNL     1     -43.448  55.601 -60.280  1.00  0.00    -0.267 OA
HETATM   28  C   UNL     1     -44.934  57.699 -57.819  1.00  0.00     0.061 A 
HETATM   29  N   UNL     1     -44.140  57.391 -56.729  1.00  0.00    -0.067 NA
HETATM   30  C   UNL     1     -46.022  58.692 -57.495  1.00  0.00     0.072 C 
BRANCH  26  31
HETATM   31  C   UNL     1     -45.562  57.482 -60.290  1.00  0.00     0.042 C 
HETATM   32  C   UNL     1     -46.769  56.569 -60.445  1.00  0.00     0.010 C 
ENDBRANCH  26  31
ENDBRANCH   1  22
BRANCH   3  33
HETATM   33  C   UNL     1     -40.658  53.529 -54.154  1.00  0.00     0.105 A 
HETATM   34  O   UNL     1     -40.436  52.411 -54.910  1.00  0.00    -0.320 OA
HETATM   35  C   UNL     1     -39.965  51.448 -54.077  1.00  0.00     0.142 A 
HETATM   36  C   UNL     1     -39.858  51.930 -52.795  1.00  0.00     0.027 A 
HETATM   37  C   UNL     1     -40.308  53.272 -52.842  1.00  0.00     0.041 A 
ENDBRANCH   3  33
TORSDOF 7
ENDMDL
