MODEL 1
REMARK VINA RESULT:      -8.4      0.000      0.000
REMARK  3 active torsions:
REMARK  status: ('A' for Active; 'I' for Inactive)
REMARK    1  A    between atoms: C_2  and  C_3 
REMARK    2  A    between atoms: C_10  and  O_11 
REMARK    3  A    between atoms: C_10  and  C_12 
ROOT
HETATM    1  C   UNL     1     -40.332  52.415 -53.493  1.00  0.00    -0.058 A 
HETATM    2  C   UNL     1     -41.378  53.223 -53.018  1.00  0.00     0.020 A 
HETATM    3  C   UNL     1     -41.803  54.290 -53.797  1.00  0.00     0.018 A 
HETATM    4  C   UNL     1     -41.211  54.536 -55.035  1.00  0.00     0.045 A 
HETATM    5  N   UNL     1     -41.800  55.633 -55.646  1.00  0.00    -0.323 N 
HETATM    6  C   UNL     1     -42.803  56.185 -54.846  1.00  0.00     0.266 A 
HETATM    7  O   UNL     1     -43.481  57.149 -55.170  1.00  0.00    -0.269 OA
HETATM    8  C   UNL     1     -42.899  55.306 -53.546  1.00  0.00     0.199 A 
HETATM    9  C   UNL     1     -40.184  53.763 -55.533  1.00  0.00     0.031 A 
HETATM   10  C   UNL     1     -39.741  52.697 -54.745  1.00  0.00     0.009 A 
HETATM   11  H   UNL     1     -41.551  56.016 -56.545  1.00  0.00     0.169 HD
ENDROOT
BRANCH   8  12
HETATM   12  O   UNL     1     -44.157  54.641 -53.488  1.00  0.00    -0.371 OA
HETATM   13  H   UNL     1     -44.486  54.754 -52.581  1.00  0.00     0.212 HD
ENDBRANCH   8  12
BRANCH   8  14
HETATM   14  C   UNL     1     -42.520  56.035 -52.273  1.00  0.00     0.025 A 
HETATM   15  C   UNL     1     -41.590  57.141 -52.178  1.00  0.00     0.003 A 
HETATM   16  C   UNL     1     -41.551  57.555 -50.848  1.00  0.00     0.043 A 
HETATM   17  C   UNL     1     -40.785  57.841 -53.105  1.00  0.00     0.014 A 
HETATM   18  C   UNL     1     -40.761  58.623 -50.399  1.00  0.00     0.030 A 
HETATM   19  N   UNL     1     -42.397  56.737 -50.147  1.00  0.00    -0.359 N 
HETATM   20  C   UNL     1     -39.980  59.295 -51.341  1.00  0.00     0.002 A 
HETATM   21  C   UNL     1     -39.988  58.910 -52.677  1.00  0.00     0.001 A 
HETATM   22  H   UNL     1     -42.556  56.810 -49.152  1.00  0.00     0.166 HD
HETATM   23  C   UNL     1     -43.004  55.831 -50.978  1.00  0.00     0.016 A 
HETATM   24  C   UNL     1     -43.994  54.865 -50.428  1.00  0.00     0.069 C 
ENDBRANCH   8  14
BRANCH   1  25
HETATM   25  C   UNL     1     -39.820  51.275 -52.648  1.00  0.00     0.034 C 
HETATM   26  C   UNL     1     -39.683  49.993 -53.455  1.00  0.00     0.010 C 
ENDBRANCH   1  25
TORSDOF 3
ENDMDL
MODEL 2
REMARK VINA RESULT:      -8.0      1.687      5.835
REMARK  3 active torsions:
REMARK  status: ('A' for Active; 'I' for Inactive)
REMARK    1  A    between atoms: C_2  and  C_3 
REMARK    2  A    between atoms: C_10  and  O_11 
REMARK    3  A    between atoms: C_10  and  C_12 
ROOT
HETATM    1  C   UNL     1     -41.599  58.960 -52.788  1.00  0.00    -0.058 A 
HETATM    2  C   UNL     1     -42.305  57.747 -52.795  1.00  0.00     0.020 A 
HETATM    3  C   UNL     1     -42.156  56.882 -51.720  1.00  0.00     0.018 A 
HETATM    4  C   UNL     1     -41.336  57.229 -50.647  1.00  0.00     0.045 A 
HETATM    5  N   UNL     1     -41.349  56.232 -49.683  1.00  0.00    -0.323 N 
HETATM    6  C   UNL     1     -42.165  55.165 -50.063  1.00  0.00     0.266 A 
HETATM    7  O   UNL     1     -42.356  54.172 -49.376  1.00  0.00    -0.269 OA
HETATM    8  C   UNL     1     -42.793  55.531 -51.457  1.00  0.00     0.199 A 
HETATM    9  C   UNL     1     -40.630  58.412 -50.606  1.00  0.00     0.031 A 
HETATM   10  C   UNL     1     -40.763  59.279 -51.694  1.00  0.00     0.009 A 
HETATM   11  H   UNL     1     -40.837  56.241 -48.815  1.00  0.00     0.169 HD
ENDROOT
BRANCH   8  12
HETATM   12  O   UNL     1     -44.204  55.688 -51.342  1.00  0.00    -0.371 OA
HETATM   13  H   UNL     1     -44.356  56.243 -50.560  1.00  0.00     0.212 HD
ENDBRANCH   8  12
BRANCH   8  14
HETATM   14  C   UNL     1     -42.357  54.628 -52.593  1.00  0.00     0.025 A 
HETATM   15  C   UNL     1     -41.305  53.635 -52.527  1.00  0.00     0.003 A 
HETATM   16  C   UNL     1     -41.245  52.991 -53.760  1.00  0.00     0.043 A 
HETATM   17  C   UNL     1     -40.403  53.213 -51.523  1.00  0.00     0.014 A 
HETATM   18  C   UNL     1     -40.344  51.955 -54.042  1.00  0.00     0.030 A 
HETATM   19  N   UNL     1     -42.196  53.566 -54.561  1.00  0.00    -0.359 N 
HETATM   20  C   UNL     1     -39.469  51.559 -53.028  1.00  0.00     0.002 A 
HETATM   21  C   UNL     1     -39.495  52.179 -51.785  1.00  0.00     0.001 A 
HETATM   22  H   UNL     1     -42.367  53.294 -55.518  1.00  0.00     0.166 HD
HETATM   23  C   UNL     1     -42.889  54.536 -53.882  1.00  0.00     0.016 A 
HETATM   24  C   UNL     1     -43.998  55.266 -54.555  1.00  0.00     0.069 C 
ENDBRANCH   8  14
BRANCH   1  25
HETATM   25  C   UNL     1     -41.707  59.900 -53.964  1.00  0.00     0.034 C 
HETATM   26  C   UNL     1     -42.092  59.166 -55.239  1.00  0.00     0.010 C 
ENDBRANCH   1  25
TORSDOF 3
ENDMDL
MODEL 3
REMARK VINA RESULT:      -7.8      3.087      4.605
REMARK  3 active torsions:
REMARK  status: ('A' for Active; 'I' for Inactive)
REMARK    1  A    between atoms: C_2  and  C_3 
REMARK    2  A    between atoms: C_10  and  O_11 
REMARK    3  A    between atoms: C_10  and  C_12 
ROOT
HETATM    1  C   UNL     1     -39.607  50.457 -52.220  1.00  0.00    -0.058 A 
HETATM    2  C   UNL     1     -39.889  51.830 -52.294  1.00  0.00     0.020 A 
HETATM    3  C   UNL     1     -40.325  52.484 -51.150  1.00  0.00     0.018 A 
HETATM    4  C   UNL     1     -40.458  51.787 -49.950  1.00  0.00     0.045 A 
HETATM    5  N   UNL     1     -40.886  52.636 -48.940  1.00  0.00    -0.323 N 
HETATM    6  C   UNL     1     -41.075  53.937 -49.412  1.00  0.00     0.266 A 
HETATM    7  O   UNL     1     -41.434  54.871 -48.711  1.00  0.00    -0.269 OA
HETATM    8  C   UNL     1     -40.687  53.940 -50.936  1.00  0.00     0.199 A 
HETATM    9  C   UNL     1     -40.188  50.440 -49.841  1.00  0.00     0.031 A 
HETATM   10  C   UNL     1     -39.765  49.773 -50.994  1.00  0.00     0.009 A 
HETATM   11  H   UNL     1     -41.061  52.376 -47.982  1.00  0.00     0.169 HD
ENDROOT
BRANCH   8  12
HETATM   12  O   UNL     1     -39.537  54.752 -51.154  1.00  0.00    -0.371 OA
HETATM   13  H   UNL     1     -39.299  54.645 -52.089  1.00  0.00     0.212 HD
ENDBRANCH   8  12
BRANCH   8  14
HETATM   14  C   UNL     1     -41.843  54.233 -51.871  1.00  0.00     0.025 A 
HETATM   15  C   UNL     1     -41.737  54.475 -53.295  1.00  0.00     0.003 A 
HETATM   16  C   UNL     1     -43.025  54.658 -53.795  1.00  0.00     0.043 A 
HETATM   17  C   UNL     1     -40.663  54.541 -54.211  1.00  0.00     0.014 A 
HETATM   18  C   UNL     1     -43.295  54.898 -55.149  1.00  0.00     0.030 A 
HETATM   19  N   UNL     1     -43.886  54.556 -52.735  1.00  0.00    -0.359 N 
HETATM   20  C   UNL     1     -42.212  54.955 -56.029  1.00  0.00     0.002 A 
HETATM   21  C   UNL     1     -40.912  54.781 -55.569  1.00  0.00     0.001 A 
HETATM   22  H   UNL     1     -44.889  54.656 -52.812  1.00  0.00     0.166 HD
HETATM   23  C   UNL     1     -43.208  54.283 -51.575  1.00  0.00     0.016 A 
HETATM   24  C   UNL     1     -43.957  54.095 -50.303  1.00  0.00     0.069 C 
ENDBRANCH   8  14
BRANCH   1  25
HETATM   25  C   UNL     1     -39.173  49.711 -53.459  1.00  0.00     0.034 C 
HETATM   26  C   UNL     1     -40.091  49.995 -54.638  1.00  0.00     0.010 C 
ENDBRANCH   1  25
TORSDOF 3
ENDMDL
MODEL 4
REMARK VINA RESULT:      -7.7      2.344      3.921
REMARK  3 active torsions:
REMARK  status: ('A' for Active; 'I' for Inactive)
REMARK    1  A    between atoms: C_2  and  C_3 
REMARK    2  A    between atoms: C_10  and  O_11 
REMARK    3  A    between atoms: C_10  and  C_12 
ROOT
HETATM    1  C   UNL     1     -40.726  53.271 -53.224  1.00  0.00    -0.058 A 
HETATM    2  C   UNL     1     -41.041  54.611 -53.500  1.00  0.00     0.020 A 
HETATM    3  C   UNL     1     -41.050  55.523 -52.454  1.00  0.00     0.018 A 
HETATM    4  C   UNL     1     -40.731  55.112 -51.160  1.00  0.00     0.045 A 
HETATM    5  N   UNL     1     -40.784  56.185 -50.283  1.00  0.00    -0.323 N 
HETATM    6  C   UNL     1     -41.154  57.362 -50.937  1.00  0.00     0.266 A 
HETATM    7  O   UNL     1     -41.255  58.447 -50.384  1.00  0.00    -0.269 OA
HETATM    8  C   UNL     1     -41.338  57.011 -52.459  1.00  0.00     0.199 A 
HETATM    9  C   UNL     1     -40.415  53.806 -50.854  1.00  0.00     0.031 A 
HETATM   10  C   UNL     1     -40.421  52.880 -51.901  1.00  0.00     0.009 A 
HETATM   11  H   UNL     1     -40.600  56.150 -49.292  1.00  0.00     0.169 HD
ENDROOT
BRANCH   8  12
HETATM   12  O   UNL     1     -40.358  57.681 -53.245  1.00  0.00    -0.371 OA
HETATM   13  H   UNL     1     -39.601  57.077 -53.315  1.00  0.00     0.212 HD
ENDBRANCH   8  12
BRANCH   8  14
HETATM   14  C   UNL     1     -42.757  57.168 -52.966  1.00  0.00     0.025 A 
HETATM   15  C   UNL     1     -43.138  57.551 -54.310  1.00  0.00     0.003 A 
HETATM   16  C   UNL     1     -44.529  57.538 -54.382  1.00  0.00     0.043 A 
HETATM   17  C   UNL     1     -42.424  57.896 -55.480  1.00  0.00     0.014 A 
HETATM   18  C   UNL     1     -45.240  57.844 -55.550  1.00  0.00     0.030 A 
HETATM   19  N   UNL     1     -44.993  57.184 -53.142  1.00  0.00    -0.359 N 
HETATM   20  C   UNL     1     -44.505  58.177 -56.690  1.00  0.00     0.002 A 
HETATM   21  C   UNL     1     -43.116  58.206 -56.658  1.00  0.00     0.001 A 
HETATM   22  H   UNL     1     -45.972  57.103 -52.909  1.00  0.00     0.166 HD
HETATM   23  C   UNL     1     -43.954  56.939 -52.281  1.00  0.00     0.016 A 
HETATM   24  C   UNL     1     -44.234  56.503 -50.885  1.00  0.00     0.069 C 
ENDBRANCH   8  14
BRANCH   1  25
HETATM   25  C   UNL     1     -40.752  52.248 -54.334  1.00  0.00     0.034 C 
HETATM   26  C   UNL     1     -39.927  51.018 -53.985  1.00  0.00     0.010 C 
ENDBRANCH   1  25
TORSDOF 3
ENDMDL
MODEL 5
REMARK VINA RESULT:      -7.6      1.811      5.473
REMARK  3 active torsions:
REMARK  status: ('A' for Active; 'I' for Inactive)
REMARK    1  A    between atoms: C_2  and  C_3 
REMARK    2  A    between atoms: C_10  and  O_11 
REMARK    3  A    between atoms: C_10  and  C_12 
ROOT
HETATM    1  C   UNL     1     -40.994  59.538 -50.870  1.00  0.00    -0.058 A 
HETATM    2  C   UNL     1     -41.126  58.574 -51.881  1.00  0.00     0.020 A 
HETATM    3  C   UNL     1     -42.378  58.362 -52.442  1.00  0.00     0.018 A 
HETATM    4  C   UNL     1     -43.474  59.113 -52.019  1.00  0.00     0.045 A 
HETATM    5  N   UNL     1     -44.612  58.751 -52.723  1.00  0.00    -0.323 N 
HETATM    6  C   UNL     1     -44.343  57.733 -53.641  1.00  0.00     0.266 A 
HETATM    7  O   UNL     1     -45.179  57.253 -54.392  1.00  0.00    -0.269 OA
HETATM    8  C   UNL     1     -42.808  57.409 -53.540  1.00  0.00     0.199 A 
HETATM    9  C   UNL     1     -43.380  60.069 -51.031  1.00  0.00     0.031 A 
HETATM   10  C   UNL     1     -42.125  60.274 -50.450  1.00  0.00     0.009 A 
HETATM   11  H   UNL     1     -45.534  59.142 -52.602  1.00  0.00     0.169 HD
ENDROOT
BRANCH   8  12
HETATM   12  O   UNL     1     -42.146  57.754 -54.753  1.00  0.00    -0.371 OA
HETATM   13  H   UNL     1     -42.828  58.106 -55.348  1.00  0.00     0.212 HD
ENDBRANCH   8  12
BRANCH   8  14
HETATM   14  C   UNL     1     -42.499  56.014 -53.036  1.00  0.00     0.025 A 
HETATM   15  C   UNL     1     -41.624  55.057 -53.682  1.00  0.00     0.003 A 
HETATM   16  C   UNL     1     -41.573  53.917 -52.883  1.00  0.00     0.043 A 
HETATM   17  C   UNL     1     -40.857  55.060 -54.869  1.00  0.00     0.014 A 
HETATM   18  C   UNL     1     -40.801  52.791 -53.200  1.00  0.00     0.030 A 
HETATM   19  N   UNL     1     -42.389  54.143 -51.806  1.00  0.00    -0.359 N 
HETATM   20  C   UNL     1     -40.052  52.827 -54.379  1.00  0.00     0.002 A 
HETATM   21  C   UNL     1     -40.079  53.945 -55.205  1.00  0.00     0.001 A 
HETATM   22  H   UNL     1     -42.544  53.473 -51.066  1.00  0.00     0.166 HD
HETATM   23  C   UNL     1     -42.941  55.397 -51.863  1.00  0.00     0.016 A 
HETATM   24  C   UNL     1     -43.835  55.865 -50.769  1.00  0.00     0.069 C 
ENDBRANCH   8  14
BRANCH   1  25
HETATM   25  C   UNL     1     -39.654  59.759 -50.211  1.00  0.00     0.034 C 
HETATM   26  C   UNL     1     -38.526  59.110 -50.998  1.00  0.00     0.010 C 
ENDBRANCH   1  25
TORSDOF 3
ENDMDL
MODEL 6
REMARK VINA RESULT:      -7.5      2.587      3.865
REMARK  3 active torsions:
REMARK  status: ('A' for Active; 'I' for Inactive)
REMARK    1  A    between atoms: C_2  and  C_3 
REMARK    2  A    between atoms: C_10  and  O_11 
REMARK    3  A    between atoms: C_10  and  C_12 
ROOT
HETATM    1  C   UNL     1     -39.877  51.865 -52.726  1.00  0.00    -0.058 A 
HETATM    2  C   UNL     1     -40.112  53.214 -52.416  1.00  0.00     0.020 A 
HETATM    3  C   UNL     1     -40.423  53.553 -51.106  1.00  0.00     0.018 A 
HETATM    4  C   UNL     1     -40.479  52.570 -50.120  1.00  0.00     0.045 A 
HETATM    5  N   UNL     1     -40.787  53.132 -48.890  1.00  0.00    -0.323 N 
HETATM    6  C   UNL     1     -40.967  54.513 -48.991  1.00  0.00     0.266 A 
HETATM    7  O   UNL     1     -41.229  55.238 -48.043  1.00  0.00    -0.269 OA
HETATM    8  C   UNL     1     -40.710  54.908 -50.491  1.00  0.00     0.199 A 
HETATM    9  C   UNL     1     -40.253  51.237 -50.388  1.00  0.00     0.031 A 
HETATM   10  C   UNL     1     -39.955  50.887 -51.708  1.00  0.00     0.009 A 
HETATM   11  H   UNL     1     -40.890  52.634 -48.020  1.00  0.00     0.169 HD
ENDROOT
BRANCH   8  12
HETATM   12  O   UNL     1     -39.553  55.732 -50.597  1.00  0.00    -0.371 OA
HETATM   13  H   UNL     1     -38.793  55.166 -50.385  1.00  0.00     0.212 HD
ENDBRANCH   8  12
BRANCH   8  14
HETATM   14  C   UNL     1     -41.929  55.451 -51.208  1.00  0.00     0.025 A 
HETATM   15  C   UNL     1     -41.929  56.520 -52.185  1.00  0.00     0.003 A 
HETATM   16  C   UNL     1     -43.236  56.688 -52.637  1.00  0.00     0.043 A 
HETATM   17  C   UNL     1     -40.932  57.354 -52.741  1.00  0.00     0.014 A 
HETATM   18  C   UNL     1     -43.598  57.633 -53.607  1.00  0.00     0.030 A 
HETATM   19  N   UNL     1     -44.015  55.785 -51.962  1.00  0.00    -0.359 N 
HETATM   20  C   UNL     1     -42.589  58.440 -54.138  1.00  0.00     0.002 A 
HETATM   21  C   UNL     1     -41.273  58.305 -53.711  1.00  0.00     0.001 A 
HETATM   22  H   UNL     1     -45.012  55.693 -52.090  1.00  0.00     0.166 HD
HETATM   23  C   UNL     1     -43.255  55.020 -51.114  1.00  0.00     0.016 A 
HETATM   24  C   UNL     1     -43.897  53.946 -50.307  1.00  0.00     0.069 C 
ENDBRANCH   8  14
BRANCH   1  25
HETATM   25  C   UNL     1     -39.579  51.461 -54.149  1.00  0.00     0.034 C 
HETATM   26  C   UNL     1     -39.774  49.967 -54.364  1.00  0.00     0.010 C 
ENDBRANCH   1  25
TORSDOF 3
ENDMDL
MODEL 7
REMARK VINA RESULT:      -7.4      2.166      5.264
REMARK  3 active torsions:
REMARK  status: ('A' for Active; 'I' for Inactive)
REMARK    1  A    between atoms: C_2  and  C_3 
REMARK    2  A    between atoms: C_10  and  O_11 
REMARK    3  A    between atoms: C_10  and  C_12 
ROOT
HETATM    1  C   UNL     1     -41.408  58.986 -51.256  1.00  0.00    -0.058 A 
HETATM    2  C   UNL     1     -41.064  57.907 -52.085  1.00  0.00     0.020 A 
HETATM    3  C   UNL     1     -42.080  57.140 -52.638  1.00  0.00     0.018 A 
HETATM    4  C   UNL     1     -43.415  57.454 -52.386  1.00  0.00     0.045 A 
HETATM    5  N   UNL     1     -44.255  56.573 -53.049  1.00  0.00    -0.323 N 
HETATM    6  C   UNL     1     -43.530  55.618 -53.766  1.00  0.00     0.266 A 
HETATM    7  O   UNL     1     -44.043  54.741 -54.446  1.00  0.00    -0.269 OA
HETATM    8  C   UNL     1     -42.005  55.942 -53.564  1.00  0.00     0.199 A 
HETATM    9  C   UNL     1     -43.789  58.507 -51.579  1.00  0.00     0.031 A 
HETATM   10  C   UNL     1     -42.770  59.273 -51.006  1.00  0.00     0.009 A 
HETATM   11  H   UNL     1     -45.263  56.584 -53.027  1.00  0.00     0.169 HD
ENDROOT
BRANCH   8  12
HETATM   12  O   UNL     1     -41.412  56.333 -54.798  1.00  0.00    -0.371 OA
HETATM   13  H   UNL     1     -42.048  56.923 -55.233  1.00  0.00     0.212 HD
ENDBRANCH   8  12
BRANCH   8  14
HETATM   14  C   UNL     1     -41.237  54.873 -52.814  1.00  0.00     0.025 A 
HETATM   15  C   UNL     1     -41.141  54.754 -51.373  1.00  0.00     0.003 A 
HETATM   16  C   UNL     1     -40.385  53.620 -51.086  1.00  0.00     0.043 A 
HETATM   17  C   UNL     1     -41.643  55.500 -50.282  1.00  0.00     0.014 A 
HETATM   18  C   UNL     1     -40.107  53.193 -49.780  1.00  0.00     0.030 A 
HETATM   19  N   UNL     1     -40.010  53.072 -52.284  1.00  0.00    -0.359 N 
HETATM   20  C   UNL     1     -40.619  53.951 -48.725  1.00  0.00     0.002 A 
HETATM   21  C   UNL     1     -41.376  55.091 -48.970  1.00  0.00     0.001 A 
HETATM   22  H   UNL     1     -39.445  52.240 -52.371  1.00  0.00     0.166 HD
HETATM   23  C   UNL     1     -40.522  53.791 -53.334  1.00  0.00     0.016 A 
HETATM   24  C   UNL     1     -40.267  53.347 -54.732  1.00  0.00     0.069 C 
ENDBRANCH   8  14
BRANCH   1  25
HETATM   25  C   UNL     1     -40.324  59.811 -50.606  1.00  0.00     0.034 C 
HETATM   26  C   UNL     1     -38.939  59.267 -50.917  1.00  0.00     0.010 C 
ENDBRANCH   1  25
TORSDOF 3
ENDMDL
MODEL 8
REMARK VINA RESULT:      -7.1      2.939      4.563
REMARK  3 active torsions:
REMARK  status: ('A' for Active; 'I' for Inactive)
REMARK    1  A    between atoms: C_2  and  C_3 
REMARK    2  A    between atoms: C_10  and  O_11 
REMARK    3  A    between atoms: C_10  and  C_12 
ROOT
HETATM    1  C   UNL     1     -40.936  54.687 -52.812  1.00  0.00    -0.058 A 
HETATM    2  C   UNL     1     -41.137  56.016 -53.215  1.00  0.00     0.020 A 
HETATM    3  C   UNL     1     -41.272  56.996 -52.242  1.00  0.00     0.018 A 
HETATM    4  C   UNL     1     -41.185  56.661 -50.891  1.00  0.00     0.045 A 
HETATM    5  N   UNL     1     -41.328  57.791 -50.100  1.00  0.00    -0.323 N 
HETATM    6  C   UNL     1     -41.531  58.935 -50.876  1.00  0.00     0.266 A 
HETATM    7  O   UNL     1     -41.668  60.057 -50.413  1.00  0.00    -0.269 OA
HETATM    8  C   UNL     1     -41.483  58.490 -52.383  1.00  0.00     0.199 A 
HETATM    9  C   UNL     1     -40.986  55.367 -50.459  1.00  0.00     0.031 A 
HETATM   10  C   UNL     1     -40.867  54.374 -51.435  1.00  0.00     0.009 A 
HETATM   11  H   UNL     1     -41.307  57.815 -49.092  1.00  0.00     0.169 HD
ENDROOT
BRANCH   8  12
HETATM   12  O   UNL     1     -40.358  59.068 -53.037  1.00  0.00    -0.371 OA
HETATM   13  H   UNL     1     -39.822  58.329 -53.366  1.00  0.00     0.212 HD
ENDBRANCH   8  12
BRANCH   8  14
HETATM   14  C   UNL     1     -42.793  58.665 -53.124  1.00  0.00     0.025 A 
HETATM   15  C   UNL     1     -42.939  59.152 -54.480  1.00  0.00     0.003 A 
HETATM   16  C   UNL     1     -44.293  59.122 -54.804  1.00  0.00     0.043 A 
HETATM   17  C   UNL     1     -42.038  59.602 -55.473  1.00  0.00     0.014 A 
HETATM   18  C   UNL     1     -44.793  59.512 -56.054  1.00  0.00     0.030 A 
HETATM   19  N   UNL     1     -44.960  58.661 -53.699  1.00  0.00    -0.359 N 
HETATM   20  C   UNL     1     -43.877  59.949 -57.013  1.00  0.00     0.002 A 
HETATM   21  C   UNL     1     -42.517  59.997 -56.728  1.00  0.00     0.001 A 
HETATM   22  H   UNL     1     -45.963  58.546 -53.654  1.00  0.00     0.166 HD
HETATM   23  C   UNL     1     -44.085  58.362 -52.687  1.00  0.00     0.016 A 
HETATM   24  C   UNL     1     -44.597  57.809 -51.402  1.00  0.00     0.069 C 
ENDBRANCH   8  14
BRANCH   1  25
HETATM   25  C   UNL     1     -40.831  53.594 -53.847  1.00  0.00     0.034 C 
HETATM   26  C   UNL     1     -40.167  54.088 -55.124  1.00  0.00     0.010 C 
ENDBRANCH   1  25
TORSDOF 3
ENDMDL
MODEL 9
REMARK VINA RESULT:      -7.1      3.118      5.763
REMARK  3 active torsions:
REMARK  status: ('A' for Active; 'I' for Inactive)
REMARK    1  A    between atoms: C_2  and  C_3 
REMARK    2  A    between atoms: C_10  and  O_11 
REMARK    3  A    between atoms: C_10  and  C_12 
ROOT
HETATM    1  C   UNL     1     -41.324  54.511 -54.744  1.00  0.00    -0.058 A 
HETATM    2  C   UNL     1     -41.440  55.874 -55.059  1.00  0.00     0.020 A 
HETATM    3  C   UNL     1     -42.681  56.484 -54.937  1.00  0.00     0.018 A 
HETATM    4  C   UNL     1     -43.781  55.755 -54.488  1.00  0.00     0.045 A 
HETATM    5  N   UNL     1     -44.906  56.562 -54.425  1.00  0.00    -0.323 N 
HETATM    6  C   UNL     1     -44.623  57.866 -54.838  1.00  0.00     0.266 A 
HETATM    7  O   UNL     1     -45.445  58.770 -54.857  1.00  0.00    -0.269 OA
HETATM    8  C   UNL     1     -43.092  57.920 -55.193  1.00  0.00     0.199 A 
HETATM    9  C   UNL     1     -43.703  54.416 -54.169  1.00  0.00     0.031 A 
HETATM   10  C   UNL     1     -42.459  53.793 -54.307  1.00  0.00     0.009 A 
HETATM   11  H   UNL     1     -45.828  56.273 -54.135  1.00  0.00     0.169 HD
ENDROOT
BRANCH   8  12
HETATM   12  O   UNL     1     -42.403  58.779 -54.289  1.00  0.00    -0.371 OA
HETATM   13  H   UNL     1     -42.436  59.669 -54.677  1.00  0.00     0.212 HD
ENDBRANCH   8  12
BRANCH   8  14
HETATM   14  C   UNL     1     -42.802  58.191 -56.655  1.00  0.00     0.025 A 
HETATM   15  C   UNL     1     -43.029  57.267 -57.747  1.00  0.00     0.003 A 
HETATM   16  C   UNL     1     -42.675  57.909 -58.932  1.00  0.00     0.043 A 
HETATM   17  C   UNL     1     -43.519  55.945 -57.840  1.00  0.00     0.014 A 
HETATM   18  C   UNL     1     -42.786  57.308 -60.193  1.00  0.00     0.030 A 
HETATM   19  N   UNL     1     -42.231  59.160 -58.594  1.00  0.00    -0.359 N 
HETATM   20  C   UNL     1     -43.276  56.002 -60.251  1.00  0.00     0.002 A 
HETATM   21  C   UNL     1     -43.636  55.326 -59.091  1.00  0.00     0.001 A 
HETATM   22  H   UNL     1     -41.902  59.842 -59.264  1.00  0.00     0.166 HD
HETATM   23  C   UNL     1     -42.313  59.362 -57.241  1.00  0.00     0.016 A 
HETATM   24  C   UNL     1     -41.914  60.673 -56.659  1.00  0.00     0.069 C 
ENDBRANCH   8  14
BRANCH   1  25
HETATM   25  C   UNL     1     -39.997  53.811 -54.910  1.00  0.00     0.034 C 
HETATM   26  C   UNL     1     -40.024  52.406 -54.327  1.00  0.00     0.010 C 
ENDBRANCH   1  25
TORSDOF 3
ENDMDL
MODEL 10
REMARK VINA RESULT:      -7.0      1.688      5.299
REMARK  3 active torsions:
REMARK  status: ('A' for Active; 'I' for Inactive)
REMARK    1  A    between atoms: C_2  and  C_3 
REMARK    2  A    between atoms: C_10  and  O_11 
REMARK    3  A    between atoms: C_10  and  C_12 
ROOT
HETATM    1  C   UNL     1     -41.223  58.359 -53.414  1.00  0.00    -0.058 A 
HETATM    2  C   UNL     1     -40.914  57.013 -53.662  1.00  0.00     0.020 A 
HETATM    3  C   UNL     1     -41.878  56.203 -54.245  1.00  0.00     0.018 A 
HETATM    4  C   UNL     1     -43.121  56.730 -54.595  1.00  0.00     0.045 A 
HETATM    5  N   UNL     1     -43.916  55.755 -55.176  1.00  0.00    -0.323 N 
HETATM    6  C   UNL     1     -43.257  54.525 -55.234  1.00  0.00     0.266 A 
HETATM    7  O   UNL     1     -43.741  53.512 -55.717  1.00  0.00    -0.269 OA
HETATM    8  C   UNL     1     -41.820  54.738 -54.632  1.00  0.00     0.199 A 
HETATM    9  C   UNL     1     -43.458  58.047 -54.368  1.00  0.00     0.031 A 
HETATM   10  C   UNL     1     -42.496  58.863 -53.765  1.00  0.00     0.009 A 
HETATM   11  H   UNL     1     -44.859  55.880 -55.512  1.00  0.00     0.169 HD
ENDROOT
BRANCH   8  12
HETATM   12  O   UNL     1     -40.828  54.553 -55.636  1.00  0.00    -0.371 OA
HETATM   13  H   UNL     1     -41.176  53.882 -56.246  1.00  0.00     0.212 HD
ENDBRANCH   8  12
BRANCH   8  14
HETATM   14  C   UNL     1     -41.562  53.971 -53.351  1.00  0.00     0.025 A 
HETATM   15  C   UNL     1     -40.697  52.817 -53.217  1.00  0.00     0.003 A 
HETATM   16  C   UNL     1     -40.697  52.434 -51.878  1.00  0.00     0.043 A 
HETATM   17  C   UNL     1     -39.899  52.068 -54.112  1.00  0.00     0.014 A 
HETATM   18  C   UNL     1     -39.948  51.356 -51.387  1.00  0.00     0.030 A 
HETATM   19  N   UNL     1     -41.534  53.292 -51.214  1.00  0.00    -0.359 N 
HETATM   20  C   UNL     1     -39.168  50.638 -52.296  1.00  0.00     0.002 A 
HETATM   21  C   UNL     1     -39.144  50.986 -53.642  1.00  0.00     0.001 A 
HETATM   22  H   UNL     1     -41.727  53.239 -50.224  1.00  0.00     0.166 HD
HETATM   23  C   UNL     1     -42.050  54.233 -52.069  1.00  0.00     0.016 A 
HETATM   24  C   UNL     1     -42.959  55.290 -51.547  1.00  0.00     0.069 C 
ENDBRANCH   8  14
BRANCH   1  25
HETATM   25  C   UNL     1     -40.210  59.252 -52.740  1.00  0.00     0.034 C 
HETATM   26  C   UNL     1     -40.536  59.466 -51.269  1.00  0.00     0.010 C 
ENDBRANCH   1  25
TORSDOF 3
ENDMDL
