MODEL 1
REMARK VINA RESULT:      -8.2      0.000      0.000
REMARK  3 active torsions:
REMARK  status: ('A' for Active; 'I' for Inactive)
REMARK       I    between atoms: C_2  and  N_3 
REMARK    1  A    between atoms: N_3  and  N_4 
REMARK       I    between atoms: N_4  and  C_5 
REMARK    2  A    between atoms: C_5  and  C_6 
REMARK    3  A    between atoms: C_11  and  C_12 
ROOT
HETATM    1  C   UNL     1     -41.800  55.151 -51.895  1.00  0.00     0.115 A 
HETATM    2  N   UNL     1     -41.209  54.318 -50.964  1.00  0.00    -0.350 N 
HETATM    3  H   UNL     1     -41.136  54.522 -49.977  1.00  0.00     0.166 HD
HETATM    4  C   UNL     1     -40.678  53.199 -51.554  1.00  0.00     0.044 A 
HETATM    5  C   UNL     1     -40.918  53.307 -52.920  1.00  0.00     0.005 A 
HETATM    6  C   UNL     1     -41.616  54.541 -53.133  1.00  0.00     0.019 A 
HETATM    7  C   UNL     1     -40.001  52.115 -50.982  1.00  0.00     0.032 A 
HETATM    8  C   UNL     1     -39.561  51.101 -51.840  1.00  0.00     0.021 A 
HETATM    9  C   UNL     1     -39.795  51.181 -53.210  1.00  0.00     0.012 A 
HETATM   10 BR   UNL     1     -39.186  49.790 -54.340  1.00  0.00    -0.051 Br
HETATM   11  C   UNL     1     -40.471  52.269 -53.767  1.00  0.00     0.033 A 
ENDROOT
BRANCH   1  12
HETATM   12  C   UNL     1     -42.408  56.422 -51.555  1.00  0.00     0.287 C 
HETATM   13  N   UNL     1     -41.523  57.357 -51.039  1.00  0.00    -0.262 N 
HETATM   14  H   UNL     1     -40.648  57.071 -50.606  1.00  0.00     0.190 HD
HETATM   15  O   UNL     1     -43.601  56.694 -51.689  1.00  0.00    -0.264 OA
BRANCH  13  16
HETATM   16  N   UNL     1     -42.057  58.562 -50.548  1.00  0.00    -0.268 N 
HETATM   17  C   UNL     1     -41.704  59.720 -51.206  1.00  0.00     0.232 C 
HETATM   18  C   UNL     1     -42.171  60.984 -50.539  1.00  0.00     0.119 C 
HETATM   19  O   UNL     1     -41.077  59.716 -52.263  1.00  0.00    -0.272 OA
HETATM   20  H   UNL     1     -42.339  58.551 -49.567  1.00  0.00     0.190 HD
ENDBRANCH  13  16
ENDBRANCH   1  12
BRANCH   6  21
HETATM   21  C   UNL     1     -42.072  55.089 -54.401  1.00  0.00    -0.023 A 
HETATM   22  C   UNL     1     -42.838  54.316 -55.282  1.00  0.00     0.012 A 
HETATM   23  C   UNL     1     -43.241  54.842 -56.512  1.00  0.00     0.001 A 
HETATM   24  C   UNL     1     -42.874  56.140 -56.870  1.00  0.00     0.000 A 
HETATM   25  C   UNL     1     -42.107  56.913 -56.001  1.00  0.00     0.001 A 
HETATM   26  C   UNL     1     -41.707  56.390 -54.770  1.00  0.00     0.012 A 
ENDBRANCH   6  21
TORSDOF 3
ENDMDL
MODEL 2
REMARK VINA RESULT:      -8.1      3.963      5.854
REMARK  3 active torsions:
REMARK  status: ('A' for Active; 'I' for Inactive)
REMARK       I    between atoms: C_2  and  N_3 
REMARK    1  A    between atoms: N_3  and  N_4 
REMARK       I    between atoms: N_4  and  C_5 
REMARK    2  A    between atoms: C_5  and  C_6 
REMARK    3  A    between atoms: C_11  and  C_12 
ROOT
HETATM    1  C   UNL     1     -42.192  55.415 -55.610  1.00  0.00     0.115 A 
HETATM    2  N   UNL     1     -41.624  54.159 -55.510  1.00  0.00    -0.350 N 
HETATM    3  H   UNL     1     -41.569  53.493 -56.268  1.00  0.00     0.166 HD
HETATM    4  C   UNL     1     -41.193  53.901 -54.233  1.00  0.00     0.044 A 
HETATM    5  C   UNL     1     -41.500  55.020 -53.466  1.00  0.00     0.005 A 
HETATM    6  C   UNL     1     -42.137  55.968 -54.334  1.00  0.00     0.019 A 
HETATM    7  C   UNL     1     -40.568  52.764 -53.707  1.00  0.00     0.032 A 
HETATM    8  C   UNL     1     -40.239  52.778 -52.348  1.00  0.00     0.021 A 
HETATM    9  C   UNL     1     -40.528  53.888 -51.559  1.00  0.00     0.012 A 
HETATM   10 BR   UNL     1     -40.067  53.872 -49.724  1.00  0.00    -0.051 Br
HETATM   11  C   UNL     1     -41.153  55.016 -52.098  1.00  0.00     0.033 A 
ENDROOT
BRANCH   1  12
HETATM   12  C   UNL     1     -42.765  55.936 -56.836  1.00  0.00     0.287 C 
HETATM   13  N   UNL     1     -43.566  55.033 -57.519  1.00  0.00    -0.262 N 
HETATM   14  H   UNL     1     -43.463  54.029 -57.382  1.00  0.00     0.190 HD
HETATM   15  O   UNL     1     -42.583  57.071 -57.275  1.00  0.00    -0.264 OA
BRANCH  13  16
HETATM   16  N   UNL     1     -44.039  55.408 -58.789  1.00  0.00    -0.268 N 
HETATM   17  C   UNL     1     -44.578  54.415 -59.577  1.00  0.00     0.232 C 
HETATM   18  C   UNL     1     -44.915  54.844 -60.978  1.00  0.00     0.119 C 
HETATM   19  O   UNL     1     -44.785  53.277 -59.160  1.00  0.00    -0.272 OA
HETATM   20  H   UNL     1     -43.629  56.258 -59.179  1.00  0.00     0.190 HD
ENDBRANCH  13  16
ENDBRANCH   1  12
BRANCH   6  21
HETATM   21  C   UNL     1     -42.645  57.285 -53.980  1.00  0.00    -0.023 A 
HETATM   22  C   UNL     1     -41.806  58.407 -54.003  1.00  0.00     0.012 A 
HETATM   23  C   UNL     1     -42.297  59.660 -53.629  1.00  0.00     0.001 A 
HETATM   24  C   UNL     1     -43.624  59.797 -53.223  1.00  0.00     0.000 A 
HETATM   25  C   UNL     1     -44.463  58.685 -53.191  1.00  0.00     0.001 A 
HETATM   26  C   UNL     1     -43.975  57.432 -53.569  1.00  0.00     0.012 A 
ENDBRANCH   6  21
TORSDOF 3
ENDMDL
MODEL 3
REMARK VINA RESULT:      -7.9      3.920      5.327
REMARK  3 active torsions:
REMARK  status: ('A' for Active; 'I' for Inactive)
REMARK       I    between atoms: C_2  and  N_3 
REMARK    1  A    between atoms: N_3  and  N_4 
REMARK       I    between atoms: N_4  and  C_5 
REMARK    2  A    between atoms: C_5  and  C_6 
REMARK    3  A    between atoms: C_11  and  C_12 
ROOT
HETATM    1  C   UNL     1     -44.346  56.997 -55.078  1.00  0.00     0.115 A 
HETATM    2  N   UNL     1     -44.391  56.448 -53.811  1.00  0.00    -0.350 N 
HETATM    3  H   UNL     1     -44.993  56.772 -53.067  1.00  0.00     0.166 HD
HETATM    4  C   UNL     1     -43.472  55.439 -53.665  1.00  0.00     0.044 A 
HETATM    5  C   UNL     1     -42.792  55.331 -54.875  1.00  0.00     0.005 A 
HETATM    6  C   UNL     1     -43.338  56.320 -55.759  1.00  0.00     0.019 A 
HETATM    7  C   UNL     1     -43.191  54.629 -52.558  1.00  0.00     0.032 A 
HETATM    8  C   UNL     1     -42.183  53.670 -52.698  1.00  0.00     0.021 A 
HETATM    9  C   UNL     1     -41.493  53.536 -53.899  1.00  0.00     0.012 A 
HETATM   10 BR   UNL     1     -40.135  52.226 -54.052  1.00  0.00    -0.051 Br
HETATM   11  C   UNL     1     -41.783  54.352 -54.996  1.00  0.00     0.033 A 
ENDROOT
BRANCH   1  12
HETATM   12  C   UNL     1     -45.182  58.105 -55.497  1.00  0.00     0.287 C 
HETATM   13  N   UNL     1     -46.235  57.743 -56.324  1.00  0.00    -0.262 N 
HETATM   14  H   UNL     1     -46.206  56.882 -56.867  1.00  0.00     0.190 HD
HETATM   15  O   UNL     1     -45.010  59.281 -55.178  1.00  0.00    -0.264 OA
BRANCH  13  16
HETATM   16  N   UNL     1     -47.004  58.773 -56.893  1.00  0.00    -0.268 N 
HETATM   17  C   UNL     1     -47.249  58.700 -58.247  1.00  0.00     0.232 C 
HETATM   18  C   UNL     1     -47.933  59.907 -58.825  1.00  0.00     0.119 C 
HETATM   19  O   UNL     1     -46.950  57.716 -58.922  1.00  0.00    -0.272 OA
HETATM   20  H   UNL     1     -47.005  59.657 -56.382  1.00  0.00     0.190 HD
ENDBRANCH  13  16
ENDBRANCH   1  12
BRANCH   6  21
HETATM   21  C   UNL     1     -42.939  56.592 -57.131  1.00  0.00    -0.023 A 
HETATM   22  C   UNL     1     -42.294  57.790 -57.466  1.00  0.00     0.012 A 
HETATM   23  C   UNL     1     -41.946  58.054 -58.793  1.00  0.00     0.001 A 
HETATM   24  C   UNL     1     -42.247  57.129 -59.791  1.00  0.00     0.000 A 
HETATM   25  C   UNL     1     -42.894  55.938 -59.467  1.00  0.00     0.001 A 
HETATM   26  C   UNL     1     -43.239  55.670 -58.141  1.00  0.00     0.012 A 
ENDBRANCH   6  21
TORSDOF 3
ENDMDL
MODEL 4
REMARK VINA RESULT:      -7.9      1.371      1.861
REMARK  3 active torsions:
REMARK  status: ('A' for Active; 'I' for Inactive)
REMARK       I    between atoms: C_2  and  N_3 
REMARK    1  A    between atoms: N_3  and  N_4 
REMARK       I    between atoms: N_4  and  C_5 
REMARK    2  A    between atoms: C_5  and  C_6 
REMARK    3  A    between atoms: C_11  and  C_12 
ROOT
HETATM    1  C   UNL     1     -41.498  55.271 -51.515  1.00  0.00     0.115 A 
HETATM    2  N   UNL     1     -40.932  54.346 -50.660  1.00  0.00    -0.350 N 
HETATM    3  H   UNL     1     -40.805  54.485 -49.667  1.00  0.00     0.166 HD
HETATM    4  C   UNL     1     -40.507  53.229 -51.334  1.00  0.00     0.044 A 
HETATM    5  C   UNL     1     -40.793  53.434 -52.680  1.00  0.00     0.005 A 
HETATM    6  C   UNL     1     -41.408  54.725 -52.792  1.00  0.00     0.019 A 
HETATM    7  C   UNL     1     -39.889  52.068 -50.854  1.00  0.00     0.032 A 
HETATM    8  C   UNL     1     -39.558  51.079 -51.786  1.00  0.00     0.021 A 
HETATM    9  C   UNL     1     -39.840  51.256 -53.138  1.00  0.00     0.012 A 
HETATM   10 BR   UNL     1     -39.378  49.895 -54.370  1.00  0.00    -0.051 Br
HETATM   11  C   UNL     1     -40.457  52.420 -53.603  1.00  0.00     0.033 A 
ENDROOT
BRANCH   1  12
HETATM   12  C   UNL     1     -41.999  56.560 -51.078  1.00  0.00     0.287 C 
HETATM   13  N   UNL     1     -43.377  56.616 -50.931  1.00  0.00    -0.262 N 
HETATM   14  H   UNL     1     -43.986  55.964 -51.422  1.00  0.00     0.190 HD
HETATM   15  O   UNL     1     -41.303  57.549 -50.850  1.00  0.00    -0.264 OA
BRANCH  13  16
HETATM   16  N   UNL     1     -43.955  57.867 -50.654  1.00  0.00    -0.268 N 
HETATM   17  C   UNL     1     -44.607  58.500 -51.690  1.00  0.00     0.232 C 
HETATM   18  C   UNL     1     -45.061  59.900 -51.379  1.00  0.00     0.119 C 
HETATM   19  O   UNL     1     -44.819  57.956 -52.771  1.00  0.00    -0.272 OA
HETATM   20  H   UNL     1     -43.551  58.375 -49.867  1.00  0.00     0.190 HD
ENDBRANCH  13  16
ENDBRANCH   1  12
BRANCH   6  21
HETATM   21  C   UNL     1     -41.873  55.378 -54.007  1.00  0.00    -0.023 A 
HETATM   22  C   UNL     1     -41.555  56.717 -54.266  1.00  0.00     0.012 A 
HETATM   23  C   UNL     1     -42.036  57.343 -55.419  1.00  0.00     0.001 A 
HETATM   24  C   UNL     1     -42.840  56.637 -56.313  1.00  0.00     0.000 A 
HETATM   25  C   UNL     1     -43.165  55.306 -56.059  1.00  0.00     0.001 A 
HETATM   26  C   UNL     1     -42.683  54.678 -54.909  1.00  0.00     0.012 A 
ENDBRANCH   6  21
TORSDOF 3
ENDMDL
MODEL 5
REMARK VINA RESULT:      -7.9      2.230      2.837
REMARK  3 active torsions:
REMARK  status: ('A' for Active; 'I' for Inactive)
REMARK       I    between atoms: C_2  and  N_3 
REMARK    1  A    between atoms: N_3  and  N_4 
REMARK       I    between atoms: N_4  and  C_5 
REMARK    2  A    between atoms: C_5  and  C_6 
REMARK    3  A    between atoms: C_11  and  C_12 
ROOT
HETATM    1  C   UNL     1     -42.121  56.616 -50.982  1.00  0.00     0.115 A 
HETATM    2  N   UNL     1     -41.674  56.270 -49.721  1.00  0.00    -0.350 N 
HETATM    3  H   UNL     1     -41.638  56.901 -48.933  1.00  0.00     0.166 HD
HETATM    4  C   UNL     1     -41.229  54.972 -49.681  1.00  0.00     0.044 A 
HETATM    5  C   UNL     1     -41.377  54.453 -50.964  1.00  0.00     0.005 A 
HETATM    6  C   UNL     1     -41.930  55.493 -51.783  1.00  0.00     0.019 A 
HETATM    7  C   UNL     1     -40.704  54.233 -48.615  1.00  0.00     0.032 A 
HETATM    8  C   UNL     1     -40.323  52.911 -48.870  1.00  0.00     0.021 A 
HETATM    9  C   UNL     1     -40.468  52.364 -50.142  1.00  0.00     0.012 A 
HETATM   10 BR   UNL     1     -39.943  50.572 -50.450  1.00  0.00    -0.051 Br
HETATM   11  C   UNL     1     -40.993  53.115 -51.198  1.00  0.00     0.033 A 
ENDROOT
BRANCH   1  12
HETATM   12  C   UNL     1     -42.612  57.937 -51.320  1.00  0.00     0.287 C 
HETATM   13  N   UNL     1     -43.964  58.122 -51.075  1.00  0.00    -0.262 N 
HETATM   14  H   UNL     1     -44.603  57.331 -51.022  1.00  0.00     0.190 HD
HETATM   15  O   UNL     1     -41.929  58.846 -51.790  1.00  0.00    -0.264 OA
BRANCH  13  16
HETATM   16  N   UNL     1     -44.550  59.324 -51.511  1.00  0.00    -0.268 N 
HETATM   17  C   UNL     1     -45.767  59.664 -50.963  1.00  0.00     0.232 C 
HETATM   18  C   UNL     1     -46.417  60.869 -51.585  1.00  0.00     0.119 C 
HETATM   19  O   UNL     1     -46.269  59.045 -50.027  1.00  0.00    -0.272 OA
HETATM   20  H   UNL     1     -44.250  59.653 -52.430  1.00  0.00     0.190 HD
ENDBRANCH  13  16
ENDBRANCH   1  12
BRANCH   6  21
HETATM   21  C   UNL     1     -42.252  55.422 -53.200  1.00  0.00    -0.023 A 
HETATM   22  C   UNL     1     -43.346  54.672 -53.650  1.00  0.00     0.012 A 
HETATM   23  C   UNL     1     -43.624  54.585 -55.016  1.00  0.00     0.001 A 
HETATM   24  C   UNL     1     -42.807  55.239 -55.938  1.00  0.00     0.000 A 
HETATM   25  C   UNL     1     -41.714  55.982 -55.498  1.00  0.00     0.001 A 
HETATM   26  C   UNL     1     -41.436  56.073 -54.133  1.00  0.00     0.012 A 
ENDBRANCH   6  21
TORSDOF 3
ENDMDL
MODEL 6
REMARK VINA RESULT:      -7.8      3.636      5.350
REMARK  3 active torsions:
REMARK  status: ('A' for Active; 'I' for Inactive)
REMARK       I    between atoms: C_2  and  N_3 
REMARK    1  A    between atoms: N_3  and  N_4 
REMARK       I    between atoms: N_4  and  C_5 
REMARK    2  A    between atoms: C_5  and  C_6 
REMARK    3  A    between atoms: C_11  and  C_12 
ROOT
HETATM    1  C   UNL     1     -41.854  56.153 -55.339  1.00  0.00     0.115 A 
HETATM    2  N   UNL     1     -41.210  55.004 -55.755  1.00  0.00    -0.350 N 
HETATM    3  H   UNL     1     -41.028  54.767 -56.721  1.00  0.00     0.166 HD
HETATM    4  C   UNL     1     -40.897  54.189 -54.697  1.00  0.00     0.044 A 
HETATM    5  C   UNL     1     -41.362  54.820 -53.547  1.00  0.00     0.005 A 
HETATM    6  C   UNL     1     -41.972  56.052 -53.956  1.00  0.00     0.019 A 
HETATM    7  C   UNL     1     -40.250  52.947 -54.676  1.00  0.00     0.032 A 
HETATM    8  C   UNL     1     -40.067  52.334 -53.433  1.00  0.00     0.021 A 
HETATM    9  C   UNL     1     -40.516  52.947 -52.267  1.00  0.00     0.012 A 
HETATM   10 BR   UNL     1     -40.250  52.088 -50.601  1.00  0.00    -0.051 Br
HETATM   11  C   UNL     1     -41.161  54.186 -52.302  1.00  0.00     0.033 A 
ENDROOT
BRANCH   1  12
HETATM   12  C   UNL     1     -42.332  57.175 -56.250  1.00  0.00     0.287 C 
HETATM   13  N   UNL     1     -42.054  56.922 -57.585  1.00  0.00    -0.262 N 
HETATM   14  H   UNL     1     -41.294  56.301 -57.857  1.00  0.00     0.190 HD
HETATM   15  O   UNL     1     -42.931  58.196 -55.916  1.00  0.00    -0.264 OA
BRANCH  13  16
HETATM   16  N   UNL     1     -42.352  57.931 -58.518  1.00  0.00    -0.268 N 
HETATM   17  C   UNL     1     -42.183  57.625 -59.850  1.00  0.00     0.232 C 
HETATM   18  C   UNL     1     -42.359  58.788 -60.786  1.00  0.00     0.119 C 
HETATM   19  O   UNL     1     -41.930  56.487 -60.241  1.00  0.00    -0.272 OA
HETATM   20  H   UNL     1     -42.303  58.887 -58.164  1.00  0.00     0.190 HD
ENDBRANCH  13  16
ENDBRANCH   1  12
BRANCH   6  21
HETATM   21  C   UNL     1     -42.608  57.046 -53.104  1.00  0.00    -0.023 A 
HETATM   22  C   UNL     1     -41.862  58.089 -52.541  1.00  0.00     0.012 A 
HETATM   23  C   UNL     1     -42.478  59.018 -51.697  1.00  0.00     0.001 A 
HETATM   24  C   UNL     1     -43.838  58.904 -51.408  1.00  0.00     0.000 A 
HETATM   25  C   UNL     1     -44.584  57.866 -51.960  1.00  0.00     0.001 A 
HETATM   26  C   UNL     1     -43.972  56.939 -52.806  1.00  0.00     0.012 A 
ENDBRANCH   6  21
TORSDOF 3
ENDMDL
MODEL 7
REMARK VINA RESULT:      -7.5      3.307      5.736
REMARK  3 active torsions:
REMARK  status: ('A' for Active; 'I' for Inactive)
REMARK       I    between atoms: C_2  and  N_3 
REMARK    1  A    between atoms: N_3  and  N_4 
REMARK       I    between atoms: N_4  and  C_5 
REMARK    2  A    between atoms: C_5  and  C_6 
REMARK    3  A    between atoms: C_11  and  C_12 
ROOT
HETATM    1  C   UNL     1     -43.597  56.943 -52.829  1.00  0.00     0.115 A 
HETATM    2  N   UNL     1     -44.495  57.951 -53.125  1.00  0.00    -0.350 N 
HETATM    3  H   UNL     1     -45.035  58.458 -52.438  1.00  0.00     0.166 HD
HETATM    4  C   UNL     1     -44.609  58.143 -54.480  1.00  0.00     0.044 A 
HETATM    5  C   UNL     1     -43.766  57.221 -55.093  1.00  0.00     0.005 A 
HETATM    6  C   UNL     1     -43.138  56.461 -54.051  1.00  0.00     0.019 A 
HETATM    7  C   UNL     1     -45.397  59.051 -55.197  1.00  0.00     0.032 A 
HETATM    8  C   UNL     1     -45.313  59.018 -56.593  1.00  0.00     0.021 A 
HETATM    9  C   UNL     1     -44.472  58.111 -57.231  1.00  0.00     0.012 A 
HETATM   10 BR   UNL     1     -44.383  58.096 -59.122  1.00  0.00    -0.051 Br
HETATM   11  C   UNL     1     -43.691  57.209 -56.502  1.00  0.00     0.033 A 
ENDROOT
BRANCH   1  12
HETATM   12  C   UNL     1     -43.308  56.504 -51.478  1.00  0.00     0.287 C 
HETATM   13  N   UNL     1     -42.013  56.766 -51.058  1.00  0.00    -0.262 N 
HETATM   14  H   UNL     1     -41.259  56.904 -51.729  1.00  0.00     0.190 HD
HETATM   15  O   UNL     1     -44.108  55.940 -50.732  1.00  0.00    -0.264 OA
BRANCH  13  16
HETATM   16  N   UNL     1     -41.608  56.242 -49.818  1.00  0.00    -0.268 N 
HETATM   17  C   UNL     1     -40.923  55.046 -49.835  1.00  0.00     0.232 C 
HETATM   18  C   UNL     1     -40.661  54.457 -48.476  1.00  0.00     0.119 C 
HETATM   19  O   UNL     1     -40.539  54.518 -50.876  1.00  0.00    -0.272 OA
HETATM   20  H   UNL     1     -42.147  56.554 -49.010  1.00  0.00     0.190 HD
ENDBRANCH  13  16
ENDBRANCH   1  12
BRANCH   6  21
HETATM   21  C   UNL     1     -42.182  55.375 -54.206  1.00  0.00    -0.023 A 
HETATM   22  C   UNL     1     -40.920  55.606 -54.769  1.00  0.00     0.012 A 
HETATM   23  C   UNL     1     -40.023  54.549 -54.943  1.00  0.00     0.001 A 
HETATM   24  C   UNL     1     -40.386  53.256 -54.564  1.00  0.00     0.000 A 
HETATM   25  C   UNL     1     -41.642  53.018 -54.010  1.00  0.00     0.001 A 
HETATM   26  C   UNL     1     -42.537  54.074 -53.831  1.00  0.00     0.012 A 
ENDBRANCH   6  21
TORSDOF 3
ENDMDL
MODEL 8
REMARK VINA RESULT:      -7.5      3.251      4.571
REMARK  3 active torsions:
REMARK  status: ('A' for Active; 'I' for Inactive)
REMARK       I    between atoms: C_2  and  N_3 
REMARK    1  A    between atoms: N_3  and  N_4 
REMARK       I    between atoms: N_4  and  C_5 
REMARK    2  A    between atoms: C_5  and  C_6 
REMARK    3  A    between atoms: C_11  and  C_12 
ROOT
HETATM    1  C   UNL     1     -41.866  54.683 -54.437  1.00  0.00     0.115 A 
HETATM    2  N   UNL     1     -41.220  53.499 -54.138  1.00  0.00    -0.350 N 
HETATM    3  H   UNL     1     -41.038  52.762 -54.805  1.00  0.00     0.166 HD
HETATM    4  C   UNL     1     -40.904  53.419 -52.805  1.00  0.00     0.044 A 
HETATM    5  C   UNL     1     -41.371  54.585 -52.206  1.00  0.00     0.005 A 
HETATM    6  C   UNL     1     -41.984  55.375 -53.235  1.00  0.00     0.019 A 
HETATM    7  C   UNL     1     -40.255  52.404 -52.093  1.00  0.00     0.032 A 
HETATM    8  C   UNL     1     -40.069  52.594 -50.720  1.00  0.00     0.021 A 
HETATM    9  C   UNL     1     -40.519  53.755 -50.098  1.00  0.00     0.012 A 
HETATM   10 BR   UNL     1     -40.250  53.978 -48.237  1.00  0.00    -0.051 Br
HETATM   11  C   UNL     1     -41.167  54.760 -50.821  1.00  0.00     0.033 A 
ENDROOT
BRANCH   1  12
HETATM   12  C   UNL     1     -42.347  55.017 -55.763  1.00  0.00     0.287 C 
HETATM   13  N   UNL     1     -41.735  56.125 -56.330  1.00  0.00    -0.262 N 
HETATM   14  H   UNL     1     -41.283  56.830 -55.751  1.00  0.00     0.190 HD
HETATM   15  O   UNL     1     -43.224  54.405 -56.373  1.00  0.00    -0.264 OA
BRANCH  13  16
HETATM   16  N   UNL     1     -42.245  56.603 -57.550  1.00  0.00    -0.268 N 
HETATM   17  C   UNL     1     -43.017  57.743 -57.504  1.00  0.00     0.232 C 
HETATM   18  C   UNL     1     -43.666  58.110 -58.810  1.00  0.00     0.119 C 
HETATM   19  O   UNL     1     -43.147  58.415 -56.483  1.00  0.00    -0.272 OA
HETATM   20  H   UNL     1     -42.333  55.909 -58.293  1.00  0.00     0.190 HD
ENDBRANCH  13  16
ENDBRANCH   1  12
BRANCH   6  21
HETATM   21  C   UNL     1     -42.622  56.674 -53.087  1.00  0.00    -0.023 A 
HETATM   22  C   UNL     1     -44.015  56.781 -52.981  1.00  0.00     0.012 A 
HETATM   23  C   UNL     1     -44.617  58.037 -52.873  1.00  0.00     0.001 A 
HETATM   24  C   UNL     1     -43.833  59.190 -52.878  1.00  0.00     0.000 A 
HETATM   25  C   UNL     1     -42.448  59.092 -52.988  1.00  0.00     0.001 A 
HETATM   26  C   UNL     1     -41.844  57.838 -53.093  1.00  0.00     0.012 A 
ENDBRANCH   6  21
TORSDOF 3
ENDMDL
MODEL 9
REMARK VINA RESULT:      -7.4      2.189      3.157
REMARK  3 active torsions:
REMARK  status: ('A' for Active; 'I' for Inactive)
REMARK       I    between atoms: C_2  and  N_3 
REMARK    1  A    between atoms: N_3  and  N_4 
REMARK       I    between atoms: N_4  and  C_5 
REMARK    2  A    between atoms: C_5  and  C_6 
REMARK    3  A    between atoms: C_11  and  C_12 
ROOT
HETATM    1  C   UNL     1     -41.950  57.665 -51.119  1.00  0.00     0.115 A 
HETATM    2  N   UNL     1     -41.298  56.948 -50.134  1.00  0.00    -0.350 N 
HETATM    3  H   UNL     1     -41.101  57.298 -49.206  1.00  0.00     0.166 HD
HETATM    4  C   UNL     1     -40.897  55.717 -50.587  1.00  0.00     0.044 A 
HETATM    5  C   UNL     1     -41.287  55.627 -51.920  1.00  0.00     0.005 A 
HETATM    6  C   UNL     1     -41.942  56.859 -52.254  1.00  0.00     0.019 A 
HETATM    7  C   UNL     1     -40.215  54.691 -49.922  1.00  0.00     0.032 A 
HETATM    8  C   UNL     1     -39.930  53.528 -50.646  1.00  0.00     0.021 A 
HETATM    9  C   UNL     1     -40.316  53.410 -51.978  1.00  0.00     0.012 A 
HETATM   10 BR   UNL     1     -39.914  51.822 -52.927  1.00  0.00    -0.051 Br
HETATM   11  C   UNL     1     -40.996  54.443 -52.630  1.00  0.00     0.033 A 
ENDROOT
BRANCH   1  12
HETATM   12  C   UNL     1     -42.449  59.013 -50.928  1.00  0.00     0.287 C 
HETATM   13  N   UNL     1     -43.808  59.085 -50.663  1.00  0.00    -0.262 N 
HETATM   14  H   UNL     1     -44.439  58.334 -50.937  1.00  0.00     0.190 HD
HETATM   15  O   UNL     1     -41.767  60.035 -50.990  1.00  0.00    -0.264 OA
BRANCH  13  16
HETATM   16  N   UNL     1     -44.398  60.359 -50.611  1.00  0.00    -0.268 N 
HETATM   17  C   UNL     1     -45.590  60.473 -49.928  1.00  0.00     0.232 C 
HETATM   18  C   UNL     1     -46.251  61.818 -50.045  1.00  0.00     0.119 C 
HETATM   19  O   UNL     1     -46.060  59.554 -49.260  1.00  0.00    -0.272 OA
HETATM   20  H   UNL     1     -44.131  61.000 -51.359  1.00  0.00     0.190 HD
ENDBRANCH  13  16
ENDBRANCH   1  12
BRANCH   6  21
HETATM   21  C   UNL     1     -42.512  57.234 -53.539  1.00  0.00    -0.023 A 
HETATM   22  C   UNL     1     -41.778  58.003 -54.452  1.00  0.00     0.012 A 
HETATM   23  C   UNL     1     -42.350  58.384 -55.669  1.00  0.00     0.001 A 
HETATM   24  C   UNL     1     -43.657  58.007 -55.975  1.00  0.00     0.000 A 
HETATM   25  C   UNL     1     -44.395  57.248 -55.069  1.00  0.00     0.001 A 
HETATM   26  C   UNL     1     -43.824  56.862 -53.855  1.00  0.00     0.012 A 
ENDBRANCH   6  21
TORSDOF 3
ENDMDL
MODEL 10
REMARK VINA RESULT:      -7.3      3.163      4.063
REMARK  3 active torsions:
REMARK  status: ('A' for Active; 'I' for Inactive)
REMARK       I    between atoms: C_2  and  N_3 
REMARK    1  A    between atoms: N_3  and  N_4 
REMARK       I    between atoms: N_4  and  C_5 
REMARK    2  A    between atoms: C_5  and  C_6 
REMARK    3  A    between atoms: C_11  and  C_12 
ROOT
HETATM    1  C   UNL     1     -44.252  56.864 -54.777  1.00  0.00     0.115 A 
HETATM    2  N   UNL     1     -44.225  56.286 -53.522  1.00  0.00    -0.350 N 
HETATM    3  H   UNL     1     -44.776  56.599 -52.735  1.00  0.00     0.166 HD
HETATM    4  C   UNL     1     -43.310  55.265 -53.456  1.00  0.00     0.044 A 
HETATM    5  C   UNL     1     -42.707  55.178 -54.708  1.00  0.00     0.005 A 
HETATM    6  C   UNL     1     -43.296  56.192 -55.534  1.00  0.00     0.019 A 
HETATM    7  C   UNL     1     -42.970  54.428 -52.387  1.00  0.00     0.032 A 
HETATM    8  C   UNL     1     -41.984  53.462 -52.609  1.00  0.00     0.021 A 
HETATM    9  C   UNL     1     -41.371  53.349 -53.854  1.00  0.00     0.012 A 
HETATM   10 BR   UNL     1     -40.040  52.029 -54.119  1.00  0.00    -0.051 Br
HETATM   11  C   UNL     1     -41.719  54.192 -54.913  1.00  0.00     0.033 A 
ENDROOT
BRANCH   1  12
HETATM   12  C   UNL     1     -45.099  57.989 -55.119  1.00  0.00     0.287 C 
HETATM   13  N   UNL     1     -44.982  59.072 -54.261  1.00  0.00    -0.262 N 
HETATM   14  H   UNL     1     -44.635  58.957 -53.311  1.00  0.00     0.190 HD
HETATM   15  O   UNL     1     -45.875  58.026 -56.073  1.00  0.00    -0.264 OA
BRANCH  13  16
HETATM   16  N   UNL     1     -45.874  60.145 -54.435  1.00  0.00    -0.268 N 
HETATM   17  C   UNL     1     -45.955  61.066 -53.414  1.00  0.00     0.232 C 
HETATM   18  C   UNL     1     -47.039  62.094 -53.585  1.00  0.00     0.119 C 
HETATM   19  O   UNL     1     -45.188  61.060 -52.453  1.00  0.00    -0.272 OA
HETATM   20  H   UNL     1     -46.642  59.979 -55.087  1.00  0.00     0.190 HD
ENDBRANCH  13  16
ENDBRANCH   1  12
BRANCH   6  21
HETATM   21  C   UNL     1     -42.979  56.492 -56.922  1.00  0.00    -0.023 A 
HETATM   22  C   UNL     1     -42.337  57.688 -57.269  1.00  0.00     0.012 A 
HETATM   23  C   UNL     1     -42.069  57.979 -58.608  1.00  0.00     0.001 A 
HETATM   24  C   UNL     1     -42.446  57.082 -59.607  1.00  0.00     0.000 A 
HETATM   25  C   UNL     1     -43.090  55.893 -59.271  1.00  0.00     0.001 A 
HETATM   26  C   UNL     1     -43.356  55.598 -57.932  1.00  0.00     0.012 A 
ENDBRANCH   6  21
TORSDOF 3
ENDMDL
