MODEL 1
REMARK VINA RESULT:      -9.4      0.000      0.000
REMARK  5 active torsions:
REMARK  status: ('A' for Active; 'I' for Inactive)
REMARK    1  A    between atoms: C_9  and  C_10 
REMARK    2  A    between atoms: C_10  and  C_11 
REMARK       I    between atoms: C_11  and  N_12 
REMARK    3  A    between atoms: N_12  and  C_13 
REMARK    4  A    between atoms: C_13  and  C_14 
REMARK    5  A    between atoms: N_16  and  C_17 
ROOT
HETATM    1  C   UNL     1     -40.794  54.196 -53.532  1.00  0.00     0.084 A 
HETATM    2  N   UNL     1     -41.248  55.297 -53.007  1.00  0.00    -0.171 NA
HETATM    3  N   UNL     1     -41.420  55.386 -51.650  1.00  0.00    -0.229 N 
HETATM    4  C   UNL     1     -41.096  54.364 -50.758  1.00  0.00     0.275 A 
HETATM    5  O   UNL     1     -41.208  54.452 -49.537  1.00  0.00    -0.266 OA
HETATM    6  C   UNL     1     -40.574  53.117 -51.345  1.00  0.00     0.046 A 
HETATM    7  C   UNL     1     -40.399  53.020 -52.722  1.00  0.00     0.008 A 
HETATM    8  C   UNL     1     -40.235  52.044 -50.508  1.00  0.00     0.018 A 
HETATM    9  C   UNL     1     -39.712  50.873 -51.051  1.00  0.00     0.001 A 
HETATM   10  C   UNL     1     -39.522  50.776 -52.427  1.00  0.00     0.001 A 
HETATM   11  C   UNL     1     -39.860  51.845 -53.263  1.00  0.00     0.014 A 
ENDROOT
BRANCH   1  12
HETATM   12  C   UNL     1     -40.636  54.162 -55.052  1.00  0.00     0.184 C 
BRANCH  12  13
HETATM   13  N   UNL     1     -41.038  55.435 -55.613  1.00  0.00    -0.355 N 
HETATM   14  C   UNL     1     -42.259  55.584 -56.231  1.00  0.00     0.222 C 
HETATM   15  O   UNL     1     -43.071  54.664 -56.313  1.00  0.00    -0.273 OA
HETATM   16  H   UNL     1     -40.304  56.120 -55.777  1.00  0.00     0.162 HD
BRANCH  14  17
HETATM   17  C   UNL     1     -42.540  56.977 -56.749  1.00  0.00     0.143 C 
BRANCH  17  18
HETATM   18  C   UNL     1     -43.834  57.179 -57.477  1.00  0.00    -0.021 A 
HETATM   19  C   UNL     1     -44.358  56.564 -58.667  1.00  0.00    -0.001 A 
HETATM   20  C   UNL     1     -45.618  57.126 -58.911  1.00  0.00     0.044 A 
HETATM   21  C   UNL     1     -43.893  55.580 -59.568  1.00  0.00     0.014 A 
HETATM   22  N   UNL     1     -45.861  58.030 -57.903  1.00  0.00    -0.360 N 
HETATM   23  C   UNL     1     -46.412  56.752 -60.010  1.00  0.00     0.030 A 
HETATM   24  C   UNL     1     -47.069  58.810 -57.760  1.00  0.00     0.155 C 
HETATM   25  C   UNL     1     -44.799  58.076 -57.047  1.00  0.00     0.099 A 
HETATM   26  C   UNL     1     -45.918  55.783 -60.884  1.00  0.00     0.002 A 
HETATM   27  C   UNL     1     -44.675  55.202 -60.667  1.00  0.00     0.001 A 
ENDBRANCH  17  18
ENDBRANCH  14  17
ENDBRANCH  12  13
ENDBRANCH   1  12
BRANCH   3  28
HETATM   28  C   UNL     1     -41.821  56.680 -51.104  1.00  0.00     0.114 C 
HETATM   29  C   UNL     1     -40.629  57.606 -50.864  1.00  0.00     0.027 C 
HETATM   30  C   UNL     1     -41.256  58.983 -50.677  1.00  0.00     0.002 C 
HETATM   31  C   UNL     1     -42.613  58.933 -51.382  1.00  0.00     0.002 C 
HETATM   32  C   UNL     1     -42.722  57.540 -51.993  1.00  0.00     0.027 C 
ENDBRANCH   3  28
TORSDOF 5
ENDMDL
MODEL 2
REMARK VINA RESULT:      -9.4      2.531      8.197
REMARK  5 active torsions:
REMARK  status: ('A' for Active; 'I' for Inactive)
REMARK    1  A    between atoms: C_9  and  C_10 
REMARK    2  A    between atoms: C_10  and  C_11 
REMARK       I    between atoms: C_11  and  N_12 
REMARK    3  A    between atoms: N_12  and  C_13 
REMARK    4  A    between atoms: C_13  and  C_14 
REMARK    5  A    between atoms: N_16  and  C_17 
ROOT
HETATM    1  C   UNL     1     -42.424  57.089 -56.665  1.00  0.00     0.084 A 
HETATM    2  N   UNL     1     -42.281  57.708 -55.529  1.00  0.00    -0.171 NA
HETATM    3  N   UNL     1     -42.024  59.055 -55.514  1.00  0.00    -0.229 N 
HETATM    4  C   UNL     1     -41.943  59.842 -56.663  1.00  0.00     0.275 A 
HETATM    5  O   UNL     1     -41.755  61.056 -56.655  1.00  0.00    -0.266 OA
HETATM    6  C   UNL     1     -42.111  59.147 -57.951  1.00  0.00     0.046 A 
HETATM    7  C   UNL     1     -42.370  57.781 -57.973  1.00  0.00     0.008 A 
HETATM    8  C   UNL     1     -42.033  59.876 -59.148  1.00  0.00     0.018 A 
HETATM    9  C   UNL     1     -42.222  59.234 -60.369  1.00  0.00     0.001 A 
HETATM   10  C   UNL     1     -42.494  57.869 -60.396  1.00  0.00     0.001 A 
HETATM   11  C   UNL     1     -42.573  57.142 -59.204  1.00  0.00     0.014 A 
ENDROOT
BRANCH   1  12
HETATM   12  C   UNL     1     -42.698  55.586 -56.609  1.00  0.00     0.184 C 
BRANCH  12  13
HETATM   13  N   UNL     1     -41.528  54.894 -56.108  1.00  0.00    -0.355 N 
HETATM   14  C   UNL     1     -41.619  54.024 -55.045  1.00  0.00     0.222 C 
HETATM   15  O   UNL     1     -42.688  53.772 -54.492  1.00  0.00    -0.273 OA
HETATM   16  H   UNL     1     -40.621  55.268 -56.377  1.00  0.00     0.162 HD
BRANCH  14  17
HETATM   17  C   UNL     1     -40.314  53.368 -54.652  1.00  0.00     0.143 C 
BRANCH  17  18
HETATM   18  C   UNL     1     -40.213  52.855 -53.247  1.00  0.00    -0.021 A 
HETATM   19  C   UNL     1     -40.464  53.495 -51.985  1.00  0.00    -0.001 A 
HETATM   20  C   UNL     1     -40.210  52.554 -50.977  1.00  0.00     0.044 A 
HETATM   21  C   UNL     1     -40.885  54.784 -51.586  1.00  0.00     0.014 A 
HETATM   22  N   UNL     1     -39.840  51.385 -51.600  1.00  0.00    -0.360 N 
HETATM   23  C   UNL     1     -40.352  52.853 -49.611  1.00  0.00     0.030 A 
HETATM   24  C   UNL     1     -39.520  50.148 -50.924  1.00  0.00     0.155 C 
HETATM   25  C   UNL     1     -39.829  51.556 -52.955  1.00  0.00     0.099 A 
HETATM   26  C   UNL     1     -40.762  54.137 -49.254  1.00  0.00     0.002 A 
HETATM   27  C   UNL     1     -41.028  55.092 -50.227  1.00  0.00     0.001 A 
ENDBRANCH  17  18
ENDBRANCH  14  17
ENDBRANCH  12  13
ENDBRANCH   1  12
BRANCH   3  28
HETATM   28  C   UNL     1     -41.988  59.720 -54.214  1.00  0.00     0.114 C 
HETATM   29  C   UNL     1     -43.327  59.638 -53.481  1.00  0.00     0.027 C 
HETATM   30  C   UNL     1     -42.992  60.024 -52.045  1.00  0.00     0.002 C 
HETATM   31  C   UNL     1     -41.503  59.726 -51.860  1.00  0.00     0.002 C 
HETATM   32  C   UNL     1     -41.021  59.138 -53.182  1.00  0.00     0.027 C 
ENDBRANCH   3  28
TORSDOF 5
ENDMDL
MODEL 3
REMARK VINA RESULT:      -9.3      2.580      8.215
REMARK  5 active torsions:
REMARK  status: ('A' for Active; 'I' for Inactive)
REMARK    1  A    between atoms: C_9  and  C_10 
REMARK    2  A    between atoms: C_10  and  C_11 
REMARK       I    between atoms: C_11  and  N_12 
REMARK    3  A    between atoms: N_12  and  C_13 
REMARK    4  A    between atoms: C_13  and  C_14 
REMARK    5  A    between atoms: N_16  and  C_17 
ROOT
HETATM    1  C   UNL     1     -42.478  57.432 -56.611  1.00  0.00     0.084 A 
HETATM    2  N   UNL     1     -42.419  58.146 -55.524  1.00  0.00    -0.171 NA
HETATM    3  N   UNL     1     -42.210  59.499 -55.608  1.00  0.00    -0.229 N 
HETATM    4  C   UNL     1     -42.094  60.193 -56.812  1.00  0.00     0.275 A 
HETATM    5  O   UNL     1     -41.949  61.411 -56.896  1.00  0.00    -0.266 OA
HETATM    6  C   UNL     1     -42.167  59.390 -58.046  1.00  0.00     0.046 A 
HETATM    7  C   UNL     1     -42.377  58.018 -57.967  1.00  0.00     0.008 A 
HETATM    8  C   UNL     1     -42.050  60.022 -59.293  1.00  0.00     0.018 A 
HETATM    9  C   UNL     1     -42.149  59.276 -60.465  1.00  0.00     0.001 A 
HETATM   10  C   UNL     1     -42.372  57.904 -60.392  1.00  0.00     0.001 A 
HETATM   11  C   UNL     1     -42.490  57.273 -59.149  1.00  0.00     0.014 A 
ENDROOT
BRANCH   1  12
HETATM   12  C   UNL     1     -42.702  55.929 -56.444  1.00  0.00     0.184 C 
BRANCH  12  13
HETATM   13  N   UNL     1     -41.516  55.318 -55.880  1.00  0.00    -0.355 N 
HETATM   14  C   UNL     1     -41.598  54.155 -55.148  1.00  0.00     0.222 C 
HETATM   15  O   UNL     1     -42.662  53.569 -54.961  1.00  0.00    -0.273 OA
HETATM   16  H   UNL     1     -40.686  55.901 -55.808  1.00  0.00     0.162 HD
BRANCH  14  17
HETATM   17  C   UNL     1     -40.272  53.633 -54.641  1.00  0.00     0.143 C 
BRANCH  17  18
HETATM   18  C   UNL     1     -40.243  53.114 -53.235  1.00  0.00    -0.021 A 
HETATM   19  C   UNL     1     -40.010  51.793 -52.718  1.00  0.00    -0.001 A 
HETATM   20  C   UNL     1     -40.100  51.866 -51.320  1.00  0.00     0.044 A 
HETATM   21  C   UNL     1     -39.729  50.532 -53.291  1.00  0.00     0.014 A 
HETATM   22  N   UNL     1     -40.356  53.179 -51.000  1.00  0.00    -0.360 N 
HETATM   23  C   UNL     1     -39.929  50.743 -50.493  1.00  0.00     0.030 A 
HETATM   24  C   UNL     1     -40.491  53.695 -49.656  1.00  0.00     0.155 C 
HETATM   25  C   UNL     1     -40.452  53.931 -52.135  1.00  0.00     0.099 A 
HETATM   26  C   UNL     1     -39.660  49.513 -51.094  1.00  0.00     0.002 A 
HETATM   27  C   UNL     1     -39.559  49.407 -52.475  1.00  0.00     0.001 A 
ENDBRANCH  17  18
ENDBRANCH  14  17
ENDBRANCH  12  13
ENDBRANCH   1  12
BRANCH   3  28
HETATM   28  C   UNL     1     -42.268  60.268 -54.367  1.00  0.00     0.114 C 
HETATM   29  C   UNL     1     -43.703  60.570 -53.936  1.00  0.00     0.027 C 
HETATM   30  C   UNL     1     -43.571  61.014 -52.483  1.00  0.00     0.002 C 
HETATM   31  C   UNL     1     -42.266  60.405 -51.967  1.00  0.00     0.002 C 
HETATM   32  C   UNL     1     -41.693  59.590 -53.123  1.00  0.00     0.027 C 
ENDBRANCH   3  28
TORSDOF 5
ENDMDL
MODEL 4
REMARK VINA RESULT:      -9.0      2.809      8.151
REMARK  5 active torsions:
REMARK  status: ('A' for Active; 'I' for Inactive)
REMARK    1  A    between atoms: C_9  and  C_10 
REMARK    2  A    between atoms: C_10  and  C_11 
REMARK       I    between atoms: C_11  and  N_12 
REMARK    3  A    between atoms: N_12  and  C_13 
REMARK    4  A    between atoms: C_13  and  C_14 
REMARK    5  A    between atoms: N_16  and  C_17 
ROOT
HETATM    1  C   UNL     1     -43.404  57.500 -56.583  1.00  0.00     0.084 A 
HETATM    2  N   UNL     1     -43.094  58.358 -57.512  1.00  0.00    -0.171 NA
HETATM    3  N   UNL     1     -43.260  59.700 -57.285  1.00  0.00    -0.229 N 
HETATM    4  C   UNL     1     -43.712  60.232 -56.077  1.00  0.00     0.275 A 
HETATM    5  O   UNL     1     -43.823  61.435 -55.852  1.00  0.00    -0.266 OA
HETATM    6  C   UNL     1     -44.058  59.266 -55.019  1.00  0.00     0.046 A 
HETATM    7  C   UNL     1     -43.893  57.904 -55.244  1.00  0.00     0.008 A 
HETATM    8  C   UNL     1     -44.527  59.731 -53.781  1.00  0.00     0.018 A 
HETATM    9  C   UNL     1     -44.826  58.827 -52.765  1.00  0.00     0.001 A 
HETATM   10  C   UNL     1     -44.651  57.463 -52.981  1.00  0.00     0.001 A 
HETATM   11  C   UNL     1     -44.182  56.999 -54.214  1.00  0.00     0.014 A 
ENDROOT
BRANCH   1  12
HETATM   12  C   UNL     1     -43.204  56.020 -56.907  1.00  0.00     0.184 C 
BRANCH  12  13
HETATM   13  N   UNL     1     -41.922  55.577 -56.397  1.00  0.00    -0.355 N 
HETATM   14  C   UNL     1     -41.836  54.526 -55.512  1.00  0.00     0.222 C 
HETATM   15  O   UNL     1     -42.825  53.900 -55.136  1.00  0.00    -0.273 OA
HETATM   16  H   UNL     1     -41.140  56.220 -56.493  1.00  0.00     0.162 HD
BRANCH  14  17
HETATM   17  C   UNL     1     -40.428  54.172 -55.087  1.00  0.00     0.143 C 
BRANCH  17  18
HETATM   18  C   UNL     1     -40.281  53.418 -53.800  1.00  0.00    -0.021 A 
HETATM   19  C   UNL     1     -40.024  52.027 -53.543  1.00  0.00    -0.001 A 
HETATM   20  C   UNL     1     -39.986  51.856 -52.152  1.00  0.00     0.044 A 
HETATM   21  C   UNL     1     -39.814  50.885 -54.349  1.00  0.00     0.014 A 
HETATM   22  N   UNL     1     -40.192  53.093 -51.587  1.00  0.00    -0.360 N 
HETATM   23  C   UNL     1     -39.759  50.606 -51.550  1.00  0.00     0.030 A 
HETATM   24  C   UNL     1     -40.198  53.368 -50.167  1.00  0.00     0.155 C 
HETATM   25  C   UNL     1     -40.378  54.031 -52.561  1.00  0.00     0.099 A 
HETATM   26  C   UNL     1     -39.565  49.499 -52.377  1.00  0.00     0.002 A 
HETATM   27  C   UNL     1     -39.589  49.634 -53.759  1.00  0.00     0.001 A 
ENDBRANCH  17  18
ENDBRANCH  14  17
ENDBRANCH  12  13
ENDBRANCH   1  12
BRANCH   3  28
HETATM   28  C   UNL     1     -42.789  60.622 -58.315  1.00  0.00     0.114 C 
HETATM   29  C   UNL     1     -41.399  61.178 -58.007  1.00  0.00     0.027 C 
HETATM   30  C   UNL     1     -40.937  61.782 -59.329  1.00  0.00     0.002 C 
HETATM   31  C   UNL     1     -41.725  61.063 -60.425  1.00  0.00     0.002 C 
HETATM   32  C   UNL     1     -42.598  60.033 -59.714  1.00  0.00     0.027 C 
ENDBRANCH   3  28
TORSDOF 5
ENDMDL
MODEL 5
REMARK VINA RESULT:      -8.9      2.635      5.734
REMARK  5 active torsions:
REMARK  status: ('A' for Active; 'I' for Inactive)
REMARK    1  A    between atoms: C_9  and  C_10 
REMARK    2  A    between atoms: C_10  and  C_11 
REMARK       I    between atoms: C_11  and  N_12 
REMARK    3  A    between atoms: N_12  and  C_13 
REMARK    4  A    between atoms: C_13  and  C_14 
REMARK    5  A    between atoms: N_16  and  C_17 
ROOT
HETATM    1  C   UNL     1     -41.494  55.420 -51.925  1.00  0.00     0.084 A 
HETATM    2  N   UNL     1     -42.338  56.029 -52.707  1.00  0.00    -0.171 NA
HETATM    3  N   UNL     1     -42.673  55.473 -53.915  1.00  0.00    -0.229 N 
HETATM    4  C   UNL     1     -42.190  54.244 -54.364  1.00  0.00     0.275 A 
HETATM    5  O   UNL     1     -42.518  53.720 -55.426  1.00  0.00    -0.266 OA
HETATM    6  C   UNL     1     -41.239  53.546 -53.480  1.00  0.00     0.046 A 
HETATM    7  C   UNL     1     -40.894  54.106 -52.254  1.00  0.00     0.008 A 
HETATM    8  C   UNL     1     -40.707  52.309 -53.872  1.00  0.00     0.018 A 
HETATM    9  C   UNL     1     -39.831  51.628 -53.030  1.00  0.00     0.001 A 
HETATM   10  C   UNL     1     -39.494  52.177 -51.796  1.00  0.00     0.001 A 
HETATM   11  C   UNL     1     -40.024  53.410 -51.404  1.00  0.00     0.014 A 
ENDROOT
BRANCH   1  12
HETATM   12  C   UNL     1     -41.157  56.100 -50.598  1.00  0.00     0.184 C 
BRANCH  12  13
HETATM   13  N   UNL     1     -41.820  57.387 -50.528  1.00  0.00    -0.355 N 
HETATM   14  C   UNL     1     -41.106  58.559 -50.642  1.00  0.00     0.222 C 
HETATM   15  O   UNL     1     -39.892  58.573 -50.834  1.00  0.00    -0.273 OA
HETATM   16  H   UNL     1     -42.754  57.403 -50.128  1.00  0.00     0.162 HD
BRANCH  14  17
HETATM   17  C   UNL     1     -41.941  59.817 -50.566  1.00  0.00     0.143 C 
BRANCH  17  18
HETATM   18  C   UNL     1     -42.669  60.221 -51.811  1.00  0.00    -0.021 A 
HETATM   19  C   UNL     1     -44.035  60.618 -52.023  1.00  0.00    -0.001 A 
HETATM   20  C   UNL     1     -44.188  60.888 -53.390  1.00  0.00     0.044 A 
HETATM   21  C   UNL     1     -45.167  60.782 -51.192  1.00  0.00     0.014 A 
HETATM   22  N   UNL     1     -42.964  60.683 -53.982  1.00  0.00    -0.360 N 
HETATM   23  C   UNL     1     -45.412  61.298 -53.947  1.00  0.00     0.030 A 
HETATM   24  C   UNL     1     -42.676  60.881 -55.385  1.00  0.00     0.155 C 
HETATM   25  C   UNL     1     -42.052  60.276 -53.051  1.00  0.00     0.099 A 
HETATM   26  C   UNL     1     -46.510  61.442 -53.098  1.00  0.00     0.002 A 
HETATM   27  C   UNL     1     -46.391  61.189 -51.737  1.00  0.00     0.001 A 
ENDBRANCH  17  18
ENDBRANCH  14  17
ENDBRANCH  12  13
ENDBRANCH   1  12
BRANCH   3  28
HETATM   28  C   UNL     1     -43.710  56.139 -54.699  1.00  0.00     0.114 C 
HETATM   29  C   UNL     1     -44.550  57.099 -53.856  1.00  0.00     0.027 C 
HETATM   30  C   UNL     1     -45.285  57.953 -54.884  1.00  0.00     0.002 C 
HETATM   31  C   UNL     1     -44.447  57.897 -56.163  1.00  0.00     0.002 C 
HETATM   32  C   UNL     1     -43.227  57.043 -55.833  1.00  0.00     0.027 C 
ENDBRANCH   3  28
TORSDOF 5
ENDMDL
MODEL 6
REMARK VINA RESULT:      -8.8      2.888      9.110
REMARK  5 active torsions:
REMARK  status: ('A' for Active; 'I' for Inactive)
REMARK    1  A    between atoms: C_9  and  C_10 
REMARK    2  A    between atoms: C_10  and  C_11 
REMARK       I    between atoms: C_11  and  N_12 
REMARK    3  A    between atoms: N_12  and  C_13 
REMARK    4  A    between atoms: C_13  and  C_14 
REMARK    5  A    between atoms: N_16  and  C_17 
ROOT
HETATM    1  C   UNL     1     -42.602  58.728 -57.541  1.00  0.00     0.084 A 
HETATM    2  N   UNL     1     -43.295  57.833 -58.185  1.00  0.00    -0.171 NA
HETATM    3  N   UNL     1     -43.561  58.008 -59.519  1.00  0.00    -0.229 N 
HETATM    4  C   UNL     1     -43.094  59.088 -60.269  1.00  0.00     0.275 A 
HETATM    5  O   UNL     1     -43.293  59.229 -61.473  1.00  0.00    -0.266 OA
HETATM    6  C   UNL     1     -42.303  60.100 -59.546  1.00  0.00     0.046 A 
HETATM    7  C   UNL     1     -42.031  59.929 -58.192  1.00  0.00     0.008 A 
HETATM    8  C   UNL     1     -41.809  61.217 -60.236  1.00  0.00     0.018 A 
HETATM    9  C   UNL     1     -41.034  62.162 -59.567  1.00  0.00     0.001 A 
HETATM   10  C   UNL     1     -40.748  61.990 -58.216  1.00  0.00     0.001 A 
HETATM   11  C   UNL     1     -41.240  60.876 -57.528  1.00  0.00     0.014 A 
ENDROOT
BRANCH   1  12
HETATM   12  C   UNL     1     -42.351  58.475 -56.054  1.00  0.00     0.184 C 
BRANCH  12  13
HETATM   13  N   UNL     1     -42.296  57.049 -55.803  1.00  0.00    -0.355 N 
HETATM   14  C   UNL     1     -43.267  56.423 -55.055  1.00  0.00     0.222 C 
HETATM   15  O   UNL     1     -44.232  57.028 -54.590  1.00  0.00    -0.273 OA
HETATM   16  H   UNL     1     -41.403  56.588 -55.957  1.00  0.00     0.162 HD
BRANCH  14  17
HETATM   17  C   UNL     1     -43.080  54.931 -54.897  1.00  0.00     0.143 C 
BRANCH  17  18
HETATM   18  C   UNL     1     -42.420  54.462 -53.636  1.00  0.00    -0.021 A 
HETATM   19  C   UNL     1     -41.403  53.471 -53.411  1.00  0.00    -0.001 A 
HETATM   20  C   UNL     1     -41.153  53.429 -52.032  1.00  0.00     0.044 A 
HETATM   21  C   UNL     1     -40.658  52.601 -54.239  1.00  0.00     0.014 A 
HETATM   22  N   UNL     1     -41.970  54.367 -51.445  1.00  0.00    -0.360 N 
HETATM   23  C   UNL     1     -40.210  52.558 -51.462  1.00  0.00     0.030 A 
HETATM   24  C   UNL     1     -42.004  54.670 -50.032  1.00  0.00     0.155 C 
HETATM   25  C   UNL     1     -42.737  54.983 -52.391  1.00  0.00     0.099 A 
HETATM   26  C   UNL     1     -39.498  51.706 -52.308  1.00  0.00     0.002 A 
HETATM   27  C   UNL     1     -39.716  51.727 -53.680  1.00  0.00     0.001 A 
ENDBRANCH  17  18
ENDBRANCH  14  17
ENDBRANCH  12  13
ENDBRANCH   1  12
BRANCH   3  28
HETATM   28  C   UNL     1     -44.241  56.921 -60.219  1.00  0.00     0.114 C 
HETATM   29  C   UNL     1     -43.929  55.553 -59.612  1.00  0.00     0.027 C 
HETATM   30  C   UNL     1     -44.992  54.632 -60.200  1.00  0.00     0.002 C 
HETATM   31  C   UNL     1     -46.166  55.531 -60.593  1.00  0.00     0.002 C 
HETATM   32  C   UNL     1     -45.769  56.947 -60.187  1.00  0.00     0.027 C 
ENDBRANCH   3  28
TORSDOF 5
ENDMDL
MODEL 7
REMARK VINA RESULT:      -8.7      2.442      8.524
REMARK  5 active torsions:
REMARK  status: ('A' for Active; 'I' for Inactive)
REMARK    1  A    between atoms: C_9  and  C_10 
REMARK    2  A    between atoms: C_10  and  C_11 
REMARK       I    between atoms: C_11  and  N_12 
REMARK    3  A    between atoms: N_12  and  C_13 
REMARK    4  A    between atoms: C_13  and  C_14 
REMARK    5  A    between atoms: N_16  and  C_17 
ROOT
HETATM    1  C   UNL     1     -44.305  57.592 -55.001  1.00  0.00     0.084 A 
HETATM    2  N   UNL     1     -44.014  57.539 -56.269  1.00  0.00    -0.171 NA
HETATM    3  N   UNL     1     -44.071  58.679 -57.030  1.00  0.00    -0.229 N 
HETATM    4  C   UNL     1     -44.391  59.938 -56.519  1.00  0.00     0.275 A 
HETATM    5  O   UNL     1     -44.403  60.970 -57.186  1.00  0.00    -0.266 OA
HETATM    6  C   UNL     1     -44.714  60.004 -55.083  1.00  0.00     0.046 A 
HETATM    7  C   UNL     1     -44.659  58.851 -54.306  1.00  0.00     0.008 A 
HETATM    8  C   UNL     1     -45.052  61.236 -54.504  1.00  0.00     0.018 A 
HETATM    9  C   UNL     1     -45.329  61.314 -53.141  1.00  0.00     0.001 A 
HETATM   10  C   UNL     1     -45.262  60.166 -52.357  1.00  0.00     0.001 A 
HETATM   11  C   UNL     1     -44.925  58.936 -52.933  1.00  0.00     0.014 A 
ENDROOT
BRANCH   1  12
HETATM   12  C   UNL     1     -44.230  56.283 -54.215  1.00  0.00     0.184 C 
BRANCH  12  13
HETATM   13  N   UNL     1     -42.858  55.819 -54.168  1.00  0.00    -0.355 N 
HETATM   14  C   UNL     1     -42.470  54.685 -54.847  1.00  0.00     0.222 C 
HETATM   15  O   UNL     1     -43.250  54.034 -55.538  1.00  0.00    -0.273 OA
HETATM   16  H   UNL     1     -42.273  56.185 -53.423  1.00  0.00     0.162 HD
BRANCH  14  17
HETATM   17  C   UNL     1     -41.003  54.341 -54.714  1.00  0.00     0.143 C 
BRANCH  17  18
HETATM   18  C   UNL     1     -40.607  53.518 -53.526  1.00  0.00    -0.021 A 
HETATM   19  C   UNL     1     -40.246  52.131 -53.414  1.00  0.00    -0.001 A 
HETATM   20  C   UNL     1     -39.967  51.877 -52.064  1.00  0.00     0.044 A 
HETATM   21  C   UNL     1     -40.123  51.055 -54.322  1.00  0.00     0.014 A 
HETATM   22  N   UNL     1     -40.131  53.063 -51.387  1.00  0.00    -0.360 N 
HETATM   23  C   UNL     1     -39.585  50.607 -51.597  1.00  0.00     0.030 A 
HETATM   24  C   UNL     1     -39.910  53.248 -49.970  1.00  0.00     0.155 C 
HETATM   25  C   UNL     1     -40.522  54.047 -52.248  1.00  0.00     0.099 A 
HETATM   26  C   UNL     1     -39.481  49.566 -52.521  1.00  0.00     0.002 A 
HETATM   27  C   UNL     1     -39.744  49.785 -53.867  1.00  0.00     0.001 A 
ENDBRANCH  17  18
ENDBRANCH  14  17
ENDBRANCH  12  13
ENDBRANCH   1  12
BRANCH   3  28
HETATM   28  C   UNL     1     -43.624  58.587 -58.417  1.00  0.00     0.114 C 
HETATM   29  C   UNL     1     -42.165  58.144 -58.529  1.00  0.00     0.027 C 
HETATM   30  C   UNL     1     -42.008  57.742 -59.992  1.00  0.00     0.002 C 
HETATM   31  C   UNL     1     -43.411  57.390 -60.490  1.00  0.00     0.002 C 
HETATM   32  C   UNL     1     -44.341  57.559 -59.293  1.00  0.00     0.027 C 
ENDBRANCH   3  28
TORSDOF 5
ENDMDL
MODEL 8
REMARK VINA RESULT:      -8.7      2.033      3.101
REMARK  5 active torsions:
REMARK  status: ('A' for Active; 'I' for Inactive)
REMARK    1  A    between atoms: C_9  and  C_10 
REMARK    2  A    between atoms: C_10  and  C_11 
REMARK       I    between atoms: C_11  and  N_12 
REMARK    3  A    between atoms: N_12  and  C_13 
REMARK    4  A    between atoms: C_13  and  C_14 
REMARK    5  A    between atoms: N_16  and  C_17 
ROOT
HETATM    1  C   UNL     1     -40.609  54.709 -53.456  1.00  0.00     0.084 A 
HETATM    2  N   UNL     1     -41.039  55.851 -53.001  1.00  0.00    -0.171 NA
HETATM    3  N   UNL     1     -41.340  55.984 -51.669  1.00  0.00    -0.229 N 
HETATM    4  C   UNL     1     -41.177  54.965 -50.731  1.00  0.00     0.275 A 
HETATM    5  O   UNL     1     -41.405  55.090 -49.530  1.00  0.00    -0.266 OA
HETATM    6  C   UNL     1     -40.685  53.673 -51.240  1.00  0.00     0.046 A 
HETATM    7  C   UNL     1     -40.379  53.531 -52.589  1.00  0.00     0.008 A 
HETATM    8  C   UNL     1     -40.505  52.601 -50.353  1.00  0.00     0.018 A 
HETATM    9  C   UNL     1     -40.010  51.385 -50.820  1.00  0.00     0.001 A 
HETATM   10  C   UNL     1     -39.690  51.242 -52.167  1.00  0.00     0.001 A 
HETATM   11  C   UNL     1     -39.868  52.310 -53.052  1.00  0.00     0.014 A 
ENDROOT
BRANCH   1  12
HETATM   12  C   UNL     1     -40.302  54.628 -54.951  1.00  0.00     0.184 C 
BRANCH  12  13
HETATM   13  N   UNL     1     -41.306  55.359 -55.697  1.00  0.00    -0.355 N 
HETATM   14  C   UNL     1     -42.551  54.818 -55.929  1.00  0.00     0.222 C 
HETATM   15  O   UNL     1     -42.878  53.714 -55.499  1.00  0.00    -0.273 OA
HETATM   16  H   UNL     1     -40.984  56.141 -56.261  1.00  0.00     0.162 HD
BRANCH  14  17
HETATM   17  C   UNL     1     -43.493  55.710 -56.706  1.00  0.00     0.143 C 
BRANCH  17  18
HETATM   18  C   UNL     1     -43.287  57.189 -56.573  1.00  0.00    -0.021 A 
HETATM   19  C   UNL     1     -43.900  58.156 -55.704  1.00  0.00    -0.001 A 
HETATM   20  C   UNL     1     -43.339  59.405 -56.001  1.00  0.00     0.044 A 
HETATM   21  C   UNL     1     -44.878  58.103 -54.685  1.00  0.00     0.014 A 
HETATM   22  N   UNL     1     -42.410  59.205 -56.996  1.00  0.00    -0.360 N 
HETATM   23  C   UNL     1     -43.720  60.583 -55.335  1.00  0.00     0.030 A 
HETATM   24  C   UNL     1     -41.577  60.235 -57.575  1.00  0.00     0.155 C 
HETATM   25  C   UNL     1     -42.377  57.887 -57.352  1.00  0.00     0.099 A 
HETATM   26  C   UNL     1     -44.694  60.494 -54.340  1.00  0.00     0.002 A 
HETATM   27  C   UNL     1     -45.266  59.271 -54.016  1.00  0.00     0.001 A 
ENDBRANCH  17  18
ENDBRANCH  14  17
ENDBRANCH  12  13
ENDBRANCH   1  12
BRANCH   3  28
HETATM   28  C   UNL     1     -41.706  57.315 -51.191  1.00  0.00     0.114 C 
HETATM   29  C   UNL     1     -40.493  58.118 -50.722  1.00  0.00     0.027 C 
HETATM   30  C   UNL     1     -41.004  59.552 -50.636  1.00  0.00     0.002 C 
HETATM   31  C   UNL     1     -42.206  59.634 -51.581  1.00  0.00     0.002 C 
HETATM   32  C   UNL     1     -42.337  58.255 -52.220  1.00  0.00     0.027 C 
ENDBRANCH   3  28
TORSDOF 5
ENDMDL
MODEL 9
REMARK VINA RESULT:      -8.6      2.095      3.665
REMARK  5 active torsions:
REMARK  status: ('A' for Active; 'I' for Inactive)
REMARK    1  A    between atoms: C_9  and  C_10 
REMARK    2  A    between atoms: C_10  and  C_11 
REMARK       I    between atoms: C_11  and  N_12 
REMARK    3  A    between atoms: N_12  and  C_13 
REMARK    4  A    between atoms: C_13  and  C_14 
REMARK    5  A    between atoms: N_16  and  C_17 
ROOT
HETATM    1  C   UNL     1     -42.422  54.864 -54.387  1.00  0.00     0.084 A 
HETATM    2  N   UNL     1     -43.069  55.770 -53.713  1.00  0.00    -0.171 NA
HETATM    3  N   UNL     1     -42.962  55.809 -52.346  1.00  0.00    -0.229 N 
HETATM    4  C   UNL     1     -42.153  54.946 -51.606  1.00  0.00     0.275 A 
HETATM    5  O   UNL     1     -42.020  55.002 -50.386  1.00  0.00    -0.266 OA
HETATM    6  C   UNL     1     -41.413  53.922 -52.365  1.00  0.00     0.046 A 
HETATM    7  C   UNL     1     -41.518  53.877 -53.751  1.00  0.00     0.008 A 
HETATM    8  C   UNL     1     -40.587  53.016 -51.684  1.00  0.00     0.018 A 
HETATM    9  C   UNL     1     -39.859  52.065 -52.396  1.00  0.00     0.001 A 
HETATM   10  C   UNL     1     -39.951  52.024 -53.784  1.00  0.00     0.001 A 
HETATM   11  C   UNL     1     -40.774  52.928 -54.464  1.00  0.00     0.014 A 
ENDROOT
BRANCH   1  12
HETATM   12  C   UNL     1     -42.594  54.871 -55.906  1.00  0.00     0.184 C 
BRANCH  12  13
HETATM   13  N   UNL     1     -43.610  55.835 -56.277  1.00  0.00    -0.355 N 
HETATM   14  C   UNL     1     -43.398  56.728 -57.304  1.00  0.00     0.222 C 
HETATM   15  O   UNL     1     -42.363  56.735 -57.967  1.00  0.00    -0.273 OA
HETATM   16  H   UNL     1     -44.348  56.011 -55.601  1.00  0.00     0.162 HD
BRANCH  14  17
HETATM   17  C   UNL     1     -44.559  57.657 -57.582  1.00  0.00     0.143 C 
BRANCH  17  18
HETATM   18  C   UNL     1     -44.674  58.873 -56.714  1.00  0.00    -0.021 A 
HETATM   19  C   UNL     1     -43.763  59.445 -55.760  1.00  0.00    -0.001 A 
HETATM   20  C   UNL     1     -44.374  60.587 -55.226  1.00  0.00     0.044 A 
HETATM   21  C   UNL     1     -42.471  59.113 -55.291  1.00  0.00     0.014 A 
HETATM   22  N   UNL     1     -45.597  60.717 -55.842  1.00  0.00    -0.360 N 
HETATM   23  C   UNL     1     -43.756  61.389 -54.251  1.00  0.00     0.030 A 
HETATM   24  C   UNL     1     -46.539  61.787 -55.602  1.00  0.00     0.155 C 
HETATM   25  C   UNL     1     -45.790  59.694 -56.726  1.00  0.00     0.099 A 
HETATM   26  C   UNL     1     -42.485  61.027 -53.805  1.00  0.00     0.002 A 
HETATM   27  C   UNL     1     -41.847  59.905 -54.318  1.00  0.00     0.001 A 
ENDBRANCH  17  18
ENDBRANCH  14  17
ENDBRANCH  12  13
ENDBRANCH   1  12
BRANCH   3  28
HETATM   28  C   UNL     1     -43.615  56.915 -51.650  1.00  0.00     0.114 C 
HETATM   29  C   UNL     1     -42.646  58.052 -51.327  1.00  0.00     0.027 C 
HETATM   30  C   UNL     1     -43.552  59.227 -50.974  1.00  0.00     0.002 C 
HETATM   31  C   UNL     1     -44.894  58.950 -51.656  1.00  0.00     0.002 C 
HETATM   32  C   UNL     1     -44.719  57.641 -52.419  1.00  0.00     0.027 C 
ENDBRANCH   3  28
TORSDOF 5
ENDMDL
MODEL 10
REMARK VINA RESULT:      -8.5      2.019      4.551
REMARK  5 active torsions:
REMARK  status: ('A' for Active; 'I' for Inactive)
REMARK    1  A    between atoms: C_9  and  C_10 
REMARK    2  A    between atoms: C_10  and  C_11 
REMARK       I    between atoms: C_11  and  N_12 
REMARK    3  A    between atoms: N_12  and  C_13 
REMARK    4  A    between atoms: C_13  and  C_14 
REMARK    5  A    between atoms: N_16  and  C_17 
ROOT
HETATM    1  C   UNL     1     -42.496  54.216 -53.524  1.00  0.00     0.084 A 
HETATM    2  N   UNL     1     -41.714  53.199 -53.749  1.00  0.00    -0.171 NA
HETATM    3  N   UNL     1     -40.624  52.985 -52.944  1.00  0.00    -0.229 N 
HETATM    4  C   UNL     1     -40.304  53.781 -51.844  1.00  0.00     0.275 A 
HETATM    5  O   UNL     1     -39.354  53.571 -51.094  1.00  0.00    -0.266 OA
HETATM    6  C   UNL     1     -41.189  54.930 -51.581  1.00  0.00     0.046 A 
HETATM    7  C   UNL     1     -42.296  55.152 -52.394  1.00  0.00     0.008 A 
HETATM    8  C   UNL     1     -40.923  55.777 -50.495  1.00  0.00     0.018 A 
HETATM    9  C   UNL     1     -41.771  56.847 -50.221  1.00  0.00     0.001 A 
HETATM   10  C   UNL     1     -42.887  57.066 -51.024  1.00  0.00     0.001 A 
HETATM   11  C   UNL     1     -43.154  56.221 -52.106  1.00  0.00     0.014 A 
ENDROOT
BRANCH   1  12
HETATM   12  C   UNL     1     -43.686  54.400 -54.466  1.00  0.00     0.184 C 
BRANCH  12  13
HETATM   13  N   UNL     1     -43.211  54.607 -55.819  1.00  0.00    -0.355 N 
HETATM   14  C   UNL     1     -43.195  55.865 -56.379  1.00  0.00     0.222 C 
HETATM   15  O   UNL     1     -43.552  56.865 -55.761  1.00  0.00    -0.273 OA
HETATM   16  H   UNL     1     -43.153  53.788 -56.418  1.00  0.00     0.162 HD
BRANCH  14  17
HETATM   17  C   UNL     1     -42.656  55.920 -57.791  1.00  0.00     0.143 C 
BRANCH  17  18
HETATM   18  C   UNL     1     -42.998  57.135 -58.598  1.00  0.00    -0.021 A 
HETATM   19  C   UNL     1     -44.238  57.561 -59.189  1.00  0.00    -0.001 A 
HETATM   20  C   UNL     1     -43.997  58.779 -59.841  1.00  0.00     0.044 A 
HETATM   21  C   UNL     1     -45.550  57.040 -59.238  1.00  0.00     0.014 A 
HETATM   22  N   UNL     1     -42.673  59.090 -59.639  1.00  0.00    -0.360 N 
HETATM   23  C   UNL     1     -45.001  59.476 -60.534  1.00  0.00     0.030 A 
HETATM   24  C   UNL     1     -42.018  60.287 -60.120  1.00  0.00     0.155 C 
HETATM   25  C   UNL     1     -42.064  58.112 -58.907  1.00  0.00     0.099 A 
HETATM   26  C   UNL     1     -46.284  58.928 -60.569  1.00  0.00     0.002 A 
HETATM   27  C   UNL     1     -46.558  57.726 -59.928  1.00  0.00     0.001 A 
ENDBRANCH  17  18
ENDBRANCH  14  17
ENDBRANCH  12  13
ENDBRANCH   1  12
BRANCH   3  28
HETATM   28  C   UNL     1     -39.850  51.768 -53.168  1.00  0.00     0.114 C 
HETATM   29  C   UNL     1     -40.062  50.732 -52.064  1.00  0.00     0.027 C 
HETATM   30  C   UNL     1     -39.506  49.440 -52.652  1.00  0.00     0.002 C 
HETATM   31  C   UNL     1     -39.565  49.602 -54.173  1.00  0.00     0.002 C 
HETATM   32  C   UNL     1     -40.190  50.970 -54.428  1.00  0.00     0.027 C 
ENDBRANCH   3  28
TORSDOF 5
ENDMDL
