MODEL 1
REMARK VINA RESULT:      -6.8      0.000      0.000
REMARK  4 active torsions:
REMARK  status: ('A' for Active; 'I' for Inactive)
REMARK    1  A    between atoms: C_2  and  C_3 
REMARK    2  A    between atoms: C_3  and  C_4 
REMARK    3  A    between atoms: C_4  and  C_5 
REMARK    4  A    between atoms: C_25  and  N_26 
ROOT
HETATM    1  C   UNL     1     -44.502  57.239 -52.949  1.00  0.00     0.067 A 
HETATM    2  N   UNL     1     -45.315  57.158 -54.016  1.00  0.00    -0.177 NA
HETATM    3  N   UNL     1     -44.837  56.116 -54.724  1.00  0.00    -0.256 N 
HETATM    4  H   UNL     1     -45.313  55.844 -55.577  1.00  0.00     0.191 HD
HETATM    5  C   UNL     1     -43.753  55.544 -54.145  1.00  0.00     0.176 A 
HETATM    6  C   UNL     1     -43.475  56.263 -53.009  1.00  0.00     0.049 A 
HETATM    7  C   UNL     1     -42.322  55.855 -52.156  1.00  0.00     0.144 A 
HETATM    8  C   UNL     1     -42.752  55.659 -50.678  1.00  0.00     0.246 A 
HETATM    9  O   UNL     1     -43.518  54.822 -50.226  1.00  0.00    -0.271 OA
HETATM   10  N   UNL     1     -42.083  56.617 -49.925  1.00  0.00    -0.325 N 
HETATM   11  C   UNL     1     -41.282  57.423 -50.721  1.00  0.00     0.043 A 
HETATM   12  C   UNL     1     -41.372  57.037 -52.068  1.00  0.00     0.003 A 
HETATM   13  C   UNL     1     -40.495  58.469 -50.287  1.00  0.00     0.030 A 
HETATM   14  C   UNL     1     -39.764  59.159 -51.249  1.00  0.00     0.003 A 
HETATM   15  C   UNL     1     -39.829  58.788 -52.603  1.00  0.00     0.007 A 
HETATM   16  C   UNL     1     -40.628  57.714 -53.036  1.00  0.00    -0.051 A 
HETATM   17  C   UNL     1     -40.672  57.368 -54.495  1.00  0.00     0.049 C 
HETATM   18  C   UNL     1     -41.689  54.569 -52.674  1.00  0.00     0.081 A 
HETATM   19  C   UNL     1     -40.618  53.931 -51.803  1.00  0.00     0.021 C 
HETATM   20  N   UNL     1     -39.730  53.402 -51.080  1.00  0.00    -0.096 N 
HETATM   21  C   UNL     1     -42.090  53.951 -53.816  1.00  0.00     0.140 A 
HETATM   22  O   UNL     1     -43.125  54.472 -54.615  1.00  0.00    -0.279 OA
HETATM   23  H   UNL     1     -42.180  56.692 -48.922  1.00  0.00     0.169 HD
ENDROOT
BRANCH  21  24
HETATM   24  N   UNL     1     -41.567  52.780 -54.318  1.00  0.00    -0.282 NA
HETATM   25  H   UNL     1     -41.624  52.673 -55.328  1.00  0.00     0.126 HD
HETATM   26  H   UNL     1     -40.633  52.599 -53.960  1.00  0.00     0.126 HD
ENDBRANCH  21  24
BRANCH   1  27
HETATM   27  C   UNL     1     -44.787  58.254 -51.889  1.00  0.00     0.062 C 
BRANCH  27  28
HETATM   28  C   UNL     1     -44.722  59.691 -52.408  1.00  0.00     0.006 C 
BRANCH  28  29
HETATM   29  C   UNL     1     -43.296  60.237 -52.334  1.00  0.00    -0.004 C 
HETATM   30  C   UNL     1     -42.794  60.673 -53.701  1.00  0.00     0.005 C 
ENDBRANCH  28  29
ENDBRANCH  27  28
ENDBRANCH   1  27
TORSDOF 4
ENDMDL
MODEL 2
REMARK VINA RESULT:      -6.7      2.661      5.108
REMARK  4 active torsions:
REMARK  status: ('A' for Active; 'I' for Inactive)
REMARK    1  A    between atoms: C_2  and  C_3 
REMARK    2  A    between atoms: C_3  and  C_4 
REMARK    3  A    between atoms: C_4  and  C_5 
REMARK    4  A    between atoms: C_25  and  N_26 
ROOT
HETATM    1  C   UNL     1     -43.808  58.483 -51.827  1.00  0.00     0.067 A 
HETATM    2  N   UNL     1     -43.533  59.551 -51.057  1.00  0.00    -0.177 NA
HETATM    3  N   UNL     1     -42.878  60.396 -51.877  1.00  0.00    -0.256 N 
HETATM    4  H   UNL     1     -42.585  61.298 -51.518  1.00  0.00     0.191 HD
HETATM    5  C   UNL     1     -42.727  59.898 -53.128  1.00  0.00     0.176 A 
HETATM    6  C   UNL     1     -43.281  58.642 -53.134  1.00  0.00     0.049 A 
HETATM    7  C   UNL     1     -43.264  57.847 -54.395  1.00  0.00     0.144 A 
HETATM    8  C   UNL     1     -44.684  57.345 -54.768  1.00  0.00     0.246 A 
HETATM    9  O   UNL     1     -45.656  58.014 -55.080  1.00  0.00    -0.271 OA
HETATM   10  N   UNL     1     -44.660  55.956 -54.703  1.00  0.00    -0.325 N 
HETATM   11  C   UNL     1     -43.411  55.486 -54.322  1.00  0.00     0.043 A 
HETATM   12  C   UNL     1     -42.521  56.551 -54.113  1.00  0.00     0.003 A 
HETATM   13  C   UNL     1     -43.058  54.163 -54.157  1.00  0.00     0.030 A 
HETATM   14  C   UNL     1     -41.749  53.897 -53.766  1.00  0.00     0.003 A 
HETATM   15  C   UNL     1     -40.834  54.945 -53.559  1.00  0.00     0.007 A 
HETATM   16  C   UNL     1     -41.201  56.291 -53.737  1.00  0.00    -0.051 A 
HETATM   17  C   UNL     1     -40.191  57.372 -53.489  1.00  0.00     0.049 C 
HETATM   18  C   UNL     1     -42.696  58.665 -55.549  1.00  0.00     0.081 A 
HETATM   19  C   UNL     1     -42.785  58.050 -56.936  1.00  0.00     0.021 C 
HETATM   20  N   UNL     1     -42.859  57.540 -58.088  1.00  0.00    -0.096 N 
HETATM   21  C   UNL     1     -42.198  59.920 -55.394  1.00  0.00     0.140 A 
HETATM   22  O   UNL     1     -42.162  60.552 -54.137  1.00  0.00    -0.279 OA
HETATM   23  H   UNL     1     -45.464  55.383 -54.917  1.00  0.00     0.169 HD
ENDROOT
BRANCH  21  24
HETATM   24  N   UNL     1     -41.693  60.710 -56.402  1.00  0.00    -0.282 NA
HETATM   25  H   UNL     1     -40.754  60.474 -56.714  1.00  0.00     0.126 HD
HETATM   26  H   UNL     1     -42.348  60.801 -57.175  1.00  0.00     0.126 HD
ENDBRANCH  21  24
BRANCH   1  27
HETATM   27  C   UNL     1     -44.609  57.358 -51.256  1.00  0.00     0.062 C 
BRANCH  27  28
HETATM   28  C   UNL     1     -43.762  56.126 -50.934  1.00  0.00     0.006 C 
BRANCH  28  29
HETATM   29  C   UNL     1     -42.374  56.530 -50.436  1.00  0.00    -0.004 C 
HETATM   30  C   UNL     1     -41.610  55.337 -49.885  1.00  0.00     0.005 C 
ENDBRANCH  28  29
ENDBRANCH  27  28
ENDBRANCH   1  27
TORSDOF 4
ENDMDL
MODEL 3
REMARK VINA RESULT:      -6.7      2.681      4.695
REMARK  4 active torsions:
REMARK  status: ('A' for Active; 'I' for Inactive)
REMARK    1  A    between atoms: C_2  and  C_3 
REMARK    2  A    between atoms: C_3  and  C_4 
REMARK    3  A    between atoms: C_4  and  C_5 
REMARK    4  A    between atoms: C_25  and  N_26 
ROOT
HETATM    1  C   UNL     1     -43.520  58.311 -55.692  1.00  0.00     0.067 A 
HETATM    2  N   UNL     1     -44.718  58.808 -56.046  1.00  0.00    -0.177 NA
HETATM    3  N   UNL     1     -45.464  58.713 -54.928  1.00  0.00    -0.256 N 
HETATM    4  H   UNL     1     -46.419  59.055 -54.945  1.00  0.00     0.191 HD
HETATM    5  C   UNL     1     -44.783  58.171 -53.889  1.00  0.00     0.176 A 
HETATM    6  C   UNL     1     -43.527  57.858 -54.348  1.00  0.00     0.049 A 
HETATM    7  C   UNL     1     -42.544  57.244 -53.411  1.00  0.00     0.144 A 
HETATM    8  C   UNL     1     -41.209  58.035 -53.390  1.00  0.00     0.246 A 
HETATM    9  O   UNL     1     -41.023  59.179 -53.003  1.00  0.00    -0.271 OA
HETATM   10  N   UNL     1     -40.223  57.191 -53.887  1.00  0.00    -0.325 N 
HETATM   11  C   UNL     1     -40.743  55.955 -54.244  1.00  0.00     0.043 A 
HETATM   12  C   UNL     1     -42.123  55.906 -53.996  1.00  0.00     0.003 A 
HETATM   13  C   UNL     1     -40.033  54.898 -54.774  1.00  0.00     0.030 A 
HETATM   14  C   UNL     1     -40.742  53.737 -55.067  1.00  0.00     0.003 A 
HETATM   15  C   UNL     1     -42.124  53.659 -54.821  1.00  0.00     0.007 A 
HETATM   16  C   UNL     1     -42.838  54.739 -54.272  1.00  0.00    -0.051 A 
HETATM   17  C   UNL     1     -44.315  54.607 -54.041  1.00  0.00     0.049 C 
HETATM   18  C   UNL     1     -43.110  57.169 -51.998  1.00  0.00     0.081 A 
HETATM   19  C   UNL     1     -42.156  56.734 -50.897  1.00  0.00     0.021 C 
HETATM   20  N   UNL     1     -41.364  56.374 -49.984  1.00  0.00    -0.096 N 
HETATM   21  C   UNL     1     -44.380  57.540 -51.686  1.00  0.00     0.140 A 
HETATM   22  O   UNL     1     -45.274  58.014 -52.665  1.00  0.00    -0.279 OA
HETATM   23  H   UNL     1     -39.254  57.466 -53.964  1.00  0.00     0.169 HD
ENDROOT
BRANCH  21  24
HETATM   24  N   UNL     1     -44.936  57.511 -50.427  1.00  0.00    -0.282 NA
HETATM   25  H   UNL     1     -45.827  57.027 -50.352  1.00  0.00     0.126 HD
HETATM   26  H   UNL     1     -44.265  57.205 -49.725  1.00  0.00     0.126 HD
ENDBRANCH  21  24
BRANCH   1  27
HETATM   27  C   UNL     1     -42.401  58.331 -56.682  1.00  0.00     0.062 C 
BRANCH  27  28
HETATM   28  C   UNL     1     -42.715  57.541 -57.953  1.00  0.00     0.006 C 
BRANCH  28  29
HETATM   29  C   UNL     1     -42.942  56.063 -57.638  1.00  0.00    -0.004 C 
HETATM   30  C   UNL     1     -43.654  55.352 -58.778  1.00  0.00     0.005 C 
ENDBRANCH  28  29
ENDBRANCH  27  28
ENDBRANCH   1  27
TORSDOF 4
ENDMDL
MODEL 4
REMARK VINA RESULT:      -6.7      2.311      4.967
REMARK  4 active torsions:
REMARK  status: ('A' for Active; 'I' for Inactive)
REMARK    1  A    between atoms: C_2  and  C_3 
REMARK    2  A    between atoms: C_3  and  C_4 
REMARK    3  A    between atoms: C_4  and  C_5 
REMARK    4  A    between atoms: C_25  and  N_26 
ROOT
HETATM    1  C   UNL     1     -42.000  56.068 -54.843  1.00  0.00     0.067 A 
HETATM    2  N   UNL     1     -42.726  55.585 -55.866  1.00  0.00    -0.177 NA
HETATM    3  N   UNL     1     -43.887  56.265 -55.805  1.00  0.00    -0.256 N 
HETATM    4  H   UNL     1     -44.598  56.085 -56.505  1.00  0.00     0.191 HD
HETATM    5  C   UNL     1     -43.920  57.151 -54.780  1.00  0.00     0.176 A 
HETATM    6  C   UNL     1     -42.731  57.032 -54.104  1.00  0.00     0.049 A 
HETATM    7  C   UNL     1     -42.482  57.898 -52.917  1.00  0.00     0.144 A 
HETATM    8  C   UNL     1     -41.138  58.664 -53.045  1.00  0.00     0.246 A 
HETATM    9  O   UNL     1     -40.839  59.519 -53.864  1.00  0.00    -0.271 OA
HETATM   10  N   UNL     1     -40.307  58.210 -52.027  1.00  0.00    -0.325 N 
HETATM   11  C   UNL     1     -40.928  57.237 -51.258  1.00  0.00     0.043 A 
HETATM   12  C   UNL     1     -42.228  56.989 -51.727  1.00  0.00     0.003 A 
HETATM   13  C   UNL     1     -40.376  56.580 -50.179  1.00  0.00     0.030 A 
HETATM   14  C   UNL     1     -41.167  55.630 -49.538  1.00  0.00     0.003 A 
HETATM   15  C   UNL     1     -42.476  55.368 -49.981  1.00  0.00     0.007 A 
HETATM   16  C   UNL     1     -43.033  56.049 -51.078  1.00  0.00    -0.051 A 
HETATM   17  C   UNL     1     -44.429  55.722 -51.518  1.00  0.00     0.049 C 
HETATM   18  C   UNL     1     -43.616  58.897 -52.721  1.00  0.00     0.081 A 
HETATM   19  C   UNL     1     -43.415  59.967 -51.660  1.00  0.00     0.021 C 
HETATM   20  N   UNL     1     -43.248  60.855 -50.780  1.00  0.00    -0.096 N 
HETATM   21  C   UNL     1     -44.735  58.909 -53.492  1.00  0.00     0.140 A 
HETATM   22  O   UNL     1     -44.929  57.979 -54.531  1.00  0.00    -0.279 OA
HETATM   23  H   UNL     1     -39.372  58.565 -51.883  1.00  0.00     0.169 HD
ENDROOT
BRANCH  21  24
HETATM   24  N   UNL     1     -45.779  59.799 -53.373  1.00  0.00    -0.282 NA
HETATM   25  H   UNL     1     -46.654  59.405 -53.035  1.00  0.00     0.126 HD
HETATM   26  H   UNL     1     -45.506  60.636 -52.863  1.00  0.00     0.126 HD
ENDBRANCH  21  24
BRANCH   1  27
HETATM   27  C   UNL     1     -40.598  55.585 -54.650  1.00  0.00     0.062 C 
BRANCH  27  28
HETATM   28  C   UNL     1     -40.512  54.073 -54.445  1.00  0.00     0.006 C 
BRANCH  28  29
HETATM   29  C   UNL     1     -41.259  53.647 -53.181  1.00  0.00    -0.004 C 
HETATM   30  C   UNL     1     -40.308  53.109 -52.125  1.00  0.00     0.005 C 
ENDBRANCH  28  29
ENDBRANCH  27  28
ENDBRANCH   1  27
TORSDOF 4
ENDMDL
MODEL 5
REMARK VINA RESULT:      -6.6     16.415     18.390
REMARK  4 active torsions:
REMARK  status: ('A' for Active; 'I' for Inactive)
REMARK    1  A    between atoms: C_2  and  C_3 
REMARK    2  A    between atoms: C_3  and  C_4 
REMARK    3  A    between atoms: C_4  and  C_5 
REMARK    4  A    between atoms: C_25  and  N_26 
ROOT
HETATM    1  C   UNL     1     -36.177  41.735 -54.626  1.00  0.00     0.067 A 
HETATM    2  N   UNL     1     -37.402  41.911 -55.151  1.00  0.00    -0.177 NA
HETATM    3  N   UNL     1     -38.224  41.242 -54.320  1.00  0.00    -0.256 N 
HETATM    4  H   UNL     1     -39.221  41.252 -54.503  1.00  0.00     0.191 HD
HETATM    5  C   UNL     1     -37.562  40.648 -53.297  1.00  0.00     0.176 A 
HETATM    6  C   UNL     1     -36.226  40.908 -53.475  1.00  0.00     0.049 A 
HETATM    7  C   UNL     1     -35.245  40.376 -52.486  1.00  0.00     0.144 A 
HETATM    8  C   UNL     1     -34.328  41.501 -51.935  1.00  0.00     0.246 A 
HETATM    9  O   UNL     1     -34.650  42.464 -51.256  1.00  0.00    -0.271 OA
HETATM   10  N   UNL     1     -33.031  41.211 -52.344  1.00  0.00    -0.325 N 
HETATM   11  C   UNL     1     -32.983  40.050 -53.102  1.00  0.00     0.043 A 
HETATM   12  C   UNL     1     -34.264  39.493 -53.238  1.00  0.00     0.003 A 
HETATM   13  C   UNL     1     -31.853  39.493 -53.662  1.00  0.00     0.030 A 
HETATM   14  C   UNL     1     -32.016  38.320 -54.393  1.00  0.00     0.003 A 
HETATM   15  C   UNL     1     -33.287  37.735 -54.538  1.00  0.00     0.007 A 
HETATM   16  C   UNL     1     -34.433  38.306 -53.956  1.00  0.00    -0.051 A 
HETATM   17  C   UNL     1     -35.767  37.650 -54.153  1.00  0.00     0.049 C 
HETATM   18  C   UNL     1     -35.956  39.690 -51.326  1.00  0.00     0.081 A 
HETATM   19  C   UNL     1     -35.095  39.259 -50.150  1.00  0.00     0.021 C 
HETATM   20  N   UNL     1     -34.381  38.902 -49.173  1.00  0.00    -0.096 N 
HETATM   21  C   UNL     1     -37.304  39.523 -51.276  1.00  0.00     0.140 A 
HETATM   22  O   UNL     1     -38.144  39.970 -52.313  1.00  0.00    -0.279 OA
HETATM   23  H   UNL     1     -32.238  41.788 -52.100  1.00  0.00     0.169 HD
ENDROOT
BRANCH  21  24
HETATM   24  N   UNL     1     -37.999  38.930 -50.247  1.00  0.00    -0.282 NA
HETATM   25  H   UNL     1     -38.642  38.191 -50.521  1.00  0.00     0.126 HD
HETATM   26  H   UNL     1     -37.383  38.648 -49.488  1.00  0.00     0.126 HD
ENDBRANCH  21  24
BRANCH   1  27
HETATM   27  C   UNL     1     -35.007  42.415 -55.259  1.00  0.00     0.062 C 
BRANCH  27  28
HETATM   28  C   UNL     1     -34.786  41.992 -56.712  1.00  0.00     0.006 C 
BRANCH  28  29
HETATM   29  C   UNL     1     -34.040  40.660 -56.788  1.00  0.00    -0.004 C 
HETATM   30  C   UNL     1     -34.911  39.566 -57.384  1.00  0.00     0.005 C 
ENDBRANCH  28  29
ENDBRANCH  27  28
ENDBRANCH   1  27
TORSDOF 4
ENDMDL
MODEL 6
REMARK VINA RESULT:      -6.5      2.391      5.368
REMARK  4 active torsions:
REMARK  status: ('A' for Active; 'I' for Inactive)
REMARK    1  A    between atoms: C_2  and  C_3 
REMARK    2  A    between atoms: C_3  and  C_4 
REMARK    3  A    between atoms: C_4  and  C_5 
REMARK    4  A    between atoms: C_25  and  N_26 
ROOT
HETATM    1  C   UNL     1     -41.096  57.416 -50.972  1.00  0.00     0.067 A 
HETATM    2  N   UNL     1     -40.147  58.237 -50.490  1.00  0.00    -0.177 NA
HETATM    3  N   UNL     1     -39.952  59.139 -51.472  1.00  0.00    -0.256 N 
HETATM    4  H   UNL     1     -39.285  59.888 -51.324  1.00  0.00     0.191 HD
HETATM    5  C   UNL     1     -40.738  58.912 -52.553  1.00  0.00     0.176 A 
HETATM    6  C   UNL     1     -41.471  57.781 -52.291  1.00  0.00     0.049 A 
HETATM    7  C   UNL     1     -42.437  57.289 -53.313  1.00  0.00     0.144 A 
HETATM    8  C   UNL     1     -43.853  57.092 -52.708  1.00  0.00     0.246 A 
HETATM    9  O   UNL     1     -44.601  57.947 -52.260  1.00  0.00    -0.271 OA
HETATM   10  N   UNL     1     -44.144  55.734 -52.779  1.00  0.00    -0.325 N 
HETATM   11  C   UNL     1     -43.098  55.017 -53.340  1.00  0.00     0.043 A 
HETATM   12  C   UNL     1     -42.037  55.870 -53.681  1.00  0.00     0.003 A 
HETATM   13  C   UNL     1     -43.066  53.654 -53.544  1.00  0.00     0.030 A 
HETATM   14  C   UNL     1     -41.916  53.122 -54.121  1.00  0.00     0.003 A 
HETATM   15  C   UNL     1     -40.843  53.956 -54.482  1.00  0.00     0.007 A 
HETATM   16  C   UNL     1     -40.887  55.346 -54.276  1.00  0.00    -0.051 A 
HETATM   17  C   UNL     1     -39.709  56.189 -54.666  1.00  0.00     0.049 C 
HETATM   18  C   UNL     1     -42.521  58.251 -54.493  1.00  0.00     0.081 A 
HETATM   19  C   UNL     1     -43.599  57.976 -55.529  1.00  0.00     0.021 C 
HETATM   20  N   UNL     1     -44.493  57.748 -56.389  1.00  0.00    -0.096 N 
HETATM   21  C   UNL     1     -41.737  59.356 -54.607  1.00  0.00     0.140 A 
HETATM   22  O   UNL     1     -40.775  59.684 -53.634  1.00  0.00    -0.279 OA
HETATM   23  H   UNL     1     -45.021  55.345 -52.460  1.00  0.00     0.169 HD
ENDROOT
BRANCH  21  24
HETATM   24  N   UNL     1     -41.784  60.267 -55.638  1.00  0.00    -0.282 NA
HETATM   25  H   UNL     1     -42.532  60.126 -56.313  1.00  0.00     0.126 HD
HETATM   26  H   UNL     1     -41.742  61.225 -55.298  1.00  0.00     0.126 HD
ENDBRANCH  21  24
BRANCH   1  27
HETATM   27  C   UNL     1     -41.624  56.321 -50.103  1.00  0.00     0.062 C 
BRANCH  27  28
HETATM   28  C   UNL     1     -40.625  55.180 -49.910  1.00  0.00     0.006 C 
BRANCH  28  29
HETATM   29  C   UNL     1     -41.215  53.849 -50.374  1.00  0.00    -0.004 C 
HETATM   30  C   UNL     1     -40.129  52.877 -50.806  1.00  0.00     0.005 C 
ENDBRANCH  28  29
ENDBRANCH  27  28
ENDBRANCH   1  27
TORSDOF 4
ENDMDL
MODEL 7
REMARK VINA RESULT:      -6.5      2.046      5.349
REMARK  4 active torsions:
REMARK  status: ('A' for Active; 'I' for Inactive)
REMARK    1  A    between atoms: C_2  and  C_3 
REMARK    2  A    between atoms: C_3  and  C_4 
REMARK    3  A    between atoms: C_4  and  C_5 
REMARK    4  A    between atoms: C_25  and  N_26 
ROOT
HETATM    1  C   UNL     1     -42.223  55.117 -51.353  1.00  0.00     0.067 A 
HETATM    2  N   UNL     1     -41.228  54.633 -50.590  1.00  0.00    -0.177 NA
HETATM    3  N   UNL     1     -40.631  55.728 -50.082  1.00  0.00    -0.256 N 
HETATM    4  H   UNL     1     -39.852  55.610 -49.444  1.00  0.00     0.191 HD
HETATM    5  C   UNL     1     -41.209  56.881 -50.501  1.00  0.00     0.176 A 
HETATM    6  C   UNL     1     -42.224  56.536 -51.359  1.00  0.00     0.049 A 
HETATM    7  C   UNL     1     -43.048  57.612 -51.979  1.00  0.00     0.144 A 
HETATM    8  C   UNL     1     -44.563  57.373 -51.745  1.00  0.00     0.246 A 
HETATM    9  O   UNL     1     -45.166  57.378 -50.683  1.00  0.00    -0.271 OA
HETATM   10  N   UNL     1     -45.143  57.161 -52.990  1.00  0.00    -0.325 N 
HETATM   11  C   UNL     1     -44.202  57.218 -54.007  1.00  0.00     0.043 A 
HETATM   12  C   UNL     1     -42.924  57.477 -53.487  1.00  0.00     0.003 A 
HETATM   13  C   UNL     1     -44.448  57.043 -55.353  1.00  0.00     0.030 A 
HETATM   14  C   UNL     1     -43.361  57.136 -56.217  1.00  0.00     0.003 A 
HETATM   15  C   UNL     1     -42.072  57.405 -55.724  1.00  0.00     0.007 A 
HETATM   16  C   UNL     1     -41.831  57.589 -54.351  1.00  0.00    -0.051 A 
HETATM   17  C   UNL     1     -40.435  57.859 -53.875  1.00  0.00     0.049 C 
HETATM   18  C   UNL     1     -42.661  58.980 -51.431  1.00  0.00     0.081 A 
HETATM   19  C   UNL     1     -43.537  60.155 -51.833  1.00  0.00     0.021 C 
HETATM   20  N   UNL     1     -44.264  61.131 -52.167  1.00  0.00    -0.096 N 
HETATM   21  C   UNL     1     -41.634  59.167 -50.559  1.00  0.00     0.140 A 
HETATM   22  O   UNL     1     -40.842  58.095 -50.107  1.00  0.00    -0.279 OA
HETATM   23  H   UNL     1     -46.133  56.995 -53.113  1.00  0.00     0.169 HD
ENDROOT
BRANCH  21  24
HETATM   24  N   UNL     1     -41.254  60.375 -50.018  1.00  0.00    -0.282 NA
HETATM   25  H   UNL     1     -40.252  60.513 -49.915  1.00  0.00     0.126 HD
HETATM   26  H   UNL     1     -41.709  61.157 -50.483  1.00  0.00     0.126 HD
ENDBRANCH  21  24
BRANCH   1  27
HETATM   27  C   UNL     1     -43.160  54.164 -52.024  1.00  0.00     0.062 C 
BRANCH  27  28
HETATM   28  C   UNL     1     -42.880  54.006 -53.518  1.00  0.00     0.006 C 
BRANCH  28  29
HETATM   29  C   UNL     1     -41.553  53.284 -53.755  1.00  0.00    -0.004 C 
HETATM   30  C   UNL     1     -40.641  54.080 -54.674  1.00  0.00     0.005 C 
ENDBRANCH  28  29
ENDBRANCH  27  28
ENDBRANCH   1  27
TORSDOF 4
ENDMDL
MODEL 8
REMARK VINA RESULT:      -6.4      5.724      8.189
REMARK  4 active torsions:
REMARK  status: ('A' for Active; 'I' for Inactive)
REMARK    1  A    between atoms: C_2  and  C_3 
REMARK    2  A    between atoms: C_3  and  C_4 
REMARK    3  A    between atoms: C_4  and  C_5 
REMARK    4  A    between atoms: C_25  and  N_26 
ROOT
HETATM    1  C   UNL     1     -43.458  56.591 -59.517  1.00  0.00     0.067 A 
HETATM    2  N   UNL     1     -42.439  56.284 -60.338  1.00  0.00    -0.177 NA
HETATM    3  N   UNL     1     -41.554  57.284 -60.163  1.00  0.00    -0.256 N 
HETATM    4  H   UNL     1     -40.677  57.257 -60.670  1.00  0.00     0.191 HD
HETATM    5  C   UNL     1     -41.980  58.209 -59.268  1.00  0.00     0.176 A 
HETATM    6  C   UNL     1     -43.229  57.821 -58.849  1.00  0.00     0.049 A 
HETATM    7  C   UNL     1     -43.951  58.656 -57.847  1.00  0.00     0.144 A 
HETATM    8  C   UNL     1     -44.418  57.810 -56.634  1.00  0.00     0.246 A 
HETATM    9  O   UNL     1     -43.723  57.234 -55.810  1.00  0.00    -0.271 OA
HETATM   10  N   UNL     1     -45.808  57.828 -56.630  1.00  0.00    -0.325 N 
HETATM   11  C   UNL     1     -46.310  58.567 -57.692  1.00  0.00     0.043 A 
HETATM   12  C   UNL     1     -45.266  59.091 -58.470  1.00  0.00     0.003 A 
HETATM   13  C   UNL     1     -47.643  58.775 -57.977  1.00  0.00     0.030 A 
HETATM   14  C   UNL     1     -47.942  59.548 -59.096  1.00  0.00     0.003 A 
HETATM   15  C   UNL     1     -46.916  60.093 -59.887  1.00  0.00     0.007 A 
HETATM   16  C   UNL     1     -45.559  59.881 -59.584  1.00  0.00    -0.051 A 
HETATM   17  C   UNL     1     -44.503  60.474 -60.470  1.00  0.00     0.049 C 
HETATM   18  C   UNL     1     -43.072  59.801 -57.357  1.00  0.00     0.081 A 
HETATM   19  C   UNL     1     -43.606  60.630 -56.199  1.00  0.00     0.021 C 
HETATM   20  N   UNL     1     -44.048  61.317 -55.238  1.00  0.00    -0.096 N 
HETATM   21  C   UNL     1     -41.833  60.052 -57.855  1.00  0.00     0.140 A 
HETATM   22  O   UNL     1     -41.274  59.265 -58.880  1.00  0.00    -0.279 OA
HETATM   23  H   UNL     1     -46.361  57.359 -55.926  1.00  0.00     0.169 HD
ENDROOT
BRANCH  21  24
HETATM   24  N   UNL     1     -40.990  61.057 -57.437  1.00  0.00    -0.282 NA
HETATM   25  H   UNL     1     -41.438  61.947 -57.234  1.00  0.00     0.126 HD
HETATM   26  H   UNL     1     -40.379  60.749 -56.684  1.00  0.00     0.126 HD
ENDBRANCH  21  24
BRANCH   1  27
HETATM   27  C   UNL     1     -44.607  55.643 -59.393  1.00  0.00     0.062 C 
BRANCH  27  28
HETATM   28  C   UNL     1     -45.515  55.644 -60.624  1.00  0.00     0.006 C 
BRANCH  28  29
HETATM   29  C   UNL     1     -46.922  56.124 -60.268  1.00  0.00    -0.004 C 
HETATM   30  C   UNL     1     -47.654  56.658 -61.487  1.00  0.00     0.005 C 
ENDBRANCH  28  29
ENDBRANCH  27  28
ENDBRANCH   1  27
TORSDOF 4
ENDMDL
MODEL 9
REMARK VINA RESULT:      -6.3     16.525     19.005
REMARK  4 active torsions:
REMARK  status: ('A' for Active; 'I' for Inactive)
REMARK    1  A    between atoms: C_2  and  C_3 
REMARK    2  A    between atoms: C_3  and  C_4 
REMARK    3  A    between atoms: C_4  and  C_5 
REMARK    4  A    between atoms: C_25  and  N_26 
ROOT
HETATM    1  C   UNL     1     -32.577  40.381 -53.206  1.00  0.00     0.067 A 
HETATM    2  N   UNL     1     -31.756  40.180 -54.251  1.00  0.00    -0.177 NA
HETATM    3  N   UNL     1     -32.581  40.030 -55.305  1.00  0.00    -0.256 N 
HETATM    4  H   UNL     1     -32.181  39.887 -56.225  1.00  0.00     0.191 HD
HETATM    5  C   UNL     1     -33.890  40.123 -54.961  1.00  0.00     0.176 A 
HETATM    6  C   UNL     1     -33.938  40.313 -53.602  1.00  0.00     0.049 A 
HETATM    7  C   UNL     1     -35.264  40.456 -52.936  1.00  0.00     0.144 A 
HETATM    8  C   UNL     1     -35.329  41.745 -52.073  1.00  0.00     0.246 A 
HETATM    9  O   UNL     1     -35.277  42.904 -52.455  1.00  0.00    -0.271 OA
HETATM   10  N   UNL     1     -35.478  41.347 -50.750  1.00  0.00    -0.325 N 
HETATM   11  C   UNL     1     -35.505  39.964 -50.633  1.00  0.00     0.043 A 
HETATM   12  C   UNL     1     -35.378  39.357 -51.893  1.00  0.00     0.003 A 
HETATM   13  C   UNL     1     -35.634  39.251 -49.461  1.00  0.00     0.030 A 
HETATM   14  C   UNL     1     -35.637  37.862 -49.556  1.00  0.00     0.003 A 
HETATM   15  C   UNL     1     -35.520  37.229 -50.806  1.00  0.00     0.007 A 
HETATM   16  C   UNL     1     -35.397  37.964 -51.998  1.00  0.00    -0.051 A 
HETATM   17  C   UNL     1     -35.260  37.239 -53.304  1.00  0.00     0.049 C 
HETATM   18  C   UNL     1     -36.391  40.476 -53.961  1.00  0.00     0.081 A 
HETATM   19  C   UNL     1     -37.784  40.800 -53.446  1.00  0.00     0.021 C 
HETATM   20  N   UNL     1     -38.940  41.069 -53.019  1.00  0.00    -0.096 N 
HETATM   21  C   UNL     1     -36.186  40.294 -55.293  1.00  0.00     0.140 A 
HETATM   22  O   UNL     1     -34.902  40.061 -55.819  1.00  0.00    -0.279 OA
HETATM   23  H   UNL     1     -35.561  42.003 -49.986  1.00  0.00     0.169 HD
ENDROOT
BRANCH  21  24
HETATM   24  N   UNL     1     -37.162  40.322 -56.263  1.00  0.00    -0.282 NA
HETATM   25  H   UNL     1     -37.653  41.207 -56.366  1.00  0.00     0.126 HD
HETATM   26  H   UNL     1     -36.822  39.961 -57.152  1.00  0.00     0.126 HD
ENDBRANCH  21  24
BRANCH   1  27
HETATM   27  C   UNL     1     -31.992  40.666 -51.861  1.00  0.00     0.062 C 
BRANCH  27  28
HETATM   28  C   UNL     1     -31.924  39.428 -50.966  1.00  0.00     0.006 C 
BRANCH  28  29
HETATM   29  C   UNL     1     -31.948  39.817 -49.488  1.00  0.00    -0.004 C 
HETATM   30  C   UNL     1     -32.156  38.606 -48.595  1.00  0.00     0.005 C 
ENDBRANCH  28  29
ENDBRANCH  27  28
ENDBRANCH   1  27
TORSDOF 4
ENDMDL
MODEL 10
REMARK VINA RESULT:      -6.3      2.633      5.126
REMARK  4 active torsions:
REMARK  status: ('A' for Active; 'I' for Inactive)
REMARK    1  A    between atoms: C_2  and  C_3 
REMARK    2  A    between atoms: C_3  and  C_4 
REMARK    3  A    between atoms: C_4  and  C_5 
REMARK    4  A    between atoms: C_25  and  N_26 
ROOT
HETATM    1  C   UNL     1     -44.174  58.204 -54.782  1.00  0.00     0.067 A 
HETATM    2  N   UNL     1     -45.343  58.739 -55.176  1.00  0.00    -0.177 NA
HETATM    3  N   UNL     1     -45.638  59.642 -54.222  1.00  0.00    -0.256 N 
HETATM    4  H   UNL     1     -46.479  60.199 -54.317  1.00  0.00     0.191 HD
HETATM    5  C   UNL     1     -44.702  59.691 -53.241  1.00  0.00     0.176 A 
HETATM    6  C   UNL     1     -43.751  58.748 -53.542  1.00  0.00     0.049 A 
HETATM    7  C   UNL     1     -42.584  58.577 -52.631  1.00  0.00     0.144 A 
HETATM    8  C   UNL     1     -41.242  58.673 -53.404  1.00  0.00     0.246 A 
HETATM    9  O   UNL     1     -40.780  59.642 -53.985  1.00  0.00    -0.271 OA
HETATM   10  N   UNL     1     -40.623  57.431 -53.307  1.00  0.00    -0.325 N 
HETATM   11  C   UNL     1     -41.393  56.533 -52.582  1.00  0.00     0.043 A 
HETATM   12  C   UNL     1     -42.583  57.137 -52.147  1.00  0.00     0.003 A 
HETATM   13  C   UNL     1     -41.069  55.221 -52.310  1.00  0.00     0.030 A 
HETATM   14  C   UNL     1     -41.981  54.480 -51.564  1.00  0.00     0.003 A 
HETATM   15  C   UNL     1     -43.176  55.063 -51.108  1.00  0.00     0.007 A 
HETATM   16  C   UNL     1     -43.495  56.405 -51.383  1.00  0.00    -0.051 A 
HETATM   17  C   UNL     1     -44.790  56.974 -50.885  1.00  0.00     0.049 C 
HETATM   18  C   UNL     1     -42.603  59.620 -51.519  1.00  0.00     0.081 A 
HETATM   19  C   UNL     1     -41.379  59.687 -50.619  1.00  0.00     0.021 C 
HETATM   20  N   UNL     1     -40.364  59.744 -49.873  1.00  0.00    -0.096 N 
HETATM   21  C   UNL     1     -43.613  60.515 -51.358  1.00  0.00     0.140 A 
HETATM   22  O   UNL     1     -44.731  60.532 -52.212  1.00  0.00    -0.279 OA
HETATM   23  H   UNL     1     -39.721  57.235 -53.718  1.00  0.00     0.169 HD
ENDROOT
BRANCH  21  24
HETATM   24  N   UNL     1     -43.671  61.489 -50.386  1.00  0.00    -0.282 NA
HETATM   25  H   UNL     1     -43.029  61.369 -49.607  1.00  0.00     0.126 HD
HETATM   26  H   UNL     1     -43.630  62.424 -50.785  1.00  0.00     0.126 HD
ENDBRANCH  21  24
BRANCH   1  27
HETATM   27  C   UNL     1     -43.498  57.199 -55.659  1.00  0.00     0.062 C 
BRANCH  27  28
HETATM   28  C   UNL     1     -43.689  55.762 -55.174  1.00  0.00     0.006 C 
BRANCH  28  29
HETATM   29  C   UNL     1     -42.651  54.830 -55.799  1.00  0.00    -0.004 C 
HETATM   30  C   UNL     1     -42.538  53.524 -55.030  1.00  0.00     0.005 C 
ENDBRANCH  28  29
ENDBRANCH  27  28
ENDBRANCH   1  27
TORSDOF 4
ENDMDL
