MODEL 1
REMARK VINA RESULT:      -8.7      0.000      0.000
REMARK  5 active torsions:
REMARK  status: ('A' for Active; 'I' for Inactive)
REMARK    1  A    between atoms: C_4  and  C_5 
REMARK       I    between atoms: N_6  and  C_7 
REMARK    2  A    between atoms: C_7  and  C_8 
REMARK    3  A    between atoms: C_8  and  C_9 
REMARK    4  A    between atoms: C_11  and  O_12 
REMARK    5  A    between atoms: C_14  and  O_15 
ROOT
HETATM    1  C   UNL     1     -44.037  57.331 -53.115  1.00  0.00     0.189 C 
HETATM    2  N   UNL     1     -42.707  57.138 -52.487  1.00  0.00    -0.336 N 
HETATM    3  C   UNL     1     -42.545  56.062 -51.633  1.00  0.00     0.225 C 
HETATM    4  O   UNL     1     -43.506  55.446 -51.165  1.00  0.00    -0.273 OA
HETATM    5  C   UNL     1     -41.647  58.092 -52.880  1.00  0.00     0.132 C 
HETATM    6  C   UNL     1     -41.298  57.990 -54.372  1.00  0.00     0.061 C 
HETATM    7  C   UNL     1     -42.538  57.822 -55.178  1.00  0.00    -0.019 A 
HETATM    8  C   UNL     1     -43.757  57.522 -54.594  1.00  0.00     0.046 A 
HETATM    9  N   UNL     1     -44.657  57.318 -55.608  1.00  0.00    -0.356 N 
HETATM   10  H   UNL     1     -45.618  57.030 -55.498  1.00  0.00     0.166 HD
HETATM   11  C   UNL     1     -44.052  57.517 -56.830  1.00  0.00     0.043 A 
HETATM   12  C   UNL     1     -42.716  57.841 -56.587  1.00  0.00    -0.001 A 
HETATM   13  C   UNL     1     -44.578  57.413 -58.123  1.00  0.00     0.030 A 
HETATM   14  C   UNL     1     -43.711  57.651 -59.196  1.00  0.00     0.002 A 
HETATM   15  C   UNL     1     -42.374  57.977 -58.982  1.00  0.00     0.001 A 
HETATM   16  C   UNL     1     -41.863  58.074 -57.683  1.00  0.00     0.014 A 
ENDROOT
BRANCH   1  17
HETATM   17  C   UNL     1     -44.889  58.447 -52.482  1.00  0.00     0.063 A 
HETATM   18  N   UNL     1     -45.326  59.483 -53.252  1.00  0.00    -0.256 NA
HETATM   19  C   UNL     1     -46.041  60.471 -52.660  1.00  0.00     0.031 A 
HETATM   20  C   UNL     1     -46.467  61.627 -53.514  1.00  0.00     0.070 C 
HETATM   21  C   UNL     1     -46.359  60.465 -51.307  1.00  0.00     0.027 A 
HETATM   22  C   UNL     1     -45.917  59.409 -50.525  1.00  0.00     0.004 A 
HETATM   23  C   UNL     1     -45.167  58.397 -51.112  1.00  0.00     0.030 A 
ENDBRANCH   1  17
BRANCH   3  24
HETATM   24  C   UNL     1     -41.134  55.551 -51.393  1.00  0.00     0.141 C 
BRANCH  24  25
HETATM   25  C   UNL     1     -40.705  54.251 -52.032  1.00  0.00    -0.047 A 
HETATM   26  C   UNL     1     -40.179  53.163 -51.324  1.00  0.00     0.047 A 
HETATM   27  C   UNL     1     -39.748  52.011 -52.002  1.00  0.00     0.102 A 
HETATM   28  C   UNL     1     -39.875  51.926 -53.402  1.00  0.00     0.101 A 
HETATM   29  C   UNL     1     -40.429  52.996 -54.104  1.00  0.00     0.040 A 
HETATM   30  C   UNL     1     -40.833  54.147 -53.426  1.00  0.00     0.010 A 
BRANCH  27  31
HETATM   31  O   UNL     1     -39.202  50.913 -51.381  1.00  0.00    -0.353 OA
HETATM   32  C   UNL     1     -40.054  50.186 -50.507  1.00  0.00     0.210 C 
ENDBRANCH  27  31
BRANCH  28  33
HETATM   33  O   UNL     1     -39.431  50.765 -53.987  1.00  0.00    -0.353 OA
HETATM   34  C   UNL     1     -40.406  49.915 -54.573  1.00  0.00     0.210 C 
ENDBRANCH  28  33
ENDBRANCH  24  25
ENDBRANCH   3  24
TORSDOF 5
ENDMDL
MODEL 2
REMARK VINA RESULT:      -8.4      2.191      5.574
REMARK  5 active torsions:
REMARK  status: ('A' for Active; 'I' for Inactive)
REMARK    1  A    between atoms: C_4  and  C_5 
REMARK       I    between atoms: N_6  and  C_7 
REMARK    2  A    between atoms: C_7  and  C_8 
REMARK    3  A    between atoms: C_8  and  C_9 
REMARK    4  A    between atoms: C_11  and  O_12 
REMARK    5  A    between atoms: C_14  and  O_15 
ROOT
HETATM    1  C   UNL     1     -42.058  56.530 -55.958  1.00  0.00     0.189 C 
HETATM    2  N   UNL     1     -42.453  55.272 -55.278  1.00  0.00    -0.336 N 
HETATM    3  C   UNL     1     -41.488  54.294 -55.117  1.00  0.00     0.225 C 
HETATM    4  O   UNL     1     -40.428  54.309 -55.748  1.00  0.00    -0.273 OA
HETATM    5  C   UNL     1     -43.844  55.199 -54.779  1.00  0.00     0.132 C 
HETATM    6  C   UNL     1     -44.122  56.238 -53.683  1.00  0.00     0.061 C 
HETATM    7  C   UNL     1     -43.483  57.537 -54.033  1.00  0.00    -0.019 A 
HETATM    8  C   UNL     1     -42.555  57.644 -55.055  1.00  0.00     0.046 A 
HETATM    9  N   UNL     1     -42.076  58.929 -55.039  1.00  0.00    -0.356 N 
HETATM   10  H   UNL     1     -41.347  59.298 -55.631  1.00  0.00     0.166 HD
HETATM   11  C   UNL     1     -42.704  59.659 -54.052  1.00  0.00     0.043 A 
HETATM   12  C   UNL     1     -43.599  58.805 -53.406  1.00  0.00    -0.001 A 
HETATM   13  C   UNL     1     -42.530  60.995 -53.672  1.00  0.00     0.030 A 
HETATM   14  C   UNL     1     -43.297  61.469 -52.602  1.00  0.00     0.002 A 
HETATM   15  C   UNL     1     -44.199  60.640 -51.940  1.00  0.00     0.001 A 
HETATM   16  C   UNL     1     -44.358  59.305 -52.331  1.00  0.00     0.014 A 
ENDROOT
BRANCH   1  17
HETATM   17  C   UNL     1     -42.527  56.644 -57.420  1.00  0.00     0.063 A 
HETATM   18  N   UNL     1     -42.415  57.833 -58.076  1.00  0.00    -0.256 NA
HETATM   19  C   UNL     1     -42.871  57.913 -59.351  1.00  0.00     0.031 A 
HETATM   20  C   UNL     1     -42.786  59.244 -60.035  1.00  0.00     0.070 C 
HETATM   21  C   UNL     1     -43.434  56.833 -60.020  1.00  0.00     0.027 A 
HETATM   22  C   UNL     1     -43.544  55.623 -59.353  1.00  0.00     0.004 A 
HETATM   23  C   UNL     1     -43.099  55.527 -58.039  1.00  0.00     0.030 A 
ENDBRANCH   1  17
BRANCH   3  24
HETATM   24  C   UNL     1     -41.698  53.261 -54.022  1.00  0.00     0.141 C 
BRANCH  24  25
HETATM   25  C   UNL     1     -41.184  53.551 -52.632  1.00  0.00    -0.047 A 
HETATM   26  C   UNL     1     -41.403  54.754 -51.947  1.00  0.00     0.047 A 
HETATM   27  C   UNL     1     -40.838  54.967 -50.679  1.00  0.00     0.102 A 
HETATM   28  C   UNL     1     -40.073  53.954 -50.067  1.00  0.00     0.101 A 
HETATM   29  C   UNL     1     -39.882  52.745 -50.734  1.00  0.00     0.040 A 
HETATM   30  C   UNL     1     -40.426  52.550 -52.004  1.00  0.00     0.010 A 
BRANCH  27  31
HETATM   31  O   UNL     1     -40.990  56.125 -49.956  1.00  0.00    -0.353 OA
HETATM   32  C   UNL     1     -41.350  57.290 -50.685  1.00  0.00     0.210 C 
ENDBRANCH  27  31
BRANCH  28  33
HETATM   33  O   UNL     1     -39.558  54.243 -48.827  1.00  0.00    -0.353 OA
HETATM   34  C   UNL     1     -40.276  53.770 -47.696  1.00  0.00     0.210 C 
ENDBRANCH  28  33
ENDBRANCH  24  25
ENDBRANCH   3  24
TORSDOF 5
ENDMDL
MODEL 3
REMARK VINA RESULT:      -8.3      2.992      7.531
REMARK  5 active torsions:
REMARK  status: ('A' for Active; 'I' for Inactive)
REMARK    1  A    between atoms: C_4  and  C_5 
REMARK       I    between atoms: N_6  and  C_7 
REMARK    2  A    between atoms: C_7  and  C_8 
REMARK    3  A    between atoms: C_8  and  C_9 
REMARK    4  A    between atoms: C_11  and  O_12 
REMARK    5  A    between atoms: C_14  and  O_15 
ROOT
HETATM    1  C   UNL     1     -42.969  55.460 -53.475  1.00  0.00     0.189 C 
HETATM    2  N   UNL     1     -42.314  55.842 -54.750  1.00  0.00    -0.336 N 
HETATM    3  C   UNL     1     -42.630  55.113 -55.883  1.00  0.00     0.225 C 
HETATM    4  O   UNL     1     -43.192  54.016 -55.821  1.00  0.00    -0.273 OA
HETATM    5  C   UNL     1     -41.416  57.017 -54.706  1.00  0.00     0.132 C 
HETATM    6  C   UNL     1     -42.168  58.308 -54.350  1.00  0.00     0.061 C 
HETATM    7  C   UNL     1     -43.163  58.042 -53.275  1.00  0.00    -0.019 A 
HETATM    8  C   UNL     1     -43.512  56.755 -52.901  1.00  0.00     0.046 A 
HETATM    9  N   UNL     1     -44.526  56.856 -51.984  1.00  0.00    -0.356 N 
HETATM   10  H   UNL     1     -45.028  56.087 -51.567  1.00  0.00     0.166 HD
HETATM   11  C   UNL     1     -44.812  58.182 -51.734  1.00  0.00     0.043 A 
HETATM   12  C   UNL     1     -43.963  58.950 -52.532  1.00  0.00    -0.001 A 
HETATM   13  C   UNL     1     -45.766  58.752 -50.883  1.00  0.00     0.030 A 
HETATM   14  C   UNL     1     -45.851  60.149 -50.849  1.00  0.00     0.002 A 
HETATM   15  C   UNL     1     -45.015  60.940 -51.633  1.00  0.00     0.001 A 
HETATM   16  C   UNL     1     -44.068  60.354 -52.480  1.00  0.00     0.014 A 
ENDROOT
BRANCH   1  17
HETATM   17  C   UNL     1     -42.073  54.665 -52.508  1.00  0.00     0.063 A 
HETATM   18  N   UNL     1     -42.020  55.016 -51.192  1.00  0.00    -0.256 NA
HETATM   19  C   UNL     1     -41.192  54.322 -50.371  1.00  0.00     0.031 A 
HETATM   20  C   UNL     1     -41.111  54.759 -48.939  1.00  0.00     0.070 C 
HETATM   21  C   UNL     1     -40.408  53.262 -50.810  1.00  0.00     0.027 A 
HETATM   22  C   UNL     1     -40.466  52.904 -52.148  1.00  0.00     0.004 A 
HETATM   23  C   UNL     1     -41.294  53.616 -53.008  1.00  0.00     0.030 A 
ENDBRANCH   1  17
BRANCH   3  24
HETATM   24  C   UNL     1     -42.398  55.764 -57.236  1.00  0.00     0.141 C 
BRANCH  24  25
HETATM   25  C   UNL     1     -43.587  56.256 -58.027  1.00  0.00    -0.047 A 
HETATM   26  C   UNL     1     -44.311  57.415 -57.721  1.00  0.00     0.047 A 
HETATM   27  C   UNL     1     -45.443  57.770 -58.472  1.00  0.00     0.102 A 
HETATM   28  C   UNL     1     -45.841  56.978 -59.567  1.00  0.00     0.101 A 
HETATM   29  C   UNL     1     -45.102  55.842 -59.893  1.00  0.00     0.040 A 
HETATM   30  C   UNL     1     -43.992  55.482 -59.126  1.00  0.00     0.010 A 
BRANCH  27  31
HETATM   31  O   UNL     1     -46.215  58.879 -58.220  1.00  0.00    -0.353 OA
HETATM   32  C   UNL     1     -45.920  59.605 -57.035  1.00  0.00     0.210 C 
ENDBRANCH  27  31
BRANCH  28  33
HETATM   33  O   UNL     1     -46.958  57.397 -60.249  1.00  0.00    -0.353 OA
HETATM   34  C   UNL     1     -47.520  56.497 -61.194  1.00  0.00     0.210 C 
ENDBRANCH  28  33
ENDBRANCH  24  25
ENDBRANCH   3  24
TORSDOF 5
ENDMDL
MODEL 4
REMARK VINA RESULT:      -8.2      3.048      7.575
REMARK  5 active torsions:
REMARK  status: ('A' for Active; 'I' for Inactive)
REMARK    1  A    between atoms: C_4  and  C_5 
REMARK       I    between atoms: N_6  and  C_7 
REMARK    2  A    between atoms: C_7  and  C_8 
REMARK    3  A    between atoms: C_8  and  C_9 
REMARK    4  A    between atoms: C_11  and  O_12 
REMARK    5  A    between atoms: C_14  and  O_15 
ROOT
HETATM    1  C   UNL     1     -42.861  55.370 -53.206  1.00  0.00     0.189 C 
HETATM    2  N   UNL     1     -42.207  55.746 -54.483  1.00  0.00    -0.336 N 
HETATM    3  C   UNL     1     -42.524  55.012 -55.612  1.00  0.00     0.225 C 
HETATM    4  O   UNL     1     -43.087  53.917 -55.545  1.00  0.00    -0.273 OA
HETATM    5  C   UNL     1     -41.308  56.920 -54.445  1.00  0.00     0.132 C 
HETATM    6  C   UNL     1     -42.058  58.214 -54.094  1.00  0.00     0.061 C 
HETATM    7  C   UNL     1     -43.053  57.954 -53.017  1.00  0.00    -0.019 A 
HETATM    8  C   UNL     1     -43.402  56.669 -52.637  1.00  0.00     0.046 A 
HETATM    9  N   UNL     1     -44.416  56.775 -51.720  1.00  0.00    -0.356 N 
HETATM   10  H   UNL     1     -44.918  56.007 -51.299  1.00  0.00     0.166 HD
HETATM   11  C   UNL     1     -44.700  58.102 -51.475  1.00  0.00     0.043 A 
HETATM   12  C   UNL     1     -43.851  58.866 -52.277  1.00  0.00    -0.001 A 
HETATM   13  C   UNL     1     -45.653  58.676 -50.626  1.00  0.00     0.030 A 
HETATM   14  C   UNL     1     -45.736  60.073 -50.597  1.00  0.00     0.002 A 
HETATM   15  C   UNL     1     -44.900  60.860 -51.386  1.00  0.00     0.001 A 
HETATM   16  C   UNL     1     -43.954  60.269 -52.232  1.00  0.00     0.014 A 
ENDROOT
BRANCH   1  17
HETATM   17  C   UNL     1     -41.965  54.579 -52.236  1.00  0.00     0.063 A 
HETATM   18  N   UNL     1     -41.898  54.945 -50.925  1.00  0.00    -0.256 NA
HETATM   19  C   UNL     1     -41.071  54.254 -50.102  1.00  0.00     0.031 A 
HETATM   20  C   UNL     1     -40.973  54.707 -48.677  1.00  0.00     0.070 C 
HETATM   21  C   UNL     1     -40.301  53.181 -50.534  1.00  0.00     0.027 A 
HETATM   22  C   UNL     1     -40.372  52.806 -51.867  1.00  0.00     0.004 A 
HETATM   23  C   UNL     1     -41.201  53.516 -52.729  1.00  0.00     0.030 A 
ENDBRANCH   1  17
BRANCH   3  24
HETATM   24  C   UNL     1     -42.292  55.658 -56.968  1.00  0.00     0.141 C 
BRANCH  24  25
HETATM   25  C   UNL     1     -43.458  56.299 -57.685  1.00  0.00    -0.047 A 
HETATM   26  C   UNL     1     -43.998  55.826 -58.888  1.00  0.00     0.047 A 
HETATM   27  C   UNL     1     -45.044  56.516 -59.521  1.00  0.00     0.102 A 
HETATM   28  C   UNL     1     -45.587  57.674 -58.930  1.00  0.00     0.101 A 
HETATM   29  C   UNL     1     -45.072  58.126 -57.716  1.00  0.00     0.040 A 
HETATM   30  C   UNL     1     -44.016  57.449 -57.105  1.00  0.00     0.010 A 
BRANCH  27  31
HETATM   31  O   UNL     1     -45.611  56.127 -60.712  1.00  0.00    -0.353 OA
HETATM   32  C   UNL     1     -45.043  54.990 -61.346  1.00  0.00     0.210 C 
ENDBRANCH  27  31
BRANCH  28  33
HETATM   33  O   UNL     1     -46.608  58.287 -59.614  1.00  0.00    -0.353 OA
HETATM   34  C   UNL     1     -47.295  59.341 -58.954  1.00  0.00     0.210 C 
ENDBRANCH  28  33
ENDBRANCH  24  25
ENDBRANCH   3  24
TORSDOF 5
ENDMDL
MODEL 5
REMARK VINA RESULT:      -8.2      1.327      2.062
REMARK  5 active torsions:
REMARK  status: ('A' for Active; 'I' for Inactive)
REMARK    1  A    between atoms: C_4  and  C_5 
REMARK       I    between atoms: N_6  and  C_7 
REMARK    2  A    between atoms: C_7  and  C_8 
REMARK    3  A    between atoms: C_8  and  C_9 
REMARK    4  A    between atoms: C_11  and  O_12 
REMARK    5  A    between atoms: C_14  and  O_15 
ROOT
HETATM    1  C   UNL     1     -44.699  58.014 -52.560  1.00  0.00     0.189 C 
HETATM    2  N   UNL     1     -43.454  57.597 -51.871  1.00  0.00    -0.336 N 
HETATM    3  C   UNL     1     -43.537  56.562 -50.957  1.00  0.00     0.225 C 
HETATM    4  O   UNL     1     -44.615  56.179 -50.496  1.00  0.00    -0.273 OA
HETATM    5  C   UNL     1     -42.213  58.295 -52.269  1.00  0.00     0.132 C 
HETATM    6  C   UNL     1     -41.848  58.039 -53.739  1.00  0.00     0.061 C 
HETATM    7  C   UNL     1     -43.073  58.075 -54.584  1.00  0.00    -0.019 A 
HETATM    8  C   UNL     1     -44.344  58.059 -54.034  1.00  0.00     0.046 A 
HETATM    9  N   UNL     1     -45.237  57.980 -55.071  1.00  0.00    -0.356 N 
HETATM   10  H   UNL     1     -46.239  57.897 -54.986  1.00  0.00     0.166 HD
HETATM   11  C   UNL     1     -44.569  57.982 -56.277  1.00  0.00     0.043 A 
HETATM   12  C   UNL     1     -43.203  58.047 -55.998  1.00  0.00    -0.001 A 
HETATM   13  C   UNL     1     -45.068  57.911 -57.583  1.00  0.00     0.030 A 
HETATM   14  C   UNL     1     -44.140  57.907 -58.632  1.00  0.00     0.002 A 
HETATM   15  C   UNL     1     -42.772  57.972 -58.382  1.00  0.00     0.001 A 
HETATM   16  C   UNL     1     -42.289  58.040 -57.070  1.00  0.00     0.014 A 
ENDROOT
BRANCH   1  17
HETATM   17  C   UNL     1     -45.326  59.313 -52.020  1.00  0.00     0.063 A 
HETATM   18  N   UNL     1     -45.937  60.177 -52.879  1.00  0.00    -0.256 NA
HETATM   19  C   UNL     1     -46.446  61.331 -52.381  1.00  0.00     0.031 A 
HETATM   20  C   UNL     1     -47.067  62.291 -53.350  1.00  0.00     0.070 C 
HETATM   21  C   UNL     1     -46.384  61.663 -51.032  1.00  0.00     0.027 A 
HETATM   22  C   UNL     1     -45.767  60.782 -50.159  1.00  0.00     0.004 A 
HETATM   23  C   UNL     1     -45.222  59.602 -50.655  1.00  0.00     0.030 A 
ENDBRANCH   1  17
BRANCH   3  24
HETATM   24  C   UNL     1     -42.265  55.794 -50.634  1.00  0.00     0.141 C 
BRANCH  24  25
HETATM   25  C   UNL     1     -41.744  54.786 -51.631  1.00  0.00    -0.047 A 
HETATM   26  C   UNL     1     -42.289  54.587 -52.906  1.00  0.00     0.047 A 
HETATM   27  C   UNL     1     -41.782  53.586 -53.751  1.00  0.00     0.102 A 
HETATM   28  C   UNL     1     -40.693  52.795 -53.335  1.00  0.00     0.101 A 
HETATM   29  C   UNL     1     -40.129  53.015 -52.079  1.00  0.00     0.040 A 
HETATM   30  C   UNL     1     -40.654  53.995 -51.235  1.00  0.00     0.010 A 
BRANCH  27  31
HETATM   31  O   UNL     1     -42.277  53.316 -55.004  1.00  0.00    -0.353 OA
HETATM   32  C   UNL     1     -43.071  54.328 -55.607  1.00  0.00     0.210 C 
ENDBRANCH  27  31
BRANCH  28  33
HETATM   33  O   UNL     1     -40.259  51.840 -54.221  1.00  0.00    -0.353 OA
HETATM   34  C   UNL     1     -39.710  50.647 -53.679  1.00  0.00     0.210 C 
ENDBRANCH  28  33
ENDBRANCH  24  25
ENDBRANCH   3  24
TORSDOF 5
ENDMDL
MODEL 6
REMARK VINA RESULT:      -8.2      3.116      7.392
REMARK  5 active torsions:
REMARK  status: ('A' for Active; 'I' for Inactive)
REMARK    1  A    between atoms: C_4  and  C_5 
REMARK       I    between atoms: N_6  and  C_7 
REMARK    2  A    between atoms: C_7  and  C_8 
REMARK    3  A    between atoms: C_8  and  C_9 
REMARK    4  A    between atoms: C_11  and  O_12 
REMARK    5  A    between atoms: C_14  and  O_15 
ROOT
HETATM    1  C   UNL     1     -42.318  56.617 -54.071  1.00  0.00     0.189 C 
HETATM    2  N   UNL     1     -42.819  56.539 -55.465  1.00  0.00    -0.336 N 
HETATM    3  C   UNL     1     -42.454  57.545 -56.341  1.00  0.00     0.225 C 
HETATM    4  O   UNL     1     -41.982  58.615 -55.949  1.00  0.00    -0.273 OA
HETATM    5  C   UNL     1     -43.628  55.349 -55.810  1.00  0.00     0.132 C 
HETATM    6  C   UNL     1     -42.820  54.047 -55.703  1.00  0.00     0.061 C 
HETATM    7  C   UNL     1     -41.953  54.080 -54.494  1.00  0.00    -0.019 A 
HETATM    8  C   UNL     1     -41.738  55.246 -53.778  1.00  0.00     0.046 A 
HETATM    9  N   UNL     1     -40.810  54.965 -52.808  1.00  0.00    -0.356 N 
HETATM   10  H   UNL     1     -40.408  55.628 -52.162  1.00  0.00     0.166 HD
HETATM   11  C   UNL     1     -40.452  53.635 -52.863  1.00  0.00     0.043 A 
HETATM   12  C   UNL     1     -41.162  53.053 -53.914  1.00  0.00    -0.001 A 
HETATM   13  C   UNL     1     -39.542  52.915 -52.079  1.00  0.00     0.030 A 
HETATM   14  C   UNL     1     -39.357  51.561 -52.380  1.00  0.00     0.002 A 
HETATM   15  C   UNL     1     -40.055  50.954 -53.423  1.00  0.00     0.001 A 
HETATM   16  C   UNL     1     -40.958  51.689 -54.198  1.00  0.00     0.014 A 
ENDROOT
BRANCH   1  17
HETATM   17  C   UNL     1     -43.359  57.097 -53.042  1.00  0.00     0.063 A 
HETATM   18  N   UNL     1     -44.043  58.255 -53.262  1.00  0.00    -0.256 NA
HETATM   19  C   UNL     1     -44.925  58.673 -52.321  1.00  0.00     0.031 A 
HETATM   20  C   UNL     1     -45.628  59.975 -52.559  1.00  0.00     0.070 C 
HETATM   21  C   UNL     1     -45.170  57.965 -51.150  1.00  0.00     0.027 A 
HETATM   22  C   UNL     1     -44.477  56.786 -50.929  1.00  0.00     0.004 A 
HETATM   23  C   UNL     1     -43.555  56.352 -51.874  1.00  0.00     0.030 A 
ENDBRANCH   1  17
BRANCH   3  24
HETATM   24  C   UNL     1     -42.508  57.246 -57.830  1.00  0.00     0.141 C 
BRANCH  24  25
HETATM   25  C   UNL     1     -43.851  57.030 -58.487  1.00  0.00    -0.047 A 
HETATM   26  C   UNL     1     -44.983  57.818 -58.240  1.00  0.00     0.047 A 
HETATM   27  C   UNL     1     -46.212  57.513 -58.847  1.00  0.00     0.102 A 
HETATM   28  C   UNL     1     -46.308  56.429 -59.741  1.00  0.00     0.101 A 
HETATM   29  C   UNL     1     -45.174  55.664 -60.013  1.00  0.00     0.040 A 
HETATM   30  C   UNL     1     -43.962  55.959 -59.387  1.00  0.00     0.010 A 
BRANCH  27  31
HETATM   31  O   UNL     1     -47.369  58.224 -58.638  1.00  0.00    -0.353 OA
HETATM   32  C   UNL     1     -47.265  59.640 -58.693  1.00  0.00     0.210 C 
ENDBRANCH  27  31
BRANCH  28  33
HETATM   33  O   UNL     1     -47.546  56.200 -60.292  1.00  0.00    -0.353 OA
HETATM   34  C   UNL     1     -47.736  56.576 -61.649  1.00  0.00     0.210 C 
ENDBRANCH  28  33
ENDBRANCH  24  25
ENDBRANCH   3  24
TORSDOF 5
ENDMDL
MODEL 7
REMARK VINA RESULT:      -8.1      2.177      5.104
REMARK  5 active torsions:
REMARK  status: ('A' for Active; 'I' for Inactive)
REMARK    1  A    between atoms: C_4  and  C_5 
REMARK       I    between atoms: N_6  and  C_7 
REMARK    2  A    between atoms: C_7  and  C_8 
REMARK    3  A    between atoms: C_8  and  C_9 
REMARK    4  A    between atoms: C_11  and  O_12 
REMARK    5  A    between atoms: C_14  and  O_15 
ROOT
HETATM    1  C   UNL     1     -42.130  58.265 -54.605  1.00  0.00     0.189 C 
HETATM    2  N   UNL     1     -42.763  56.924 -54.651  1.00  0.00    -0.336 N 
HETATM    3  C   UNL     1     -41.934  55.821 -54.750  1.00  0.00     0.225 C 
HETATM    4  O   UNL     1     -40.749  55.920 -55.080  1.00  0.00    -0.273 OA
HETATM    5  C   UNL     1     -44.237  56.885 -54.529  1.00  0.00     0.132 C 
HETATM    6  C   UNL     1     -44.721  57.403 -53.166  1.00  0.00     0.061 C 
HETATM    7  C   UNL     1     -43.933  58.602 -52.766  1.00  0.00    -0.019 A 
HETATM    8  C   UNL     1     -42.771  58.968 -53.423  1.00  0.00     0.046 A 
HETATM    9  N   UNL     1     -42.233  60.030 -52.741  1.00  0.00    -0.356 N 
HETATM   10  H   UNL     1     -41.355  60.483 -52.946  1.00  0.00     0.166 HD
HETATM   11  C   UNL     1     -43.045  60.376 -51.681  1.00  0.00     0.043 A 
HETATM   12  C   UNL     1     -44.127  59.494 -51.678  1.00  0.00    -0.001 A 
HETATM   13  C   UNL     1     -42.891  61.383 -50.721  1.00  0.00     0.030 A 
HETATM   14  C   UNL     1     -43.874  61.489 -49.731  1.00  0.00     0.002 A 
HETATM   15  C   UNL     1     -44.965  60.624 -49.705  1.00  0.00     0.001 A 
HETATM   16  C   UNL     1     -45.103  59.620 -50.671  1.00  0.00     0.014 A 
ENDROOT
BRANCH   1  17
HETATM   17  C   UNL     1     -42.203  59.054 -55.926  1.00  0.00     0.063 A 
HETATM   18  N   UNL     1     -42.394  60.403 -55.898  1.00  0.00    -0.256 NA
HETATM   19  C   UNL     1     -42.492  61.066 -57.077  1.00  0.00     0.031 A 
HETATM   20  C   UNL     1     -42.755  62.540 -57.024  1.00  0.00     0.070 C 
HETATM   21  C   UNL     1     -42.392  60.431 -58.310  1.00  0.00     0.027 A 
HETATM   22  C   UNL     1     -42.194  59.060 -58.337  1.00  0.00     0.004 A 
HETATM   23  C   UNL     1     -42.109  58.361 -57.137  1.00  0.00     0.030 A 
ENDBRANCH   1  17
BRANCH   3  24
HETATM   24  C   UNL     1     -42.481  54.478 -54.296  1.00  0.00     0.141 C 
BRANCH  24  25
HETATM   25  C   UNL     1     -41.601  53.570 -53.469  1.00  0.00    -0.047 A 
HETATM   26  C   UNL     1     -41.390  53.720 -52.092  1.00  0.00     0.047 A 
HETATM   27  C   UNL     1     -40.509  52.868 -51.408  1.00  0.00     0.102 A 
HETATM   28  C   UNL     1     -39.853  51.828 -52.096  1.00  0.00     0.101 A 
HETATM   29  C   UNL     1     -40.088  51.658 -53.460  1.00  0.00     0.040 A 
HETATM   30  C   UNL     1     -40.947  52.524 -54.138  1.00  0.00     0.010 A 
BRANCH  27  31
HETATM   31  O   UNL     1     -40.234  52.966 -50.064  1.00  0.00    -0.353 OA
HETATM   32  C   UNL     1     -39.912  54.259 -49.572  1.00  0.00     0.210 C 
ENDBRANCH  27  31
BRANCH  28  33
HETATM   33  O   UNL     1     -39.009  51.040 -51.352  1.00  0.00    -0.353 OA
HETATM   34  C   UNL     1     -39.486  49.760 -50.963  1.00  0.00     0.210 C 
ENDBRANCH  28  33
ENDBRANCH  24  25
ENDBRANCH   3  24
TORSDOF 5
ENDMDL
MODEL 8
REMARK VINA RESULT:      -8.1     16.161     19.356
REMARK  5 active torsions:
REMARK  status: ('A' for Active; 'I' for Inactive)
REMARK    1  A    between atoms: C_4  and  C_5 
REMARK       I    between atoms: N_6  and  C_7 
REMARK    2  A    between atoms: C_7  and  C_8 
REMARK    3  A    between atoms: C_8  and  C_9 
REMARK    4  A    between atoms: C_11  and  O_12 
REMARK    5  A    between atoms: C_14  and  O_15 
ROOT
HETATM    1  C   UNL     1     -33.776  40.445 -52.833  1.00  0.00     0.189 C 
HETATM    2  N   UNL     1     -35.218  40.301 -53.151  1.00  0.00    -0.336 N 
HETATM    3  C   UNL     1     -36.008  41.435 -53.100  1.00  0.00     0.225 C 
HETATM    4  O   UNL     1     -35.635  42.469 -52.541  1.00  0.00    -0.273 OA
HETATM    5  C   UNL     1     -35.674  38.952 -53.553  1.00  0.00     0.132 C 
HETATM    6  C   UNL     1     -35.024  38.486 -54.865  1.00  0.00     0.061 C 
HETATM    7  C   UNL     1     -33.584  38.865 -54.886  1.00  0.00    -0.019 A 
HETATM    8  C   UNL     1     -33.046  39.750 -53.967  1.00  0.00     0.046 A 
HETATM    9  N   UNL     1     -31.743  39.975 -54.331  1.00  0.00    -0.356 N 
HETATM   10  H   UNL     1     -31.105  40.618 -53.885  1.00  0.00     0.166 HD
HETATM   11  C   UNL     1     -31.423  39.226 -55.443  1.00  0.00     0.043 A 
HETATM   12  C   UNL     1     -32.565  38.513 -55.810  1.00  0.00    -0.001 A 
HETATM   13  C   UNL     1     -30.222  39.144 -56.158  1.00  0.00     0.030 A 
HETATM   14  C   UNL     1     -30.192  38.307 -57.279  1.00  0.00     0.002 A 
HETATM   15  C   UNL     1     -31.317  37.583 -57.667  1.00  0.00     0.001 A 
HETATM   16  C   UNL     1     -32.511  37.678 -56.942  1.00  0.00     0.014 A 
ENDROOT
BRANCH   1  17
HETATM   17  C   UNL     1     -33.378  39.955 -51.428  1.00  0.00     0.063 A 
HETATM   18  N   UNL     1     -34.300  39.334 -50.642  1.00  0.00    -0.256 NA
HETATM   19  C   UNL     1     -33.932  38.948 -49.395  1.00  0.00     0.031 A 
HETATM   20  C   UNL     1     -34.977  38.313 -48.528  1.00  0.00     0.070 C 
HETATM   21  C   UNL     1     -32.651  39.146 -48.892  1.00  0.00     0.027 A 
HETATM   22  C   UNL     1     -31.713  39.775 -49.694  1.00  0.00     0.004 A 
HETATM   23  C   UNL     1     -32.079  40.194 -50.968  1.00  0.00     0.030 A 
ENDBRANCH   1  17
BRANCH   3  24
HETATM   24  C   UNL     1     -37.310  41.431 -53.885  1.00  0.00     0.141 C 
BRANCH  24  25
HETATM   25  C   UNL     1     -37.256  41.463 -55.394  1.00  0.00    -0.047 A 
HETATM   26  C   UNL     1     -38.086  40.701 -56.227  1.00  0.00     0.047 A 
HETATM   27  C   UNL     1     -37.931  40.743 -57.622  1.00  0.00     0.102 A 
HETATM   28  C   UNL     1     -36.960  41.585 -58.199  1.00  0.00     0.101 A 
HETATM   29  C   UNL     1     -36.156  42.368 -57.373  1.00  0.00     0.040 A 
HETATM   30  C   UNL     1     -36.299  42.302 -55.986  1.00  0.00     0.010 A 
BRANCH  27  31
HETATM   31  O   UNL     1     -38.691  40.010 -58.502  1.00  0.00    -0.353 OA
HETATM   32  C   UNL     1     -38.326  38.648 -58.677  1.00  0.00     0.210 C 
ENDBRANCH  27  31
BRANCH  28  33
HETATM   33  O   UNL     1     -36.875  41.567 -59.570  1.00  0.00    -0.353 OA
HETATM   34  C   UNL     1     -37.364  42.704 -60.269  1.00  0.00     0.210 C 
ENDBRANCH  28  33
ENDBRANCH  24  25
ENDBRANCH   3  24
TORSDOF 5
ENDMDL
MODEL 9
REMARK VINA RESULT:      -7.8      3.021      7.502
REMARK  5 active torsions:
REMARK  status: ('A' for Active; 'I' for Inactive)
REMARK    1  A    between atoms: C_4  and  C_5 
REMARK       I    between atoms: N_6  and  C_7 
REMARK    2  A    between atoms: C_7  and  C_8 
REMARK    3  A    between atoms: C_8  and  C_9 
REMARK    4  A    between atoms: C_11  and  O_12 
REMARK    5  A    between atoms: C_14  and  O_15 
ROOT
HETATM    1  C   UNL     1     -41.855  57.378 -54.806  1.00  0.00     0.189 C 
HETATM    2  N   UNL     1     -42.584  58.501 -54.167  1.00  0.00    -0.336 N 
HETATM    3  C   UNL     1     -41.843  59.574 -53.706  1.00  0.00     0.225 C 
HETATM    4  O   UNL     1     -40.620  59.508 -53.552  1.00  0.00    -0.273 OA
HETATM    5  C   UNL     1     -44.059  58.395 -54.130  1.00  0.00     0.132 C 
HETATM    6  C   UNL     1     -44.676  58.392 -55.537  1.00  0.00     0.061 C 
HETATM    7  C   UNL     1     -43.853  57.557 -56.455  1.00  0.00    -0.019 A 
HETATM    8  C   UNL     1     -42.587  57.116 -56.108  1.00  0.00     0.046 A 
HETATM    9  N   UNL     1     -42.060  56.484 -57.205  1.00  0.00    -0.356 N 
HETATM   10  H   UNL     1     -41.128  56.103 -57.279  1.00  0.00     0.166 HD
HETATM   11  C   UNL     1     -42.974  56.478 -58.237  1.00  0.00     0.043 A 
HETATM   12  C   UNL     1     -44.115  57.144 -57.788  1.00  0.00    -0.001 A 
HETATM   13  C   UNL     1     -42.867  55.955 -59.531  1.00  0.00     0.030 A 
HETATM   14  C   UNL     1     -43.962  56.118 -60.388  1.00  0.00     0.002 A 
HETATM   15  C   UNL     1     -45.114  56.777 -59.966  1.00  0.00     0.001 A 
HETATM   16  C   UNL     1     -45.203  57.297 -58.669  1.00  0.00     0.014 A 
ENDROOT
BRANCH   1  17
HETATM   17  C   UNL     1     -41.685  56.134 -53.914  1.00  0.00     0.063 A 
HETATM   18  N   UNL     1     -41.445  54.920 -54.484  1.00  0.00    -0.256 NA
HETATM   19  C   UNL     1     -41.339  53.836 -53.677  1.00  0.00     0.031 A 
HETATM   20  C   UNL     1     -41.127  52.503 -54.329  1.00  0.00     0.070 C 
HETATM   21  C   UNL     1     -41.450  53.912 -52.293  1.00  0.00     0.027 A 
HETATM   22  C   UNL     1     -41.690  55.148 -51.713  1.00  0.00     0.004 A 
HETATM   23  C   UNL     1     -41.821  56.267 -52.528  1.00  0.00     0.030 A 
ENDBRANCH   1  17
BRANCH   3  24
HETATM   24  C   UNL     1     -42.553  60.906 -53.530  1.00  0.00     0.141 C 
BRANCH  24  25
HETATM   25  C   UNL     1     -43.380  61.137 -52.287  1.00  0.00    -0.047 A 
HETATM   26  C   UNL     1     -44.717  61.554 -52.299  1.00  0.00     0.047 A 
HETATM   27  C   UNL     1     -45.398  61.805 -51.096  1.00  0.00     0.102 A 
HETATM   28  C   UNL     1     -44.749  61.603 -49.862  1.00  0.00     0.101 A 
HETATM   29  C   UNL     1     -43.429  61.156 -49.849  1.00  0.00     0.040 A 
HETATM   30  C   UNL     1     -42.752  60.933 -51.049  1.00  0.00     0.010 A 
BRANCH  27  31
HETATM   31  O   UNL     1     -46.701  62.236 -51.027  1.00  0.00    -0.353 OA
HETATM   32  C   UNL     1     -47.396  62.366 -52.259  1.00  0.00     0.210 C 
ENDBRANCH  27  31
BRANCH  28  33
HETATM   33  O   UNL     1     -45.487  61.871 -48.734  1.00  0.00    -0.353 OA
HETATM   34  C   UNL     1     -45.541  60.862 -47.736  1.00  0.00     0.210 C 
ENDBRANCH  28  33
ENDBRANCH  24  25
ENDBRANCH   3  24
TORSDOF 5
ENDMDL
MODEL 10
REMARK VINA RESULT:      -7.8      3.931      6.919
REMARK  5 active torsions:
REMARK  status: ('A' for Active; 'I' for Inactive)
REMARK    1  A    between atoms: C_4  and  C_5 
REMARK       I    between atoms: N_6  and  C_7 
REMARK    2  A    between atoms: C_7  and  C_8 
REMARK    3  A    between atoms: C_8  and  C_9 
REMARK    4  A    between atoms: C_11  and  O_12 
REMARK    5  A    between atoms: C_14  and  O_15 
ROOT
HETATM    1  C   UNL     1     -42.758  59.366 -54.490  1.00  0.00     0.189 C 
HETATM    2  N   UNL     1     -44.096  59.489 -55.119  1.00  0.00    -0.336 N 
HETATM    3  C   UNL     1     -44.251  60.417 -56.133  1.00  0.00     0.225 C 
HETATM    4  O   UNL     1     -43.428  61.314 -56.332  1.00  0.00    -0.273 OA
HETATM    5  C   UNL     1     -45.140  58.558 -54.639  1.00  0.00     0.132 C 
HETATM    6  C   UNL     1     -44.794  57.092 -54.940  1.00  0.00     0.061 C 
HETATM    7  C   UNL     1     -43.348  56.844 -54.688  1.00  0.00    -0.019 A 
HETATM    8  C   UNL     1     -42.450  57.880 -54.493  1.00  0.00     0.046 A 
HETATM    9  N   UNL     1     -41.199  57.326 -54.409  1.00  0.00    -0.356 N 
HETATM   10  H   UNL     1     -40.330  57.833 -54.322  1.00  0.00     0.166 HD
HETATM   11  C   UNL     1     -41.277  55.954 -54.510  1.00  0.00     0.043 A 
HETATM   12  C   UNL     1     -42.623  55.623 -54.682  1.00  0.00    -0.001 A 
HETATM   13  C   UNL     1     -40.263  54.989 -54.484  1.00  0.00     0.030 A 
HETATM   14  C   UNL     1     -40.638  53.650 -54.637  1.00  0.00     0.002 A 
HETATM   15  C   UNL     1     -41.974  53.292 -54.807  1.00  0.00     0.001 A 
HETATM   16  C   UNL     1     -42.976  54.269 -54.834  1.00  0.00     0.014 A 
ENDROOT
BRANCH   1  17
HETATM   17  C   UNL     1     -42.636  60.035 -53.108  1.00  0.00     0.063 A 
HETATM   18  N   UNL     1     -41.804  59.502 -52.170  1.00  0.00    -0.256 NA
HETATM   19  C   UNL     1     -41.746  60.090 -50.949  1.00  0.00     0.031 A 
HETATM   20  C   UNL     1     -40.865  59.457 -49.915  1.00  0.00     0.070 C 
HETATM   21  C   UNL     1     -42.487  61.219 -50.620  1.00  0.00     0.027 A 
HETATM   22  C   UNL     1     -43.329  61.763 -51.576  1.00  0.00     0.004 A 
HETATM   23  C   UNL     1     -43.416  61.162 -52.827  1.00  0.00     0.030 A 
ENDBRANCH   1  17
BRANCH   3  24
HETATM   24  C   UNL     1     -45.399  60.220 -57.109  1.00  0.00     0.141 C 
BRANCH  24  25
HETATM   25  C   UNL     1     -45.344  59.068 -58.085  1.00  0.00    -0.047 A 
HETATM   26  C   UNL     1     -44.231  58.765 -58.880  1.00  0.00     0.047 A 
HETATM   27  C   UNL     1     -44.283  57.711 -59.808  1.00  0.00     0.102 A 
HETATM   28  C   UNL     1     -45.446  56.925 -59.921  1.00  0.00     0.101 A 
HETATM   29  C   UNL     1     -46.542  57.206 -59.106  1.00  0.00     0.040 A 
HETATM   30  C   UNL     1     -46.492  58.270 -58.204  1.00  0.00     0.010 A 
BRANCH  27  31
HETATM   31  O   UNL     1     -43.242  57.367 -60.637  1.00  0.00    -0.353 OA
HETATM   32  C   UNL     1     -41.938  57.410 -60.075  1.00  0.00     0.210 C 
ENDBRANCH  27  31
BRANCH  28  33
HETATM   33  O   UNL     1     -45.413  55.915 -60.851  1.00  0.00    -0.353 OA
HETATM   34  C   UNL     1     -45.126  54.605 -60.382  1.00  0.00     0.210 C 
ENDBRANCH  28  33
ENDBRANCH  24  25
ENDBRANCH   3  24
TORSDOF 5
ENDMDL
