MODEL 1
REMARK VINA RESULT:      -7.9      0.000      0.000
REMARK  6 active torsions:
REMARK  status: ('A' for Active; 'I' for Inactive)
REMARK    1  A    between atoms: C_8  and  N_9 
REMARK       I    between atoms: N_9  and  C_10 
REMARK    2  A    between atoms: C_10  and  C_11 
REMARK    3  A    between atoms: C_11  and  N_12 
REMARK    4  A    between atoms: N_12  and  C_15 
REMARK    5  A    between atoms: C_15  and  C_16 
REMARK    6  A    between atoms: C_16  and  C_17 
ROOT
HETATM    1  N   UNL     1     -42.757  55.977 -53.786  1.00  0.00    -0.062 N 
HETATM    2  H   UNL     1     -43.368  56.699 -53.373  1.00  0.00     0.278 HD
HETATM    3  H   UNL     1     -43.334  55.120 -53.730  1.00  0.00     0.278 HD
ENDROOT
BRANCH   1   4
HETATM    4  C   UNL     1     -42.600  56.228 -55.276  1.00  0.00     0.335 C 
BRANCH   4   5
HETATM    5  C   UNL     1     -43.873  56.871 -55.800  1.00  0.00     0.248 C 
HETATM    6  N   UNL     1     -44.058  57.184 -57.105  1.00  0.00    -0.322 N 
HETATM    7  H   UNL     1     -44.875  57.770 -57.255  1.00  0.00     0.169 HD
HETATM    8  O   UNL     1     -44.735  57.178 -54.963  1.00  0.00    -0.271 OA
BRANCH   6   9
HETATM    9  C   UNL     1     -43.301  56.934 -58.235  1.00  0.00     0.085 A 
HETATM   10  C   UNL     1     -42.323  57.828 -58.636  1.00  0.00     0.052 A 
HETATM   11  C   UNL     1     -41.852  59.123 -58.083  1.00  0.00     0.072 C 
HETATM   12  N   UNL     1     -41.736  57.283 -59.743  1.00  0.00    -0.280 N 
HETATM   13  H   UNL     1     -40.967  57.651 -60.297  1.00  0.00     0.189 HD
HETATM   14  N   UNL     1     -42.281  56.122 -60.110  1.00  0.00    -0.177 NA
HETATM   15  C   UNL     1     -43.284  55.928 -59.247  1.00  0.00     0.079 A 
HETATM   16  C   UNL     1     -44.204  54.803 -59.545  1.00  0.00     0.075 C 
ENDBRANCH   6   9
ENDBRANCH   4   5
ENDBRANCH   1   4
BRANCH   1  17
HETATM   17  C   UNL     1     -41.498  55.828 -52.966  1.00  0.00     0.194 C 
HETATM   18  C   UNL     1     -41.204  57.185 -52.319  1.00  0.00     0.041 C 
BRANCH  17  19
HETATM   19  C   UNL     1     -41.625  54.601 -51.976  1.00  0.00     0.007 C 
HETATM   20  C   UNL     1     -41.105  55.035 -50.574  1.00  0.00     0.022 C 
HETATM   21  C   UNL     1     -43.121  54.262 -51.732  1.00  0.00     0.022 C 
BRANCH  19  22
HETATM   22  C   UNL     1     -40.856  53.376 -52.518  1.00  0.00    -0.048 A 
HETATM   23  C   UNL     1     -40.973  52.954 -53.857  1.00  0.00     0.008 A 
HETATM   24  C   UNL     1     -40.305  51.818 -54.325  1.00  0.00     0.001 A 
HETATM   25  C   UNL     1     -39.499  51.077 -53.469  1.00  0.00     0.000 A 
HETATM   26  C   UNL     1     -39.358  51.473 -52.146  1.00  0.00     0.001 A 
HETATM   27  C   UNL     1     -40.029  52.607 -51.676  1.00  0.00     0.008 A 
ENDBRANCH  19  22
ENDBRANCH  17  19
ENDBRANCH   1  17
TORSDOF 6
ENDMDL
MODEL 2
REMARK VINA RESULT:      -7.8      3.457      5.599
REMARK  6 active torsions:
REMARK  status: ('A' for Active; 'I' for Inactive)
REMARK    1  A    between atoms: C_8  and  N_9 
REMARK       I    between atoms: N_9  and  C_10 
REMARK    2  A    between atoms: C_10  and  C_11 
REMARK    3  A    between atoms: C_11  and  N_12 
REMARK    4  A    between atoms: N_12  and  C_15 
REMARK    5  A    between atoms: C_15  and  C_16 
REMARK    6  A    between atoms: C_16  and  C_17 
ROOT
HETATM    1  N   UNL     1     -41.177  56.104 -53.087  1.00  0.00    -0.062 N 
HETATM    2  H   UNL     1     -40.445  56.198 -53.809  1.00  0.00     0.278 HD
HETATM    3  H   UNL     1     -40.760  56.579 -52.268  1.00  0.00     0.278 HD
ENDROOT
BRANCH   1   4
HETATM    4  C   UNL     1     -42.374  56.964 -53.454  1.00  0.00     0.335 C 
BRANCH   4   5
HETATM    5  C   UNL     1     -41.874  58.283 -54.018  1.00  0.00     0.248 C 
HETATM    6  N   UNL     1     -41.554  59.344 -53.240  1.00  0.00    -0.322 N 
HETATM    7  H   UNL     1     -41.417  60.196 -53.777  1.00  0.00     0.169 HD
HETATM    8  O   UNL     1     -41.835  58.389 -55.253  1.00  0.00    -0.271 OA
BRANCH   6   9
HETATM    9  C   UNL     1     -41.472  59.498 -51.868  1.00  0.00     0.085 A 
HETATM   10  C   UNL     1     -42.582  59.889 -51.138  1.00  0.00     0.052 A 
HETATM   11  C   UNL     1     -43.978  60.219 -51.524  1.00  0.00     0.072 C 
HETATM   12  N   UNL     1     -42.194  59.907 -49.829  1.00  0.00    -0.280 N 
HETATM   13  H   UNL     1     -42.749  60.132 -49.007  1.00  0.00     0.189 HD
HETATM   14  N   UNL     1     -40.908  59.592 -49.657  1.00  0.00    -0.177 NA
HETATM   15  C   UNL     1     -40.433  59.409 -50.893  1.00  0.00     0.079 A 
HETATM   16  C   UNL     1     -38.964  59.247 -51.020  1.00  0.00     0.075 C 
ENDBRANCH   6   9
ENDBRANCH   4   5
ENDBRANCH   1   4
BRANCH   1  17
HETATM   17  C   UNL     1     -41.429  54.645 -52.787  1.00  0.00     0.194 C 
HETATM   18  C   UNL     1     -42.869  54.520 -52.281  1.00  0.00     0.041 C 
BRANCH  17  19
HETATM   19  C   UNL     1     -41.054  53.751 -54.037  1.00  0.00     0.007 C 
HETATM   20  C   UNL     1     -42.321  53.580 -54.926  1.00  0.00     0.022 C 
HETATM   21  C   UNL     1     -40.052  54.504 -54.953  1.00  0.00     0.022 C 
BRANCH  19  22
HETATM   22  C   UNL     1     -40.484  52.389 -53.585  1.00  0.00    -0.048 A 
HETATM   23  C   UNL     1     -40.479  51.263 -54.432  1.00  0.00     0.008 A 
HETATM   24  C   UNL     1     -40.000  50.024 -53.997  1.00  0.00     0.001 A 
HETATM   25  C   UNL     1     -39.508  49.877 -52.706  1.00  0.00     0.000 A 
HETATM   26  C   UNL     1     -39.492  50.971 -51.850  1.00  0.00     0.001 A 
HETATM   27  C   UNL     1     -39.975  52.209 -52.284  1.00  0.00     0.008 A 
ENDBRANCH  19  22
ENDBRANCH  17  19
ENDBRANCH   1  17
TORSDOF 6
ENDMDL
MODEL 3
REMARK VINA RESULT:      -7.7      4.134      5.910
REMARK  6 active torsions:
REMARK  status: ('A' for Active; 'I' for Inactive)
REMARK    1  A    between atoms: C_8  and  N_9 
REMARK       I    between atoms: N_9  and  C_10 
REMARK    2  A    between atoms: C_10  and  C_11 
REMARK    3  A    between atoms: C_11  and  N_12 
REMARK    4  A    between atoms: N_12  and  C_15 
REMARK    5  A    between atoms: C_15  and  C_16 
REMARK    6  A    between atoms: C_16  and  C_17 
ROOT
HETATM    1  N   UNL     1     -41.197  56.921 -51.944  1.00  0.00    -0.062 N 
HETATM    2  H   UNL     1     -41.923  56.959 -52.677  1.00  0.00     0.278 HD
HETATM    3  H   UNL     1     -40.323  57.092 -52.471  1.00  0.00     0.278 HD
ENDROOT
BRANCH   1   4
HETATM    4  C   UNL     1     -41.327  58.126 -51.029  1.00  0.00     0.335 C 
BRANCH   4   5
HETATM    5  C   UNL     1     -41.660  59.346 -51.871  1.00  0.00     0.248 C 
HETATM    6  N   UNL     1     -42.863  59.966 -51.829  1.00  0.00    -0.322 N 
HETATM    7  H   UNL     1     -42.983  60.641 -52.580  1.00  0.00     0.169 HD
HETATM    8  O   UNL     1     -40.798  59.726 -52.678  1.00  0.00    -0.271 OA
BRANCH   6   9
HETATM    9  C   UNL     1     -43.972  59.786 -51.022  1.00  0.00     0.085 A 
HETATM   10  C   UNL     1     -44.331  60.751 -50.097  1.00  0.00     0.052 A 
HETATM   11  C   UNL     1     -43.743  62.064 -49.729  1.00  0.00     0.072 C 
HETATM   12  N   UNL     1     -45.474  60.303 -49.498  1.00  0.00    -0.280 N 
HETATM   13  H   UNL     1     -46.033  60.757 -48.780  1.00  0.00     0.189 HD
HETATM   14  N   UNL     1     -45.864  59.105 -49.939  1.00  0.00    -0.177 NA
HETATM   15  C   UNL     1     -44.922  58.741 -50.816  1.00  0.00     0.079 A 
HETATM   16  C   UNL     1     -44.989  57.347 -51.318  1.00  0.00     0.075 C 
ENDBRANCH   6   9
ENDBRANCH   4   5
ENDBRANCH   1   4
BRANCH   1  17
HETATM   17  C   UNL     1     -41.174  55.554 -51.302  1.00  0.00     0.194 C 
HETATM   18  C   UNL     1     -41.617  55.721 -49.845  1.00  0.00     0.041 C 
BRANCH  17  19
HETATM   19  C   UNL     1     -42.007  54.524 -52.165  1.00  0.00     0.007 C 
HETATM   20  C   UNL     1     -43.242  54.063 -51.338  1.00  0.00     0.022 C 
HETATM   21  C   UNL     1     -42.625  55.235 -53.400  1.00  0.00     0.022 C 
BRANCH  19  22
HETATM   22  C   UNL     1     -41.126  53.329 -52.593  1.00  0.00    -0.048 A 
HETATM   23  C   UNL     1     -40.248  52.690 -51.695  1.00  0.00     0.008 A 
HETATM   24  C   UNL     1     -39.423  51.637 -52.104  1.00  0.00     0.001 A 
HETATM   25  C   UNL     1     -39.458  51.192 -53.420  1.00  0.00     0.000 A 
HETATM   26  C   UNL     1     -40.320  51.796 -54.326  1.00  0.00     0.001 A 
HETATM   27  C   UNL     1     -41.141  52.852 -53.918  1.00  0.00     0.008 A 
ENDBRANCH  19  22
ENDBRANCH  17  19
ENDBRANCH   1  17
TORSDOF 6
ENDMDL
MODEL 4
REMARK VINA RESULT:      -7.6      3.634      5.615
REMARK  6 active torsions:
REMARK  status: ('A' for Active; 'I' for Inactive)
REMARK    1  A    between atoms: C_8  and  N_9 
REMARK       I    between atoms: N_9  and  C_10 
REMARK    2  A    between atoms: C_10  and  C_11 
REMARK    3  A    between atoms: C_11  and  N_12 
REMARK    4  A    between atoms: N_12  and  C_15 
REMARK    5  A    between atoms: C_15  and  C_16 
REMARK    6  A    between atoms: C_16  and  C_17 
ROOT
HETATM    1  N   UNL     1     -41.237  56.409 -53.120  1.00  0.00    -0.062 N 
HETATM    2  H   UNL     1     -41.978  56.693 -53.780  1.00  0.00     0.278 HD
HETATM    3  H   UNL     1     -40.370  56.539 -53.670  1.00  0.00     0.278 HD
ENDROOT
BRANCH   1   4
HETATM    4  C   UNL     1     -41.129  57.429 -52.000  1.00  0.00     0.335 C 
BRANCH   4   5
HETATM    5  C   UNL     1     -41.149  58.823 -52.604  1.00  0.00     0.248 C 
HETATM    6  N   UNL     1     -42.226  59.642 -52.534  1.00  0.00    -0.322 N 
HETATM    7  H   UNL     1     -42.141  60.452 -53.142  1.00  0.00     0.169 HD
HETATM    8  O   UNL     1     -40.148  59.173 -53.247  1.00  0.00    -0.271 OA
BRANCH   6   9
HETATM    9  C   UNL     1     -43.434  59.530 -51.871  1.00  0.00     0.085 A 
HETATM   10  C   UNL     1     -44.439  58.722 -52.375  1.00  0.00     0.052 A 
HETATM   11  C   UNL     1     -44.532  57.863 -53.583  1.00  0.00     0.072 C 
HETATM   12  N   UNL     1     -45.472  58.792 -51.483  1.00  0.00    -0.280 N 
HETATM   13  H   UNL     1     -46.369  58.316 -51.516  1.00  0.00     0.189 HD
HETATM   14  N   UNL     1     -45.227  59.612 -50.459  1.00  0.00    -0.177 NA
HETATM   15  C   UNL     1     -44.020  60.126 -50.714  1.00  0.00     0.079 A 
HETATM   16  C   UNL     1     -43.576  61.237 -49.837  1.00  0.00     0.075 C 
ENDBRANCH   6   9
ENDBRANCH   4   5
ENDBRANCH   1   4
BRANCH   1  17
HETATM   17  C   UNL     1     -41.411  54.960 -52.732  1.00  0.00     0.194 C 
HETATM   18  C   UNL     1     -42.799  54.814 -52.102  1.00  0.00     0.041 C 
BRANCH  17  19
HETATM   19  C   UNL     1     -41.107  54.017 -53.964  1.00  0.00     0.007 C 
HETATM   20  C   UNL     1     -42.407  53.862 -54.807  1.00  0.00     0.022 C 
HETATM   21  C   UNL     1     -40.110  54.708 -54.935  1.00  0.00     0.022 C 
BRANCH  19  22
HETATM   22  C   UNL     1     -40.567  52.650 -53.489  1.00  0.00    -0.048 A 
HETATM   23  C   UNL     1     -40.065  52.458 -52.187  1.00  0.00     0.008 A 
HETATM   24  C   UNL     1     -39.539  51.227 -51.781  1.00  0.00     0.001 A 
HETATM   25  C   UNL     1     -39.504  50.155 -52.665  1.00  0.00     0.000 A 
HETATM   26  C   UNL     1     -39.998  50.313 -53.953  1.00  0.00     0.001 A 
HETATM   27  C   UNL     1     -40.521  51.544 -54.360  1.00  0.00     0.008 A 
ENDBRANCH  19  22
ENDBRANCH  17  19
ENDBRANCH   1  17
TORSDOF 6
ENDMDL
MODEL 5
REMARK VINA RESULT:      -7.5      3.469      4.876
REMARK  6 active torsions:
REMARK  status: ('A' for Active; 'I' for Inactive)
REMARK    1  A    between atoms: C_8  and  N_9 
REMARK       I    between atoms: N_9  and  C_10 
REMARK    2  A    between atoms: C_10  and  C_11 
REMARK    3  A    between atoms: C_11  and  N_12 
REMARK    4  A    between atoms: N_12  and  C_15 
REMARK    5  A    between atoms: C_15  and  C_16 
REMARK    6  A    between atoms: C_16  and  C_17 
ROOT
HETATM    1  N   UNL     1     -43.252  56.203 -52.316  1.00  0.00    -0.062 N 
HETATM    2  H   UNL     1     -44.038  56.097 -52.975  1.00  0.00     0.278 HD
HETATM    3  H   UNL     1     -42.660  56.919 -52.770  1.00  0.00     0.278 HD
ENDROOT
BRANCH   1   4
HETATM    4  C   UNL     1     -43.737  56.869 -51.040  1.00  0.00     0.335 C 
BRANCH   4   5
HETATM    5  C   UNL     1     -44.201  58.278 -51.371  1.00  0.00     0.248 C 
HETATM    6  N   UNL     1     -43.367  59.240 -51.829  1.00  0.00    -0.322 N 
HETATM    7  H   UNL     1     -43.793  60.164 -51.823  1.00  0.00     0.169 HD
HETATM    8  O   UNL     1     -45.387  58.551 -51.131  1.00  0.00    -0.271 OA
BRANCH   6   9
HETATM    9  C   UNL     1     -42.038  59.212 -52.210  1.00  0.00     0.085 A 
HETATM   10  C   UNL     1     -41.034  59.284 -51.259  1.00  0.00     0.052 A 
HETATM   11  C   UNL     1     -41.053  59.399 -49.779  1.00  0.00     0.072 C 
HETATM   12  N   UNL     1     -39.853  59.190 -51.940  1.00  0.00    -0.280 N 
HETATM   13  H   UNL     1     -38.907  59.189 -51.568  1.00  0.00     0.189 HD
HETATM   14  N   UNL     1     -40.014  59.098 -53.262  1.00  0.00    -0.177 NA
HETATM   15  C   UNL     1     -41.334  59.182 -53.452  1.00  0.00     0.079 A 
HETATM   16  C   UNL     1     -41.793  59.316 -54.856  1.00  0.00     0.075 C 
ENDBRANCH   6   9
ENDBRANCH   4   5
ENDBRANCH   1   4
BRANCH   1  17
HETATM   17  C   UNL     1     -42.503  54.898 -52.182  1.00  0.00     0.194 C 
HETATM   18  C   UNL     1     -43.467  53.872 -51.579  1.00  0.00     0.041 C 
BRANCH  17  19
HETATM   19  C   UNL     1     -41.840  54.497 -53.560  1.00  0.00     0.007 C 
HETATM   20  C   UNL     1     -42.961  54.352 -54.631  1.00  0.00     0.022 C 
HETATM   21  C   UNL     1     -40.962  55.663 -54.092  1.00  0.00     0.022 C 
BRANCH  19  22
HETATM   22  C   UNL     1     -41.015  53.199 -53.416  1.00  0.00    -0.048 A 
HETATM   23  C   UNL     1     -41.013  52.202 -54.411  1.00  0.00     0.008 A 
HETATM   24  C   UNL     1     -40.297  51.011 -54.249  1.00  0.00     0.001 A 
HETATM   25  C   UNL     1     -39.561  50.788 -53.092  1.00  0.00     0.000 A 
HETATM   26  C   UNL     1     -39.539  51.756 -52.097  1.00  0.00     0.001 A 
HETATM   27  C   UNL     1     -40.257  52.945 -52.256  1.00  0.00     0.008 A 
ENDBRANCH  19  22
ENDBRANCH  17  19
ENDBRANCH   1  17
TORSDOF 6
ENDMDL
MODEL 6
REMARK VINA RESULT:      -7.5      3.562      4.898
REMARK  6 active torsions:
REMARK  status: ('A' for Active; 'I' for Inactive)
REMARK    1  A    between atoms: C_8  and  N_9 
REMARK       I    between atoms: N_9  and  C_10 
REMARK    2  A    between atoms: C_10  and  C_11 
REMARK    3  A    between atoms: C_11  and  N_12 
REMARK    4  A    between atoms: N_12  and  C_15 
REMARK    5  A    between atoms: C_15  and  C_16 
REMARK    6  A    between atoms: C_16  and  C_17 
ROOT
HETATM    1  N   UNL     1     -43.313  54.585 -52.762  1.00  0.00    -0.062 N 
HETATM    2  H   UNL     1     -42.804  54.451 -51.875  1.00  0.00     0.278 HD
HETATM    3  H   UNL     1     -44.208  54.094 -52.596  1.00  0.00     0.278 HD
ENDROOT
BRANCH   1   4
HETATM    4  C   UNL     1     -43.706  56.045 -52.912  1.00  0.00     0.335 C 
BRANCH   4   5
HETATM    5  C   UNL     1     -43.808  56.668 -51.530  1.00  0.00     0.248 C 
HETATM    6  N   UNL     1     -43.430  57.941 -51.266  1.00  0.00    -0.322 N 
HETATM    7  H   UNL     1     -43.388  58.138 -50.269  1.00  0.00     0.169 HD
HETATM    8  O   UNL     1     -44.191  55.933 -50.608  1.00  0.00    -0.271 OA
BRANCH   6   9
HETATM    9  C   UNL     1     -43.008  58.973 -52.085  1.00  0.00     0.085 A 
HETATM   10  C   UNL     1     -43.913  59.908 -52.558  1.00  0.00     0.052 A 
HETATM   11  C   UNL     1     -45.378  60.076 -52.376  1.00  0.00     0.072 C 
HETATM   12  N   UNL     1     -43.190  60.806 -53.290  1.00  0.00    -0.280 N 
HETATM   13  H   UNL     1     -43.517  61.637 -53.775  1.00  0.00     0.189 HD
HETATM   14  N   UNL     1     -41.891  60.505 -53.358  1.00  0.00    -0.177 NA
HETATM   15  C   UNL     1     -41.772  59.353 -52.690  1.00  0.00     0.079 A 
HETATM   16  C   UNL     1     -40.458  58.671 -52.777  1.00  0.00     0.075 C 
ENDBRANCH   6   9
ENDBRANCH   4   5
ENDBRANCH   1   4
BRANCH   1  17
HETATM   17  C   UNL     1     -42.556  53.944 -53.901  1.00  0.00     0.194 C 
HETATM   18  C   UNL     1     -42.962  54.666 -55.190  1.00  0.00     0.041 C 
BRANCH  17  19
HETATM   19  C   UNL     1     -41.007  53.910 -53.585  1.00  0.00     0.007 C 
HETATM   20  C   UNL     1     -40.247  54.635 -54.734  1.00  0.00     0.022 C 
HETATM   21  C   UNL     1     -40.696  54.769 -52.329  1.00  0.00     0.022 C 
BRANCH  19  22
HETATM   22  C   UNL     1     -40.517  52.456 -53.402  1.00  0.00    -0.048 A 
HETATM   23  C   UNL     1     -39.926  52.013 -52.203  1.00  0.00     0.008 A 
HETATM   24  C   UNL     1     -39.447  50.706 -52.064  1.00  0.00     0.001 A 
HETATM   25  C   UNL     1     -39.549  49.807 -53.119  1.00  0.00     0.000 A 
HETATM   26  C   UNL     1     -40.134  50.213 -54.311  1.00  0.00     0.001 A 
HETATM   27  C   UNL     1     -40.610  51.521 -54.451  1.00  0.00     0.008 A 
ENDBRANCH  19  22
ENDBRANCH  17  19
ENDBRANCH   1  17
TORSDOF 6
ENDMDL
MODEL 7
REMARK VINA RESULT:      -7.5      0.995      2.172
REMARK  6 active torsions:
REMARK  status: ('A' for Active; 'I' for Inactive)
REMARK    1  A    between atoms: C_8  and  N_9 
REMARK       I    between atoms: N_9  and  C_10 
REMARK    2  A    between atoms: C_10  and  C_11 
REMARK    3  A    between atoms: C_11  and  N_12 
REMARK    4  A    between atoms: N_12  and  C_15 
REMARK    5  A    between atoms: C_15  and  C_16 
REMARK    6  A    between atoms: C_16  and  C_17 
ROOT
HETATM    1  N   UNL     1     -41.881  56.394 -55.542  1.00  0.00    -0.062 N 
HETATM    2  H   UNL     1     -42.410  55.706 -56.101  1.00  0.00     0.278 HD
HETATM    3  H   UNL     1     -41.153  56.720 -56.201  1.00  0.00     0.278 HD
ENDROOT
BRANCH   1   4
HETATM    4  C   UNL     1     -42.740  57.622 -55.293  1.00  0.00     0.335 C 
BRANCH   4   5
HETATM    5  C   UNL     1     -44.097  57.410 -55.943  1.00  0.00     0.248 C 
HETATM    6  N   UNL     1     -44.271  57.355 -57.285  1.00  0.00    -0.322 N 
HETATM    7  H   UNL     1     -45.251  57.395 -57.555  1.00  0.00     0.169 HD
HETATM    8  O   UNL     1     -45.081  57.360 -55.190  1.00  0.00    -0.271 OA
BRANCH   6   9
HETATM    9  C   UNL     1     -43.374  57.349 -58.338  1.00  0.00     0.085 A 
HETATM   10  C   UNL     1     -43.274  56.246 -59.168  1.00  0.00     0.052 A 
HETATM   11  C   UNL     1     -43.972  54.935 -59.193  1.00  0.00     0.072 C 
HETATM   12  N   UNL     1     -42.347  56.564 -60.119  1.00  0.00    -0.280 N 
HETATM   13  H   UNL     1     -42.027  56.003 -60.904  1.00  0.00     0.189 HD
HETATM   14  N   UNL     1     -41.812  57.775 -59.948  1.00  0.00    -0.177 NA
HETATM   15  C   UNL     1     -42.373  58.241 -58.827  1.00  0.00     0.079 A 
HETATM   16  C   UNL     1     -41.807  59.497 -58.278  1.00  0.00     0.075 C 
ENDBRANCH   6   9
ENDBRANCH   4   5
ENDBRANCH   1   4
BRANCH   1  17
HETATM   17  C   UNL     1     -41.256  55.722 -54.343  1.00  0.00     0.194 C 
HETATM   18  C   UNL     1     -41.121  56.778 -53.241  1.00  0.00     0.041 C 
BRANCH  17  19
HETATM   19  C   UNL     1     -42.061  54.417 -53.957  1.00  0.00     0.007 C 
HETATM   20  C   UNL     1     -43.149  54.794 -52.909  1.00  0.00     0.022 C 
HETATM   21  C   UNL     1     -42.876  53.909 -55.178  1.00  0.00     0.022 C 
BRANCH  19  22
HETATM   22  C   UNL     1     -41.109  53.323 -53.426  1.00  0.00    -0.048 A 
HETATM   23  C   UNL     1     -40.614  52.298 -54.256  1.00  0.00     0.008 A 
HETATM   24  C   UNL     1     -39.788  51.287 -53.754  1.00  0.00     0.001 A 
HETATM   25  C   UNL     1     -39.431  51.276 -52.412  1.00  0.00     0.000 A 
HETATM   26  C   UNL     1     -39.898  52.278 -51.571  1.00  0.00     0.001 A 
HETATM   27  C   UNL     1     -40.727  53.287 -52.071  1.00  0.00     0.008 A 
ENDBRANCH  19  22
ENDBRANCH  17  19
ENDBRANCH   1  17
TORSDOF 6
ENDMDL
MODEL 8
REMARK VINA RESULT:      -7.4      2.340      3.202
REMARK  6 active torsions:
REMARK  status: ('A' for Active; 'I' for Inactive)
REMARK    1  A    between atoms: C_8  and  N_9 
REMARK       I    between atoms: N_9  and  C_10 
REMARK    2  A    between atoms: C_10  and  C_11 
REMARK    3  A    between atoms: C_11  and  N_12 
REMARK    4  A    between atoms: N_12  and  C_15 
REMARK    5  A    between atoms: C_15  and  C_16 
REMARK    6  A    between atoms: C_16  and  C_17 
ROOT
HETATM    1  N   UNL     1     -42.191  56.717 -52.564  1.00  0.00    -0.062 N 
HETATM    2  H   UNL     1     -43.140  56.316 -52.503  1.00  0.00     0.278 HD
HETATM    3  H   UNL     1     -41.923  56.534 -53.547  1.00  0.00     0.278 HD
ENDROOT
BRANCH   1   4
HETATM    4  C   UNL     1     -42.265  58.231 -52.470  1.00  0.00     0.335 C 
BRANCH   4   5
HETATM    5  C   UNL     1     -41.538  58.832 -53.661  1.00  0.00     0.248 C 
HETATM    6  N   UNL     1     -42.060  58.851 -54.910  1.00  0.00    -0.322 N 
HETATM    7  H   UNL     1     -41.378  59.116 -55.616  1.00  0.00     0.169 HD
HETATM    8  O   UNL     1     -40.387  59.251 -53.466  1.00  0.00    -0.271 OA
BRANCH   6   9
HETATM    9  C   UNL     1     -43.302  58.493 -55.403  1.00  0.00     0.085 A 
HETATM   10  C   UNL     1     -43.482  57.274 -56.034  1.00  0.00     0.052 A 
HETATM   11  C   UNL     1     -42.560  56.151 -56.341  1.00  0.00     0.072 C 
HETATM   12  N   UNL     1     -44.807  57.203 -56.361  1.00  0.00    -0.280 N 
HETATM   13  H   UNL     1     -45.305  56.446 -56.821  1.00  0.00     0.189 HD
HETATM   14  N   UNL     1     -45.492  58.297 -56.022  1.00  0.00    -0.177 NA
HETATM   15  C   UNL     1     -44.579  59.124 -55.501  1.00  0.00     0.079 A 
HETATM   16  C   UNL     1     -45.026  60.510 -55.223  1.00  0.00     0.075 C 
ENDBRANCH   6   9
ENDBRANCH   4   5
ENDBRANCH   1   4
BRANCH   1  17
HETATM   17  C   UNL     1     -41.260  56.001 -51.615  1.00  0.00     0.194 C 
HETATM   18  C   UNL     1     -41.069  56.901 -50.390  1.00  0.00     0.041 C 
BRANCH  17  19
HETATM   19  C   UNL     1     -41.784  54.538 -51.324  1.00  0.00     0.007 C 
HETATM   20  C   UNL     1     -41.700  54.273 -49.792  1.00  0.00     0.022 C 
HETATM   21  C   UNL     1     -43.301  54.439 -51.640  1.00  0.00     0.022 C 
BRANCH  19  22
HETATM   22  C   UNL     1     -40.976  53.496 -52.130  1.00  0.00    -0.048 A 
HETATM   23  C   UNL     1     -41.109  53.367 -53.527  1.00  0.00     0.008 A 
HETATM   24  C   UNL     1     -40.405  52.392 -54.240  1.00  0.00     0.001 A 
HETATM   25  C   UNL     1     -39.548  51.522 -53.578  1.00  0.00     0.000 A 
HETATM   26  C   UNL     1     -39.390  51.630 -52.202  1.00  0.00     0.001 A 
HETATM   27  C   UNL     1     -40.097  52.603 -51.488  1.00  0.00     0.008 A 
ENDBRANCH  19  22
ENDBRANCH  17  19
ENDBRANCH   1  17
TORSDOF 6
ENDMDL
MODEL 9
REMARK VINA RESULT:      -7.4      1.531      2.493
REMARK  6 active torsions:
REMARK  status: ('A' for Active; 'I' for Inactive)
REMARK    1  A    between atoms: C_8  and  N_9 
REMARK       I    between atoms: N_9  and  C_10 
REMARK    2  A    between atoms: C_10  and  C_11 
REMARK    3  A    between atoms: C_11  and  N_12 
REMARK    4  A    between atoms: N_12  and  C_15 
REMARK    5  A    between atoms: C_15  and  C_16 
REMARK    6  A    between atoms: C_16  and  C_17 
ROOT
HETATM    1  N   UNL     1     -41.779  56.373 -53.225  1.00  0.00    -0.062 N 
HETATM    2  H   UNL     1     -42.419  55.663 -53.616  1.00  0.00     0.278 HD
HETATM    3  H   UNL     1     -41.048  56.455 -53.952  1.00  0.00     0.278 HD
ENDROOT
BRANCH   1   4
HETATM    4  C   UNL     1     -42.459  57.731 -53.219  1.00  0.00     0.335 C 
BRANCH   4   5
HETATM    5  C   UNL     1     -43.865  57.576 -53.776  1.00  0.00     0.248 C 
HETATM    6  N   UNL     1     -44.139  57.595 -55.102  1.00  0.00    -0.322 N 
HETATM    7  H   UNL     1     -45.134  57.666 -55.295  1.00  0.00     0.169 HD
HETATM    8  O   UNL     1     -44.791  57.503 -52.955  1.00  0.00    -0.271 OA
BRANCH   6   9
HETATM    9  C   UNL     1     -43.322  57.629 -56.218  1.00  0.00     0.085 A 
HETATM   10  C   UNL     1     -42.821  56.456 -56.757  1.00  0.00     0.052 A 
HETATM   11  C   UNL     1     -42.967  55.028 -56.376  1.00  0.00     0.072 C 
HETATM   12  N   UNL     1     -42.099  56.818 -57.858  1.00  0.00    -0.280 N 
HETATM   13  H   UNL     1     -41.600  56.221 -58.512  1.00  0.00     0.189 HD
HETATM   14  N   UNL     1     -42.064  58.138 -58.054  1.00  0.00    -0.177 NA
HETATM   15  C   UNL     1     -42.743  58.654 -57.025  1.00  0.00     0.079 A 
HETATM   16  C   UNL     1     -42.692  60.128 -56.872  1.00  0.00     0.075 C 
ENDBRANCH   6   9
ENDBRANCH   4   5
ENDBRANCH   1   4
BRANCH   1  17
HETATM   17  C   UNL     1     -41.187  55.881 -51.926  1.00  0.00     0.194 C 
HETATM   18  C   UNL     1     -41.381  56.986 -50.883  1.00  0.00     0.041 C 
BRANCH  17  19
HETATM   19  C   UNL     1     -41.777  54.463 -51.551  1.00  0.00     0.007 C 
HETATM   20  C   UNL     1     -41.769  54.313 -50.001  1.00  0.00     0.022 C 
HETATM   21  C   UNL     1     -43.282  54.392 -51.927  1.00  0.00     0.022 C 
BRANCH  19  22
HETATM   22  C   UNL     1     -40.975  53.336 -52.239  1.00  0.00    -0.048 A 
HETATM   23  C   UNL     1     -40.045  52.545 -51.535  1.00  0.00     0.008 A 
HETATM   24  C   UNL     1     -39.294  51.556 -52.178  1.00  0.00     0.001 A 
HETATM   25  C   UNL     1     -39.455  51.328 -53.539  1.00  0.00     0.000 A 
HETATM   26  C   UNL     1     -40.370  52.086 -54.257  1.00  0.00     0.001 A 
HETATM   27  C   UNL     1     -41.119  53.078 -53.616  1.00  0.00     0.008 A 
ENDBRANCH  19  22
ENDBRANCH  17  19
ENDBRANCH   1  17
TORSDOF 6
ENDMDL
MODEL 10
REMARK VINA RESULT:      -7.3      2.792      4.703
REMARK  6 active torsions:
REMARK  status: ('A' for Active; 'I' for Inactive)
REMARK    1  A    between atoms: C_8  and  N_9 
REMARK       I    between atoms: N_9  and  C_10 
REMARK    2  A    between atoms: C_10  and  C_11 
REMARK    3  A    between atoms: C_11  and  N_12 
REMARK    4  A    between atoms: N_12  and  C_15 
REMARK    5  A    between atoms: C_15  and  C_16 
REMARK    6  A    between atoms: C_16  and  C_17 
ROOT
HETATM    1  N   UNL     1     -43.333  55.969 -54.021  1.00  0.00    -0.062 N 
HETATM    2  H   UNL     1     -43.820  56.256 -53.157  1.00  0.00     0.278 HD
HETATM    3  H   UNL     1     -43.896  55.167 -54.351  1.00  0.00     0.278 HD
ENDROOT
BRANCH   1   4
HETATM    4  C   UNL     1     -43.522  57.029 -55.092  1.00  0.00     0.335 C 
BRANCH   4   5
HETATM    5  C   UNL     1     -44.777  57.825 -54.777  1.00  0.00     0.248 C 
HETATM    6  N   UNL     1     -44.874  58.659 -53.715  1.00  0.00    -0.322 N 
HETATM    7  H   UNL     1     -45.828  58.965 -53.544  1.00  0.00     0.169 HD
HETATM    8  O   UNL     1     -45.765  57.628 -55.500  1.00  0.00    -0.271 OA
BRANCH   6   9
HETATM    9  C   UNL     1     -43.946  59.086 -52.783  1.00  0.00     0.085 A 
HETATM   10  C   UNL     1     -43.841  58.454 -51.555  1.00  0.00     0.052 A 
HETATM   11  C   UNL     1     -44.568  57.313 -50.943  1.00  0.00     0.072 C 
HETATM   12  N   UNL     1     -42.821  59.074 -50.890  1.00  0.00    -0.280 N 
HETATM   13  H   UNL     1     -42.450  58.866 -49.967  1.00  0.00     0.189 HD
HETATM   14  N   UNL     1     -42.280  60.081 -51.578  1.00  0.00    -0.177 NA
HETATM   15  C   UNL     1     -42.998  60.151 -52.704  1.00  0.00     0.079 A 
HETATM   16  C   UNL     1     -42.748  61.325 -53.576  1.00  0.00     0.075 C 
ENDBRANCH   6   9
ENDBRANCH   4   5
ENDBRANCH   1   4
BRANCH   1  17
HETATM   17  C   UNL     1     -41.921  55.537 -53.705  1.00  0.00     0.194 C 
HETATM   18  C   UNL     1     -41.073  56.804 -53.555  1.00  0.00     0.041 C 
BRANCH  17  19
HETATM   19  C   UNL     1     -41.908  54.545 -52.474  1.00  0.00     0.007 C 
HETATM   20  C   UNL     1     -41.374  55.307 -51.225  1.00  0.00     0.022 C 
HETATM   21  C   UNL     1     -43.360  54.156 -52.084  1.00  0.00     0.022 C 
BRANCH  19  22
HETATM   22  C   UNL     1     -41.059  53.293 -52.787  1.00  0.00    -0.048 A 
HETATM   23  C   UNL     1     -40.211  52.708 -51.826  1.00  0.00     0.008 A 
HETATM   24  C   UNL     1     -39.414  51.600 -52.134  1.00  0.00     0.001 A 
HETATM   25  C   UNL     1     -39.448  51.046 -53.408  1.00  0.00     0.000 A 
HETATM   26  C   UNL     1     -40.281  51.597 -54.373  1.00  0.00     0.001 A 
HETATM   27  C   UNL     1     -41.074  52.706 -54.067  1.00  0.00     0.008 A 
ENDBRANCH  19  22
ENDBRANCH  17  19
ENDBRANCH   1  17
TORSDOF 6
ENDMDL
