MODEL 1
REMARK VINA RESULT:      -8.2      0.000      0.000
REMARK  4 active torsions:
REMARK  status: ('A' for Active; 'I' for Inactive)
REMARK       I    between atoms: C_2  and  N_3 
REMARK    1  A    between atoms: N_3  and  C_4 
REMARK    2  A    between atoms: C_7  and  C_8 
REMARK    3  A    between atoms: C_12  and  N_13 
REMARK    4  A    between atoms: C_20  and  C_21 
ROOT
HETATM    1  C   UNL     1     -43.302  57.667 -55.351  1.00  0.00     0.105 C 
HETATM    2  C   UNL     1     -43.058  58.599 -54.168  1.00  0.00     0.067 C 
HETATM    3  C   UNL     1     -43.858  58.298 -52.911  1.00  0.00     0.020 C 
HETATM    4  N   UNL     1     -44.521  58.046 -51.869  1.00  0.00    -0.096 N 
HETATM    5  C   UNL     1     -42.304  59.729 -54.246  1.00  0.00     0.139 C 
HETATM    6  O   UNL     1     -41.691  60.122 -55.450  1.00  0.00    -0.279 OA
HETATM    7  C   UNL     1     -42.032  59.428 -56.532  1.00  0.00     0.175 A 
HETATM    8  C   UNL     1     -42.790  58.288 -56.604  1.00  0.00     0.040 A 
HETATM    9  N   UNL     1     -41.688  59.751 -57.801  1.00  0.00    -0.256 N 
HETATM   10  H   UNL     1     -41.132  60.536 -58.123  1.00  0.00     0.191 HD
HETATM   11  N   UNL     1     -42.191  58.896 -58.711  1.00  0.00    -0.172 NA
HETATM   12  C   UNL     1     -42.906  58.006 -57.992  1.00  0.00     0.099 A 
ENDROOT
BRANCH   1  13
HETATM   13  C   UNL     1     -42.581  56.335 -55.188  1.00  0.00    -0.044 A 
HETATM   14  C   UNL     1     -43.325  55.149 -55.102  1.00  0.00     0.010 A 
HETATM   15  C   UNL     1     -42.702  53.907 -54.908  1.00  0.00     0.030 A 
HETATM   16  C   UNL     1     -41.317  53.813 -54.795  1.00  0.00     0.034 A 
HETATM   17  C   UNL     1     -40.570  54.996 -54.868  1.00  0.00     0.030 A 
HETATM   18  C   UNL     1     -41.188  56.237 -55.052  1.00  0.00     0.010 A 
BRANCH  16  19
HETATM   19  N   UNL     1     -40.578  52.633 -54.599  1.00  0.00    -0.328 N 
HETATM   20  C   UNL     1     -40.020  52.019 -53.521  1.00  0.00     0.218 C 
HETATM   21  C   UNL     1     -40.135  52.580 -52.137  1.00  0.00     0.117 C 
HETATM   22  O   UNL     1     -39.404  50.965 -53.713  1.00  0.00    -0.274 OA
HETATM   23  H   UNL     1     -40.400  52.082 -55.431  1.00  0.00     0.169 HD
ENDBRANCH  16  19
ENDBRANCH   1  13
BRANCH   5  24
HETATM   24  N   UNL     1     -42.079  60.610 -53.214  1.00  0.00    -0.282 NA
HETATM   25  H   UNL     1     -42.610  60.438 -52.364  1.00  0.00     0.126 HD
HETATM   26  H   UNL     1     -41.087  60.754 -53.041  1.00  0.00     0.126 HD
ENDBRANCH   5  24
BRANCH  12  27
HETATM   27  C   UNL     1     -43.649  56.935 -58.654  1.00  0.00    -0.005 A 
HETATM   28  C   UNL     1     -44.909  57.195 -59.208  1.00  0.00     0.014 A 
HETATM   29  C   UNL     1     -45.633  56.179 -59.838  1.00  0.00     0.001 A 
HETATM   30  C   UNL     1     -45.105  54.892 -59.915  1.00  0.00     0.000 A 
HETATM   31  C   UNL     1     -43.858  54.617 -59.355  1.00  0.00     0.001 A 
HETATM   32  C   UNL     1     -43.135  55.632 -58.722  1.00  0.00     0.014 A 
ENDBRANCH  12  27
TORSDOF 4
ENDMDL
MODEL 2
REMARK VINA RESULT:      -8.2      2.956      6.417
REMARK  4 active torsions:
REMARK  status: ('A' for Active; 'I' for Inactive)
REMARK       I    between atoms: C_2  and  N_3 
REMARK    1  A    between atoms: N_3  and  C_4 
REMARK    2  A    between atoms: C_7  and  C_8 
REMARK    3  A    between atoms: C_12  and  N_13 
REMARK    4  A    between atoms: C_20  and  C_21 
ROOT
HETATM    1  C   UNL     1     -42.486  56.758 -52.203  1.00  0.00     0.105 C 
HETATM    2  C   UNL     1     -43.155  58.039 -51.713  1.00  0.00     0.067 C 
HETATM    3  C   UNL     1     -42.378  59.324 -51.951  1.00  0.00     0.020 C 
HETATM    4  N   UNL     1     -41.734  60.389 -52.150  1.00  0.00    -0.096 N 
HETATM    5  C   UNL     1     -44.293  58.054 -50.968  1.00  0.00     0.139 C 
HETATM    6  O   UNL     1     -44.938  56.862 -50.588  1.00  0.00    -0.279 OA
HETATM    7  C   UNL     1     -44.283  55.735 -50.848  1.00  0.00     0.175 A 
HETATM    8  C   UNL     1     -43.128  55.573 -51.570  1.00  0.00     0.040 A 
HETATM    9  N   UNL     1     -44.651  54.506 -50.415  1.00  0.00    -0.256 N 
HETATM   10  H   UNL     1     -45.455  54.251 -49.852  1.00  0.00     0.191 HD
HETATM   11  N   UNL     1     -43.793  53.541 -50.796  1.00  0.00    -0.172 NA
HETATM   12  C   UNL     1     -42.825  54.187 -51.479  1.00  0.00     0.099 A 
ENDROOT
BRANCH   1  13
HETATM   13  C   UNL     1     -42.621  56.583 -53.711  1.00  0.00    -0.044 A 
HETATM   14  C   UNL     1     -43.868  56.778 -54.322  1.00  0.00     0.010 A 
HETATM   15  C   UNL     1     -44.044  56.584 -55.701  1.00  0.00     0.030 A 
HETATM   16  C   UNL     1     -42.980  56.192 -56.509  1.00  0.00     0.034 A 
HETATM   17  C   UNL     1     -41.735  55.985 -55.901  1.00  0.00     0.030 A 
HETATM   18  C   UNL     1     -41.557  56.167 -54.526  1.00  0.00     0.010 A 
BRANCH  16  19
HETATM   19  N   UNL     1     -43.029  55.966 -57.895  1.00  0.00    -0.328 N 
HETATM   20  C   UNL     1     -42.696  56.690 -58.998  1.00  0.00     0.218 C 
HETATM   21  C   UNL     1     -42.109  58.065 -58.900  1.00  0.00     0.117 C 
HETATM   22  O   UNL     1     -42.891  56.177 -60.105  1.00  0.00    -0.274 OA
HETATM   23  H   UNL     1     -43.389  55.062 -58.182  1.00  0.00     0.169 HD
ENDBRANCH  16  19
ENDBRANCH   1  13
BRANCH   5  24
HETATM   24  N   UNL     1     -44.915  59.181 -50.484  1.00  0.00    -0.282 NA
HETATM   25  H   UNL     1     -45.156  59.161 -49.496  1.00  0.00     0.126 HD
HETATM   26  H   UNL     1     -44.433  60.034 -50.758  1.00  0.00     0.126 HD
ENDBRANCH   5  24
BRANCH  12  27
HETATM   27  C   UNL     1     -41.676  53.460 -52.017  1.00  0.00    -0.005 A 
HETATM   28  C   UNL     1     -41.627  53.136 -53.379  1.00  0.00     0.014 A 
HETATM   29  C   UNL     1     -40.539  52.435 -53.905  1.00  0.00     0.001 A 
HETATM   30  C   UNL     1     -39.491  52.048 -53.073  1.00  0.00     0.000 A 
HETATM   31  C   UNL     1     -39.534  52.352 -51.713  1.00  0.00     0.001 A 
HETATM   32  C   UNL     1     -40.624  53.050 -51.185  1.00  0.00     0.014 A 
ENDBRANCH  12  27
TORSDOF 4
ENDMDL
MODEL 3
REMARK VINA RESULT:      -7.4      2.899      6.205
REMARK  4 active torsions:
REMARK  status: ('A' for Active; 'I' for Inactive)
REMARK       I    between atoms: C_2  and  N_3 
REMARK    1  A    between atoms: N_3  and  C_4 
REMARK    2  A    between atoms: C_7  and  C_8 
REMARK    3  A    between atoms: C_12  and  N_13 
REMARK    4  A    between atoms: C_20  and  C_21 
ROOT
HETATM    1  C   UNL     1     -43.204  58.118 -53.002  1.00  0.00     0.105 C 
HETATM    2  C   UNL     1     -43.814  59.305 -52.261  1.00  0.00     0.067 C 
HETATM    3  C   UNL     1     -43.292  60.675 -52.664  1.00  0.00     0.020 C 
HETATM    4  N   UNL     1     -42.861  61.811 -52.999  1.00  0.00    -0.096 N 
HETATM    5  C   UNL     1     -44.651  59.176 -51.197  1.00  0.00     0.139 C 
HETATM    6  O   UNL     1     -45.013  57.911 -50.696  1.00  0.00    -0.279 OA
HETATM    7  C   UNL     1     -44.360  56.872 -51.207  1.00  0.00     0.175 A 
HETATM    8  C   UNL     1     -43.483  56.856 -52.261  1.00  0.00     0.040 A 
HETATM    9  N   UNL     1     -44.439  55.601 -50.744  1.00  0.00    -0.256 N 
HETATM   10  H   UNL     1     -44.991  55.246 -49.971  1.00  0.00     0.191 HD
HETATM   11  N   UNL     1     -43.650  54.749 -51.425  1.00  0.00    -0.172 NA
HETATM   12  C   UNL     1     -43.022  55.515 -52.342  1.00  0.00     0.099 A 
ENDROOT
BRANCH   1  13
HETATM   13  C   UNL     1     -43.790  57.953 -54.398  1.00  0.00    -0.044 A 
HETATM   14  C   UNL     1     -42.940  57.967 -55.513  1.00  0.00     0.010 A 
HETATM   15  C   UNL     1     -43.445  57.862 -56.819  1.00  0.00     0.030 A 
HETATM   16  C   UNL     1     -44.813  57.737 -57.047  1.00  0.00     0.034 A 
HETATM   17  C   UNL     1     -45.667  57.734 -55.937  1.00  0.00     0.030 A 
HETATM   18  C   UNL     1     -45.170  57.848 -54.636  1.00  0.00     0.010 A 
BRANCH  16  19
HETATM   19  N   UNL     1     -45.438  57.625 -58.301  1.00  0.00    -0.328 N 
HETATM   20  C   UNL     1     -45.287  56.808 -59.380  1.00  0.00     0.218 C 
HETATM   21  C   UNL     1     -44.277  55.702 -59.405  1.00  0.00     0.117 C 
HETATM   22  O   UNL     1     -46.017  57.003 -60.356  1.00  0.00    -0.274 OA
HETATM   23  H   UNL     1     -46.183  58.288 -58.483  1.00  0.00     0.169 HD
ENDBRANCH  16  19
ENDBRANCH   1  13
BRANCH   5  24
HETATM   24  N   UNL     1     -45.202  60.215 -50.485  1.00  0.00    -0.282 NA
HETATM   25  H   UNL     1     -45.596  60.970 -51.041  1.00  0.00     0.126 HD
HETATM   26  H   UNL     1     -45.831  59.889 -49.754  1.00  0.00     0.126 HD
ENDBRANCH   5  24
BRANCH  12  27
HETATM   27  C   UNL     1     -42.034  54.935 -53.249  1.00  0.00    -0.005 A 
HETATM   28  C   UNL     1     -41.038  55.744 -53.811  1.00  0.00     0.014 A 
HETATM   29  C   UNL     1     -40.090  55.205 -54.685  1.00  0.00     0.001 A 
HETATM   30  C   UNL     1     -40.133  53.851 -55.009  1.00  0.00     0.000 A 
HETATM   31  C   UNL     1     -41.128  53.037 -54.469  1.00  0.00     0.001 A 
HETATM   32  C   UNL     1     -42.078  53.577 -53.597  1.00  0.00     0.014 A 
ENDBRANCH  12  27
TORSDOF 4
ENDMDL
MODEL 4
REMARK VINA RESULT:      -7.4      2.022      5.421
REMARK  4 active torsions:
REMARK  status: ('A' for Active; 'I' for Inactive)
REMARK       I    between atoms: C_2  and  N_3 
REMARK    1  A    between atoms: N_3  and  C_4 
REMARK    2  A    between atoms: C_7  and  C_8 
REMARK    3  A    between atoms: C_12  and  N_13 
REMARK    4  A    between atoms: C_20  and  C_21 
ROOT
HETATM    1  C   UNL     1     -42.703  57.570 -55.450  1.00  0.00     0.105 C 
HETATM    2  C   UNL     1     -43.405  57.634 -56.804  1.00  0.00     0.067 C 
HETATM    3  C   UNL     1     -42.494  57.744 -58.016  1.00  0.00     0.020 C 
HETATM    4  N   UNL     1     -41.739  57.833 -59.021  1.00  0.00    -0.096 N 
HETATM    5  C   UNL     1     -44.753  57.748 -56.946  1.00  0.00     0.139 C 
HETATM    6  O   UNL     1     -45.606  57.822 -55.829  1.00  0.00    -0.279 OA
HETATM    7  C   UNL     1     -45.011  57.947 -54.647  1.00  0.00     0.175 A 
HETATM    8  C   UNL     1     -43.672  57.868 -54.359  1.00  0.00     0.040 A 
HETATM    9  N   UNL     1     -45.649  58.201 -53.480  1.00  0.00    -0.256 N 
HETATM   10  H   UNL     1     -46.643  58.325 -53.319  1.00  0.00     0.191 HD
HETATM   11  N   UNL     1     -44.804  58.311 -52.438  1.00  0.00    -0.172 NA
HETATM   12  C   UNL     1     -43.575  58.145 -52.969  1.00  0.00     0.099 A 
ENDROOT
BRANCH   1  13
HETATM   13  C   UNL     1     -42.129  56.187 -55.168  1.00  0.00    -0.044 A 
HETATM   14  C   UNL     1     -42.979  55.072 -55.162  1.00  0.00     0.010 A 
HETATM   15  C   UNL     1     -42.498  53.787 -54.863  1.00  0.00     0.030 A 
HETATM   16  C   UNL     1     -41.154  53.580 -54.565  1.00  0.00     0.034 A 
HETATM   17  C   UNL     1     -40.302  54.694 -54.559  1.00  0.00     0.030 A 
HETATM   18  C   UNL     1     -40.780  55.976 -54.845  1.00  0.00     0.010 A 
BRANCH  16  19
HETATM   19  N   UNL     1     -40.553  52.349 -54.251  1.00  0.00    -0.328 N 
HETATM   20  C   UNL     1     -40.006  51.806 -53.129  1.00  0.00     0.218 C 
HETATM   21  C   UNL     1     -39.964  52.545 -51.827  1.00  0.00     0.117 C 
HETATM   22  O   UNL     1     -39.537  50.666 -53.211  1.00  0.00    -0.274 OA
HETATM   23  H   UNL     1     -40.497  51.680 -55.011  1.00  0.00     0.169 HD
ENDBRANCH  16  19
ENDBRANCH   1  13
BRANCH   5  24
HETATM   24  N   UNL     1     -45.424  57.835 -58.143  1.00  0.00    -0.282 NA
HETATM   25  H   UNL     1     -45.635  56.949 -58.595  1.00  0.00     0.126 HD
HETATM   26  H   UNL     1     -46.228  58.455 -58.089  1.00  0.00     0.126 HD
ENDBRANCH   5  24
BRANCH  12  27
HETATM   27  C   UNL     1     -42.380  58.246 -52.133  1.00  0.00    -0.005 A 
HETATM   28  C   UNL     1     -41.938  57.133 -51.405  1.00  0.00     0.014 A 
HETATM   29  C   UNL     1     -40.801  57.217 -50.597  1.00  0.00     0.001 A 
HETATM   30  C   UNL     1     -40.098  58.416 -50.505  1.00  0.00     0.000 A 
HETATM   31  C   UNL     1     -40.536  59.535 -51.212  1.00  0.00     0.001 A 
HETATM   32  C   UNL     1     -41.675  59.452 -52.018  1.00  0.00     0.014 A 
ENDBRANCH  12  27
TORSDOF 4
ENDMDL
MODEL 5
REMARK VINA RESULT:      -7.2     16.404     19.184
REMARK  4 active torsions:
REMARK  status: ('A' for Active; 'I' for Inactive)
REMARK       I    between atoms: C_2  and  N_3 
REMARK    1  A    between atoms: N_3  and  C_4 
REMARK    2  A    between atoms: C_7  and  C_8 
REMARK    3  A    between atoms: C_12  and  N_13 
REMARK    4  A    between atoms: C_20  and  C_21 
ROOT
HETATM    1  C   UNL     1     -35.482  39.785 -53.054  1.00  0.00     0.105 C 
HETATM    2  C   UNL     1     -36.817  40.220 -52.454  1.00  0.00     0.067 C 
HETATM    3  C   UNL     1     -37.517  39.190 -51.582  1.00  0.00     0.020 C 
HETATM    4  N   UNL     1     -38.097  38.337 -50.857  1.00  0.00    -0.096 N 
HETATM    5  C   UNL     1     -37.445  41.380 -52.784  1.00  0.00     0.139 C 
HETATM    6  O   UNL     1     -36.896  42.272 -53.725  1.00  0.00    -0.279 OA
HETATM    7  C   UNL     1     -35.830  41.836 -54.389  1.00  0.00     0.175 A 
HETATM    8  C   UNL     1     -35.108  40.689 -54.176  1.00  0.00     0.040 A 
HETATM    9  N   UNL     1     -35.261  42.467 -55.444  1.00  0.00    -0.256 N 
HETATM   10  H   UNL     1     -35.536  43.342 -55.878  1.00  0.00     0.191 HD
HETATM   11  N   UNL     1     -34.212  41.792 -55.950  1.00  0.00    -0.172 NA
HETATM   12  C   UNL     1     -34.126  40.672 -55.203  1.00  0.00     0.099 A 
ENDROOT
BRANCH   1  13
HETATM   13  C   UNL     1     -34.351  39.849 -52.036  1.00  0.00    -0.044 A 
HETATM   14  C   UNL     1     -33.475  38.761 -51.903  1.00  0.00     0.010 A 
HETATM   15  C   UNL     1     -32.447  38.762 -50.947  1.00  0.00     0.030 A 
HETATM   16  C   UNL     1     -32.263  39.850 -50.099  1.00  0.00     0.034 A 
HETATM   17  C   UNL     1     -33.142  40.935 -50.220  1.00  0.00     0.030 A 
HETATM   18  C   UNL     1     -34.173  40.933 -51.163  1.00  0.00     0.010 A 
BRANCH  16  19
HETATM   19  N   UNL     1     -31.275  39.970 -49.106  1.00  0.00    -0.328 N 
HETATM   20  C   UNL     1     -31.108  39.469 -47.852  1.00  0.00     0.218 C 
HETATM   21  C   UNL     1     -32.104  38.539 -47.228  1.00  0.00     0.117 C 
HETATM   22  O   UNL     1     -30.097  39.803 -47.227  1.00  0.00    -0.274 OA
HETATM   23  H   UNL     1     -30.483  40.558 -49.341  1.00  0.00     0.169 HD
ENDBRANCH  16  19
ENDBRANCH   1  13
BRANCH   5  24
HETATM   24  N   UNL     1     -38.658  41.798 -52.290  1.00  0.00    -0.282 NA
HETATM   25  H   UNL     1     -39.438  41.164 -52.443  1.00  0.00     0.126 HD
HETATM   26  H   UNL     1     -38.591  42.121 -51.328  1.00  0.00     0.126 HD
ENDBRANCH   5  24
BRANCH  12  27
HETATM   27  C   UNL     1     -33.117  39.656 -55.493  1.00  0.00    -0.005 A 
HETATM   28  C   UNL     1     -33.466  38.506 -56.215  1.00  0.00     0.014 A 
HETATM   29  C   UNL     1     -32.512  37.524 -56.493  1.00  0.00     0.001 A 
HETATM   30  C   UNL     1     -31.202  37.679 -56.049  1.00  0.00     0.000 A 
HETATM   31  C   UNL     1     -30.844  38.811 -55.318  1.00  0.00     0.001 A 
HETATM   32  C   UNL     1     -31.798  39.793 -55.036  1.00  0.00     0.014 A 
ENDBRANCH  12  27
TORSDOF 4
ENDMDL
MODEL 6
REMARK VINA RESULT:      -7.1      1.659      2.205
REMARK  4 active torsions:
REMARK  status: ('A' for Active; 'I' for Inactive)
REMARK       I    between atoms: C_2  and  N_3 
REMARK    1  A    between atoms: N_3  and  C_4 
REMARK    2  A    between atoms: C_7  and  C_8 
REMARK    3  A    between atoms: C_12  and  N_13 
REMARK    4  A    between atoms: C_20  and  C_21 
ROOT
HETATM    1  C   UNL     1     -43.810  58.507 -53.907  1.00  0.00     0.105 C 
HETATM    2  C   UNL     1     -44.002  59.458 -52.729  1.00  0.00     0.067 C 
HETATM    3  C   UNL     1     -45.100  59.082 -51.748  1.00  0.00     0.020 C 
HETATM    4  N   UNL     1     -46.010  58.769 -50.933  1.00  0.00    -0.096 N 
HETATM    5  C   UNL     1     -43.361  60.652 -52.617  1.00  0.00     0.139 C 
HETATM    6  O   UNL     1     -42.465  61.102 -53.604  1.00  0.00    -0.279 OA
HETATM    7  C   UNL     1     -42.415  60.380 -54.719  1.00  0.00     0.175 A 
HETATM    8  C   UNL     1     -43.015  59.173 -54.976  1.00  0.00     0.040 A 
HETATM    9  N   UNL     1     -41.750  60.734 -55.845  1.00  0.00    -0.256 N 
HETATM   10  H   UNL     1     -41.197  61.567 -56.014  1.00  0.00     0.191 HD
HETATM   11  N   UNL     1     -41.891  59.836 -56.837  1.00  0.00    -0.172 NA
HETATM   12  C   UNL     1     -42.701  58.883 -56.331  1.00  0.00     0.099 A 
ENDROOT
BRANCH   1  13
HETATM   13  C   UNL     1     -43.050  57.248 -53.509  1.00  0.00    -0.044 A 
HETATM   14  C   UNL     1     -43.710  56.010 -53.511  1.00  0.00     0.010 A 
HETATM   15  C   UNL     1     -43.059  54.834 -53.108  1.00  0.00     0.030 A 
HETATM   16  C   UNL     1     -41.729  54.860 -52.694  1.00  0.00     0.034 A 
HETATM   17  C   UNL     1     -41.069  56.096 -52.680  1.00  0.00     0.030 A 
HETATM   18  C   UNL     1     -41.717  57.271 -53.070  1.00  0.00     0.010 A 
BRANCH  16  19
HETATM   19  N   UNL     1     -40.970  53.755 -52.270  1.00  0.00    -0.328 N 
HETATM   20  C   UNL     1     -40.329  52.733 -52.898  1.00  0.00     0.218 C 
HETATM   21  C   UNL     1     -40.307  52.605 -54.391  1.00  0.00     0.117 C 
HETATM   22  O   UNL     1     -39.753  51.896 -52.196  1.00  0.00    -0.274 OA
HETATM   23  H   UNL     1     -40.847  53.665 -51.268  1.00  0.00     0.169 HD
ENDBRANCH  16  19
ENDBRANCH   1  13
BRANCH   5  24
HETATM   24  N   UNL     1     -43.523  61.550 -51.588  1.00  0.00    -0.282 NA
HETATM   25  H   UNL     1     -43.700  62.512 -51.867  1.00  0.00     0.126 HD
HETATM   26  H   UNL     1     -44.175  61.214 -50.883  1.00  0.00     0.126 HD
ENDBRANCH   5  24
BRANCH  12  27
HETATM   27  C   UNL     1     -43.122  57.747 -57.150  1.00  0.00    -0.005 A 
HETATM   28  C   UNL     1     -42.618  56.467 -56.885  1.00  0.00     0.014 A 
HETATM   29  C   UNL     1     -43.007  55.374 -57.664  1.00  0.00     0.001 A 
HETATM   30  C   UNL     1     -43.900  55.552 -58.718  1.00  0.00     0.000 A 
HETATM   31  C   UNL     1     -44.398  56.823 -59.001  1.00  0.00     0.001 A 
HETATM   32  C   UNL     1     -44.007  57.917 -58.225  1.00  0.00     0.014 A 
ENDBRANCH  12  27
TORSDOF 4
ENDMDL
MODEL 7
REMARK VINA RESULT:      -7.1     16.084     18.875
REMARK  4 active torsions:
REMARK  status: ('A' for Active; 'I' for Inactive)
REMARK       I    between atoms: C_2  and  N_3 
REMARK    1  A    between atoms: N_3  and  C_4 
REMARK    2  A    between atoms: C_7  and  C_8 
REMARK    3  A    between atoms: C_12  and  N_13 
REMARK    4  A    between atoms: C_20  and  C_21 
ROOT
HETATM    1  C   UNL     1     -35.249  39.802 -54.304  1.00  0.00     0.105 C 
HETATM    2  C   UNL     1     -34.796  40.486 -53.017  1.00  0.00     0.067 C 
HETATM    3  C   UNL     1     -34.198  39.574 -51.959  1.00  0.00     0.020 C 
HETATM    4  N   UNL     1     -33.700  38.817 -51.081  1.00  0.00    -0.096 N 
HETATM    5  C   UNL     1     -35.042  41.793 -52.736  1.00  0.00     0.139 C 
HETATM    6  O   UNL     1     -35.750  42.618 -53.631  1.00  0.00    -0.279 OA
HETATM    7  C   UNL     1     -36.306  42.006 -54.672  1.00  0.00     0.175 A 
HETATM    8  C   UNL     1     -36.159  40.701 -55.067  1.00  0.00     0.040 A 
HETATM    9  N   UNL     1     -37.161  42.587 -55.548  1.00  0.00    -0.256 N 
HETATM   10  H   UNL     1     -37.497  43.543 -55.559  1.00  0.00     0.191 HD
HETATM   11  N   UNL     1     -37.600  41.733 -56.491  1.00  0.00    -0.172 NA
HETATM   12  C   UNL     1     -37.020  40.552 -56.187  1.00  0.00     0.099 A 
ENDROOT
BRANCH   1  13
HETATM   13  C   UNL     1     -34.077  39.475 -55.221  1.00  0.00    -0.044 A 
HETATM   14  C   UNL     1     -33.735  38.136 -55.459  1.00  0.00     0.010 A 
HETATM   15  C   UNL     1     -32.635  37.793 -56.261  1.00  0.00     0.030 A 
HETATM   16  C   UNL     1     -31.847  38.778 -56.850  1.00  0.00     0.034 A 
HETATM   17  C   UNL     1     -32.177  40.118 -56.606  1.00  0.00     0.030 A 
HETATM   18  C   UNL     1     -33.265  40.464 -55.799  1.00  0.00     0.010 A 
BRANCH  16  19
HETATM   19  N   UNL     1     -30.725  38.564 -57.670  1.00  0.00    -0.328 N 
HETATM   20  C   UNL     1     -29.408  38.308 -57.446  1.00  0.00     0.218 C 
HETATM   21  C   UNL     1     -28.847  38.172 -56.063  1.00  0.00     0.117 C 
HETATM   22  O   UNL     1     -28.669  38.187 -58.428  1.00  0.00    -0.274 OA
HETATM   23  H   UNL     1     -30.896  38.598 -58.668  1.00  0.00     0.169 HD
ENDBRANCH  16  19
ENDBRANCH   1  13
BRANCH   5  24
HETATM   24  N   UNL     1     -34.677  42.443 -51.580  1.00  0.00    -0.282 NA
HETATM   25  H   UNL     1     -34.143  43.299 -51.706  1.00  0.00     0.126 HD
HETATM   26  H   UNL     1     -35.458  42.552 -50.937  1.00  0.00     0.126 HD
ENDBRANCH   5  24
BRANCH  12  27
HETATM   27  C   UNL     1     -37.304  39.355 -56.977  1.00  0.00    -0.005 A 
HETATM   28  C   UNL     1     -37.949  39.470 -58.215  1.00  0.00     0.014 A 
HETATM   29  C   UNL     1     -38.232  38.334 -58.978  1.00  0.00     0.001 A 
HETATM   30  C   UNL     1     -37.876  37.072 -58.507  1.00  0.00     0.000 A 
HETATM   31  C   UNL     1     -37.247  36.943 -57.270  1.00  0.00     0.001 A 
HETATM   32  C   UNL     1     -36.966  38.079 -56.505  1.00  0.00     0.014 A 
ENDBRANCH  12  27
TORSDOF 4
ENDMDL
MODEL 8
REMARK VINA RESULT:      -6.7      3.519      6.917
REMARK  4 active torsions:
REMARK  status: ('A' for Active; 'I' for Inactive)
REMARK       I    between atoms: C_2  and  N_3 
REMARK    1  A    between atoms: N_3  and  C_4 
REMARK    2  A    between atoms: C_7  and  C_8 
REMARK    3  A    between atoms: C_12  and  N_13 
REMARK    4  A    between atoms: C_20  and  C_21 
ROOT
HETATM    1  C   UNL     1     -42.480  57.828 -52.496  1.00  0.00     0.105 C 
HETATM    2  C   UNL     1     -41.823  57.568 -51.143  1.00  0.00     0.067 C 
HETATM    3  C   UNL     1     -40.908  58.668 -50.630  1.00  0.00     0.020 C 
HETATM    4  N   UNL     1     -40.150  59.581 -50.204  1.00  0.00    -0.096 N 
HETATM    5  C   UNL     1     -41.901  56.380 -50.487  1.00  0.00     0.139 C 
HETATM    6  O   UNL     1     -42.603  55.286 -51.028  1.00  0.00    -0.279 OA
HETATM    7  C   UNL     1     -43.032  55.428 -52.278  1.00  0.00     0.175 A 
HETATM    8  C   UNL     1     -43.006  56.555 -53.061  1.00  0.00     0.040 A 
HETATM    9  N   UNL     1     -43.574  54.440 -53.030  1.00  0.00    -0.256 N 
HETATM   10  H   UNL     1     -43.743  53.474 -52.774  1.00  0.00     0.191 HD
HETATM   11  N   UNL     1     -43.894  54.848 -54.273  1.00  0.00    -0.172 NA
HETATM   12  C   UNL     1     -43.515  56.142 -54.322  1.00  0.00     0.099 A 
ENDROOT
BRANCH   1  13
HETATM   13  C   UNL     1     -43.661  58.785 -52.384  1.00  0.00    -0.044 A 
HETATM   14  C   UNL     1     -44.664  58.539 -51.436  1.00  0.00     0.010 A 
HETATM   15  C   UNL     1     -45.790  59.371 -51.330  1.00  0.00     0.030 A 
HETATM   16  C   UNL     1     -45.944  60.473 -52.167  1.00  0.00     0.034 A 
HETATM   17  C   UNL     1     -44.950  60.717 -53.123  1.00  0.00     0.030 A 
HETATM   18  C   UNL     1     -43.832  59.884 -53.239  1.00  0.00     0.010 A 
BRANCH  16  19
HETATM   19  N   UNL     1     -47.021  61.377 -52.159  1.00  0.00    -0.328 N 
HETATM   20  C   UNL     1     -47.278  62.559 -51.535  1.00  0.00     0.218 C 
HETATM   21  C   UNL     1     -46.286  63.205 -50.616  1.00  0.00     0.117 C 
HETATM   22  O   UNL     1     -48.368  63.097 -51.747  1.00  0.00    -0.274 OA
HETATM   23  H   UNL     1     -47.809  61.128 -52.746  1.00  0.00     0.169 HD
ENDBRANCH  16  19
ENDBRANCH   1  13
BRANCH   5  24
HETATM   24  N   UNL     1     -41.304  56.093 -49.282  1.00  0.00    -0.282 NA
HETATM   25  H   UNL     1     -40.448  56.604 -49.082  1.00  0.00     0.126 HD
HETATM   26  H   UNL     1     -41.967  56.111 -48.511  1.00  0.00     0.126 HD
ENDBRANCH   5  24
BRANCH  12  27
HETATM   27  C   UNL     1     -43.665  56.919 -55.551  1.00  0.00    -0.005 A 
HETATM   28  C   UNL     1     -42.633  56.938 -56.499  1.00  0.00     0.014 A 
HETATM   29  C   UNL     1     -42.761  57.681 -57.675  1.00  0.00     0.001 A 
HETATM   30  C   UNL     1     -43.919  58.416 -57.913  1.00  0.00     0.000 A 
HETATM   31  C   UNL     1     -44.948  58.418 -56.971  1.00  0.00     0.001 A 
HETATM   32  C   UNL     1     -44.820  57.677 -55.793  1.00  0.00     0.014 A 
ENDBRANCH  12  27
TORSDOF 4
ENDMDL
MODEL 9
REMARK VINA RESULT:      -6.7      3.583      7.730
REMARK  4 active torsions:
REMARK  status: ('A' for Active; 'I' for Inactive)
REMARK       I    between atoms: C_2  and  N_3 
REMARK    1  A    between atoms: N_3  and  C_4 
REMARK    2  A    between atoms: C_7  and  C_8 
REMARK    3  A    between atoms: C_12  and  N_13 
REMARK    4  A    between atoms: C_20  and  C_21 
ROOT
HETATM    1  C   UNL     1     -44.589  57.578 -58.538  1.00  0.00     0.105 C 
HETATM    2  C   UNL     1     -45.041  56.555 -59.577  1.00  0.00     0.067 C 
HETATM    3  C   UNL     1     -46.285  56.923 -60.369  1.00  0.00     0.020 C 
HETATM    4  N   UNL     1     -47.316  57.229 -61.028  1.00  0.00    -0.096 N 
HETATM    5  C   UNL     1     -44.490  55.318 -59.702  1.00  0.00     0.139 C 
HETATM    6  O   UNL     1     -43.446  54.890 -58.860  1.00  0.00    -0.279 OA
HETATM    7  C   UNL     1     -43.155  55.689 -57.838  1.00  0.00     0.175 A 
HETATM    8  C   UNL     1     -43.640  56.946 -57.580  1.00  0.00     0.040 A 
HETATM    9  N   UNL     1     -42.308  55.380 -56.827  1.00  0.00    -0.256 N 
HETATM   10  H   UNL     1     -41.773  54.529 -56.692  1.00  0.00     0.191 HD
HETATM   11  N   UNL     1     -42.219  56.357 -55.906  1.00  0.00    -0.172 NA
HETATM   12  C   UNL     1     -43.065  57.317 -56.335  1.00  0.00     0.099 A 
ENDROOT
BRANCH   1  13
HETATM   13  C   UNL     1     -43.859  58.754 -59.175  1.00  0.00    -0.044 A 
HETATM   14  C   UNL     1     -42.839  58.515 -60.106  1.00  0.00     0.010 A 
HETATM   15  C   UNL     1     -42.112  59.569 -60.682  1.00  0.00     0.030 A 
HETATM   16  C   UNL     1     -42.386  60.892 -60.346  1.00  0.00     0.034 A 
HETATM   17  C   UNL     1     -43.397  61.136 -59.407  1.00  0.00     0.030 A 
HETATM   18  C   UNL     1     -44.116  60.088 -58.823  1.00  0.00     0.010 A 
BRANCH  16  19
HETATM   19  N   UNL     1     -41.732  62.029 -60.851  1.00  0.00    -0.328 N 
HETATM   20  C   UNL     1     -40.695  62.805 -60.433  1.00  0.00     0.218 C 
HETATM   21  C   UNL     1     -39.945  62.517 -59.168  1.00  0.00     0.117 C 
HETATM   22  O   UNL     1     -40.379  63.771 -61.134  1.00  0.00    -0.274 OA
HETATM   23  H   UNL     1     -42.084  62.385 -61.733  1.00  0.00     0.169 HD
ENDBRANCH  16  19
ENDBRANCH   1  13
BRANCH   5  24
HETATM   24  N   UNL     1     -44.882  54.357 -60.604  1.00  0.00    -0.282 NA
HETATM   25  H   UNL     1     -45.304  53.523 -60.203  1.00  0.00     0.126 HD
HETATM   26  H   UNL     1     -45.425  54.748 -61.371  1.00  0.00     0.126 HD
ENDBRANCH   5  24
BRANCH  12  27
HETATM   27  C   UNL     1     -43.272  58.534 -55.552  1.00  0.00    -0.005 A 
HETATM   28  C   UNL     1     -44.504  58.762 -54.924  1.00  0.00     0.014 A 
HETATM   29  C   UNL     1     -44.718  59.924 -54.178  1.00  0.00     0.001 A 
HETATM   30  C   UNL     1     -43.705  60.872 -54.058  1.00  0.00     0.000 A 
HETATM   31  C   UNL     1     -42.479  60.664 -54.690  1.00  0.00     0.001 A 
HETATM   32  C   UNL     1     -42.265  59.504 -55.439  1.00  0.00     0.014 A 
ENDBRANCH  12  27
TORSDOF 4
ENDMDL
MODEL 10
REMARK VINA RESULT:      -6.6      3.129      6.172
REMARK  4 active torsions:
REMARK  status: ('A' for Active; 'I' for Inactive)
REMARK       I    between atoms: C_2  and  N_3 
REMARK    1  A    between atoms: N_3  and  C_4 
REMARK    2  A    between atoms: C_7  and  C_8 
REMARK    3  A    between atoms: C_12  and  N_13 
REMARK    4  A    between atoms: C_20  and  C_21 
ROOT
HETATM    1  C   UNL     1     -42.841  56.859 -51.897  1.00  0.00     0.105 C 
HETATM    2  C   UNL     1     -42.472  55.605 -51.109  1.00  0.00     0.067 C 
HETATM    3  C   UNL     1     -43.556  54.544 -51.009  1.00  0.00     0.020 C 
HETATM    4  N   UNL     1     -44.454  53.663 -50.928  1.00  0.00    -0.096 N 
HETATM    5  C   UNL     1     -41.321  55.479 -50.395  1.00  0.00     0.139 C 
HETATM    6  O   UNL     1     -40.377  56.521 -50.332  1.00  0.00    -0.279 OA
HETATM    7  C   UNL     1     -40.753  57.682 -50.860  1.00  0.00     0.175 A 
HETATM    8  C   UNL     1     -41.883  57.957 -51.587  1.00  0.00     0.040 A 
HETATM    9  N   UNL     1     -40.064  58.843 -50.752  1.00  0.00    -0.256 N 
HETATM   10  H   UNL     1     -39.183  59.011 -50.279  1.00  0.00     0.191 HD
HETATM   11  N   UNL     1     -40.685  59.874 -51.354  1.00  0.00    -0.172 NA
HETATM   12  C   UNL     1     -41.829  59.353 -51.843  1.00  0.00     0.099 A 
ENDROOT
BRANCH   1  13
HETATM   13  C   UNL     1     -42.779  56.627 -53.401  1.00  0.00    -0.044 A 
HETATM   14  C   UNL     1     -43.865  57.000 -54.206  1.00  0.00     0.010 A 
HETATM   15  C   UNL     1     -43.867  56.764 -55.589  1.00  0.00     0.030 A 
HETATM   16  C   UNL     1     -42.781  56.150 -56.209  1.00  0.00     0.034 A 
HETATM   17  C   UNL     1     -41.698  55.765 -55.409  1.00  0.00     0.030 A 
HETATM   18  C   UNL     1     -41.697  55.990 -54.029  1.00  0.00     0.010 A 
BRANCH  16  19
HETATM   19  N   UNL     1     -42.663  55.860 -57.580  1.00  0.00    -0.328 N 
HETATM   20  C   UNL     1     -42.427  56.596 -58.700  1.00  0.00     0.218 C 
HETATM   21  C   UNL     1     -42.197  58.075 -58.646  1.00  0.00     0.117 C 
HETATM   22  O   UNL     1     -42.404  56.004 -59.784  1.00  0.00    -0.274 OA
HETATM   23  H   UNL     1     -42.771  54.885 -57.834  1.00  0.00     0.169 HD
ENDBRANCH  16  19
ENDBRANCH   1  13
BRANCH   5  24
HETATM   24  N   UNL     1     -40.961  54.380 -49.650  1.00  0.00    -0.282 NA
HETATM   25  H   UNL     1     -41.729  53.800 -49.323  1.00  0.00     0.126 HD
HETATM   26  H   UNL     1     -40.217  53.845 -50.091  1.00  0.00     0.126 HD
ENDBRANCH   5  24
BRANCH  12  27
HETATM   27  C   UNL     1     -42.801  60.200 -52.534  1.00  0.00    -0.005 A 
HETATM   28  C   UNL     1     -44.044  60.463 -51.945  1.00  0.00     0.014 A 
HETATM   29  C   UNL     1     -44.985  61.265 -52.597  1.00  0.00     0.001 A 
HETATM   30  C   UNL     1     -44.692  61.807 -53.846  1.00  0.00     0.000 A 
HETATM   31  C   UNL     1     -43.464  61.540 -54.450  1.00  0.00     0.001 A 
HETATM   32  C   UNL     1     -42.524  60.736 -53.800  1.00  0.00     0.014 A 
ENDBRANCH  12  27
TORSDOF 4
ENDMDL
