MODEL 1
REMARK VINA RESULT:      -7.9      0.000      0.000
REMARK  9 active torsions:
REMARK  status: ('A' for Active; 'I' for Inactive)
REMARK    1  A    between atoms: C_2  and  N_3 
REMARK    2  A    between atoms: N_3  and  C_4 
REMARK    3  A    between atoms: N_3  and  C_34 
REMARK    4  A    between atoms: C_6  and  O_7 
REMARK    5  A    between atoms: C_8  and  C_9 
REMARK    6  A    between atoms: N_10  and  N_11 
REMARK       I    between atoms: N_11  and  C_12 
REMARK    7  A    between atoms: C_12  and  C_13 
REMARK    8  A    between atoms: C_16  and  N_17 
REMARK    9  A    between atoms: C_21  and  C_22 
ROOT
HETATM    1  C   UNL     1     -42.355  59.370 -53.412  1.00  0.00     0.033 A 
HETATM    2  C   UNL     1     -41.078  59.169 -52.876  1.00  0.00     0.019 A 
HETATM    3  C   UNL     1     -40.892  58.251 -51.833  1.00  0.00     0.030 A 
HETATM    4  C   UNL     1     -41.966  57.521 -51.296  1.00  0.00     0.034 A 
HETATM    5  C   UNL     1     -43.239  57.754 -51.829  1.00  0.00     0.030 A 
HETATM    6  C   UNL     1     -43.434  58.663 -52.876  1.00  0.00     0.019 A 
ENDROOT
BRANCH   1   7
HETATM    7  C   UNL     1     -42.619  60.341 -54.512  1.00  0.00     0.271 C 
HETATM    8  N   UNL     1     -41.747  60.264 -55.594  1.00  0.00    -0.243 N 
HETATM    9  H   UNL     1     -41.231  59.400 -55.719  1.00  0.00     0.192 HD
HETATM   10  O   UNL     1     -43.580  61.098 -54.412  1.00  0.00    -0.266 OA
BRANCH   8  11
HETATM   11  N   UNL     1     -41.874  60.980 -56.757  1.00  0.00    -0.183 NA
HETATM   12  C   UNL     1     -41.392  60.460 -57.845  1.00  0.00     0.153 C 
BRANCH  12  13
HETATM   13  C   UNL     1     -41.429  61.189 -59.131  1.00  0.00     0.016 A 
HETATM   14  C   UNL     1     -41.032  62.520 -59.207  1.00  0.00     0.079 A 
HETATM   15  C   UNL     1     -41.083  63.209 -60.428  1.00  0.00     0.066 A 
HETATM   16  C   UNL     1     -41.539  62.604 -61.617  1.00  0.00     0.032 A 
HETATM   17  C   UNL     1     -41.929  61.257 -61.501  1.00  0.00     0.030 A 
HETATM   18  C   UNL     1     -41.878  60.555 -60.287  1.00  0.00     0.018 A 
BRANCH  14  19
HETATM   19  O   UNL     1     -40.584  63.165 -58.086  1.00  0.00    -0.360 OA
HETATM   20  H   UNL     1     -41.255  63.097 -57.387  1.00  0.00     0.217 HD
ENDBRANCH  14  19
BRANCH  16  21
HETATM   21  N   UNL     1     -41.596  63.291 -62.826  1.00  0.00    -0.382 N 
BRANCH  21  22
HETATM   22  C   UNL     1     -40.638  63.037 -63.914  1.00  0.00     0.118 C 
HETATM   23  C   UNL     1     -39.206  63.177 -63.419  1.00  0.00     0.026 C 
ENDBRANCH  21  22
BRANCH  21  24
HETATM   24  C   UNL     1     -42.650  64.270 -63.128  1.00  0.00     0.118 C 
HETATM   25  C   UNL     1     -43.894  63.576 -63.664  1.00  0.00     0.026 C 
ENDBRANCH  21  24
ENDBRANCH  16  21
ENDBRANCH  12  13
ENDBRANCH   8  11
ENDBRANCH   1   7
BRANCH   4  26
HETATM   26  N   UNL     1     -41.719  56.660 -50.213  1.00  0.00    -0.335 N 
HETATM   27  C   UNL     1     -41.230  55.397 -50.233  1.00  0.00     0.171 A 
HETATM   28  S   UNL     1     -40.899  54.604 -48.734  1.00  0.00    -0.061 SA
HETATM   29  N   UNL     1     -40.997  54.653 -51.290  1.00  0.00    -0.223 NA
HETATM   30  C   UNL     1     -40.417  53.194 -49.581  1.00  0.00     0.085 A 
HETATM   31  C   UNL     1     -40.540  53.391 -50.941  1.00  0.00     0.076 A 
HETATM   32  H   UNL     1     -41.931  57.050 -49.304  1.00  0.00     0.168 HD
BRANCH  31  33
HETATM   33  C   UNL     1     -40.244  52.394 -51.972  1.00  0.00    -0.007 A 
HETATM   34  C   UNL     1     -39.725  51.126 -51.675  1.00  0.00     0.014 A 
HETATM   35  C   UNL     1     -39.466  50.202 -52.694  1.00  0.00     0.001 A 
HETATM   36  C   UNL     1     -39.721  50.534 -54.023  1.00  0.00     0.000 A 
HETATM   37  C   UNL     1     -40.234  51.789 -54.336  1.00  0.00     0.001 A 
HETATM   38  C   UNL     1     -40.493  52.710 -53.319  1.00  0.00     0.014 A 
ENDBRANCH  31  33
ENDBRANCH   4  26
TORSDOF 9
ENDMDL
MODEL 2
REMARK VINA RESULT:      -7.7      4.192      5.002
REMARK  9 active torsions:
REMARK  status: ('A' for Active; 'I' for Inactive)
REMARK    1  A    between atoms: C_2  and  N_3 
REMARK    2  A    between atoms: N_3  and  C_4 
REMARK    3  A    between atoms: N_3  and  C_34 
REMARK    4  A    between atoms: C_6  and  O_7 
REMARK    5  A    between atoms: C_8  and  C_9 
REMARK    6  A    between atoms: N_10  and  N_11 
REMARK       I    between atoms: N_11  and  C_12 
REMARK    7  A    between atoms: C_12  and  C_13 
REMARK    8  A    between atoms: C_16  and  N_17 
REMARK    9  A    between atoms: C_21  and  C_22 
ROOT
HETATM    1  C   UNL     1     -43.474  58.060 -54.005  1.00  0.00     0.033 A 
HETATM    2  C   UNL     1     -44.324  57.322 -53.173  1.00  0.00     0.019 A 
HETATM    3  C   UNL     1     -43.833  56.771 -51.981  1.00  0.00     0.030 A 
HETATM    4  C   UNL     1     -42.492  56.931 -51.595  1.00  0.00     0.034 A 
HETATM    5  C   UNL     1     -41.652  57.651 -52.453  1.00  0.00     0.030 A 
HETATM    6  C   UNL     1     -42.134  58.212 -53.641  1.00  0.00     0.019 A 
ENDROOT
BRANCH   1   7
HETATM    7  C   UNL     1     -43.933  58.659 -55.291  1.00  0.00     0.271 C 
HETATM    8  N   UNL     1     -44.186  57.749 -56.313  1.00  0.00    -0.243 N 
HETATM    9  H   UNL     1     -44.356  56.784 -56.049  1.00  0.00     0.192 HD
HETATM   10  O   UNL     1     -44.090  59.875 -55.353  1.00  0.00    -0.266 OA
BRANCH   8  11
HETATM   11  N   UNL     1     -44.722  58.068 -57.534  1.00  0.00    -0.183 NA
HETATM   12  C   UNL     1     -46.015  58.048 -57.653  1.00  0.00     0.153 C 
BRANCH  12  13
HETATM   13  C   UNL     1     -46.675  58.318 -58.948  1.00  0.00     0.016 A 
HETATM   14  C   UNL     1     -46.865  57.299 -59.876  1.00  0.00     0.079 A 
HETATM   15  C   UNL     1     -47.480  57.566 -61.109  1.00  0.00     0.066 A 
HETATM   16  C   UNL     1     -47.920  58.856 -61.469  1.00  0.00     0.032 A 
HETATM   17  C   UNL     1     -47.713  59.859 -60.504  1.00  0.00     0.030 A 
HETATM   18  C   UNL     1     -47.104  59.604 -59.266  1.00  0.00     0.018 A 
BRANCH  14  19
HETATM   19  O   UNL     1     -46.455  56.026 -59.589  1.00  0.00    -0.360 OA
HETATM   20  H   UNL     1     -47.219  55.428 -59.617  1.00  0.00     0.217 HD
ENDBRANCH  14  19
BRANCH  16  21
HETATM   21  N   UNL     1     -48.523  59.121 -62.696  1.00  0.00    -0.382 N 
BRANCH  21  22
HETATM   22  C   UNL     1     -48.019  60.160 -63.606  1.00  0.00     0.118 C 
HETATM   23  C   UNL     1     -49.150  61.060 -64.082  1.00  0.00     0.026 C 
ENDBRANCH  21  22
BRANCH  21  24
HETATM   24  C   UNL     1     -49.665  58.342 -63.197  1.00  0.00     0.118 C 
HETATM   25  C   UNL     1     -50.862  58.479 -62.267  1.00  0.00     0.026 C 
ENDBRANCH  21  24
ENDBRANCH  16  21
ENDBRANCH  12  13
ENDBRANCH   8  11
ENDBRANCH   1   7
BRANCH   4  26
HETATM   26  N   UNL     1     -42.051  56.304 -50.417  1.00  0.00    -0.335 N 
HETATM   27  C   UNL     1     -41.408  55.119 -50.282  1.00  0.00     0.171 A 
HETATM   28  S   UNL     1     -40.858  54.640 -48.715  1.00  0.00    -0.061 SA
HETATM   29  N   UNL     1     -41.167  54.235 -51.223  1.00  0.00    -0.223 NA
HETATM   30  C   UNL     1     -40.270  53.168 -49.367  1.00  0.00     0.085 A 
HETATM   31  C   UNL     1     -40.525  53.112 -50.722  1.00  0.00     0.076 A 
HETATM   32  H   UNL     1     -42.237  56.818 -49.567  1.00  0.00     0.168 HD
BRANCH  31  33
HETATM   33  C   UNL     1     -40.188  51.992 -51.603  1.00  0.00    -0.007 A 
HETATM   34  C   UNL     1     -39.843  50.722 -51.118  1.00  0.00     0.014 A 
HETATM   35  C   UNL     1     -39.537  49.679 -51.999  1.00  0.00     0.001 A 
HETATM   36  C   UNL     1     -39.570  49.890 -53.376  1.00  0.00     0.000 A 
HETATM   37  C   UNL     1     -39.910  51.144 -53.874  1.00  0.00     0.001 A 
HETATM   38  C   UNL     1     -40.215  52.185 -52.995  1.00  0.00     0.014 A 
ENDBRANCH  31  33
ENDBRANCH   4  26
TORSDOF 9
ENDMDL
MODEL 3
REMARK VINA RESULT:      -7.6      6.432     12.635
REMARK  9 active torsions:
REMARK  status: ('A' for Active; 'I' for Inactive)
REMARK    1  A    between atoms: C_2  and  N_3 
REMARK    2  A    between atoms: N_3  and  C_4 
REMARK    3  A    between atoms: N_3  and  C_34 
REMARK    4  A    between atoms: C_6  and  O_7 
REMARK    5  A    between atoms: C_8  and  C_9 
REMARK    6  A    between atoms: N_10  and  N_11 
REMARK       I    between atoms: N_11  and  C_12 
REMARK    7  A    between atoms: C_12  and  C_13 
REMARK    8  A    between atoms: C_16  and  N_17 
REMARK    9  A    between atoms: C_21  and  C_22 
ROOT
HETATM    1  C   UNL     1     -44.814  57.536 -58.872  1.00  0.00     0.033 A 
HETATM    2  C   UNL     1     -45.878  56.976 -59.588  1.00  0.00     0.019 A 
HETATM    3  C   UNL     1     -46.808  57.807 -60.227  1.00  0.00     0.030 A 
HETATM    4  C   UNL     1     -46.707  59.208 -60.163  1.00  0.00     0.034 A 
HETATM    5  C   UNL     1     -45.649  59.748 -59.422  1.00  0.00     0.030 A 
HETATM    6  C   UNL     1     -44.711  58.926 -58.786  1.00  0.00     0.019 A 
ENDROOT
BRANCH   1   7
HETATM    7  C   UNL     1     -43.801  56.704 -58.160  1.00  0.00     0.271 C 
HETATM    8  N   UNL     1     -43.529  57.093 -56.851  1.00  0.00    -0.243 N 
HETATM    9  H   UNL     1     -44.222  57.664 -56.378  1.00  0.00     0.192 HD
HETATM   10  O   UNL     1     -43.316  55.739 -58.742  1.00  0.00    -0.266 OA
BRANCH   8  11
HETATM   11  N   UNL     1     -42.722  56.406 -55.980  1.00  0.00    -0.183 NA
HETATM   12  C   UNL     1     -43.270  55.493 -55.237  1.00  0.00     0.153 C 
BRANCH  12  13
HETATM   13  C   UNL     1     -42.488  54.748 -54.228  1.00  0.00     0.016 A 
HETATM   14  C   UNL     1     -41.230  54.240 -54.535  1.00  0.00     0.079 A 
HETATM   15  C   UNL     1     -40.500  53.522 -53.575  1.00  0.00     0.066 A 
HETATM   16  C   UNL     1     -40.996  53.274 -52.280  1.00  0.00     0.032 A 
HETATM   17  C   UNL     1     -42.270  53.806 -52.006  1.00  0.00     0.030 A 
HETATM   18  C   UNL     1     -43.008  54.530 -52.955  1.00  0.00     0.018 A 
BRANCH  14  19
HETATM   19  O   UNL     1     -40.694  54.441 -55.778  1.00  0.00    -0.360 OA
HETATM   20  H   UNL     1     -40.717  55.389 -55.987  1.00  0.00     0.217 HD
ENDBRANCH  14  19
BRANCH  16  21
HETATM   21  N   UNL     1     -40.273  52.555 -51.331  1.00  0.00    -0.382 N 
BRANCH  21  22
HETATM   22  C   UNL     1     -39.368  51.458 -51.706  1.00  0.00     0.118 C 
HETATM   23  C   UNL     1     -39.706  50.190 -50.935  1.00  0.00     0.026 C 
ENDBRANCH  21  22
BRANCH  21  24
HETATM   24  C   UNL     1     -40.312  52.880 -49.898  1.00  0.00     0.118 C 
HETATM   25  C   UNL     1     -39.644  54.221 -49.630  1.00  0.00     0.026 C 
ENDBRANCH  21  24
ENDBRANCH  16  21
ENDBRANCH  12  13
ENDBRANCH   8  11
ENDBRANCH   1   7
BRANCH   4  26
HETATM   26  N   UNL     1     -47.705  59.983 -60.778  1.00  0.00    -0.335 N 
HETATM   27  C   UNL     1     -48.819  60.518 -60.224  1.00  0.00     0.171 A 
HETATM   28  S   UNL     1     -49.820  61.548 -61.185  1.00  0.00    -0.061 SA
HETATM   29  N   UNL     1     -49.274  60.320 -59.008  1.00  0.00    -0.223 NA
HETATM   30  C   UNL     1     -50.909  61.722 -59.873  1.00  0.00     0.085 A 
HETATM   31  C   UNL     1     -50.468  60.991 -58.789  1.00  0.00     0.076 A 
HETATM   32  H   UNL     1     -47.555  60.165 -61.762  1.00  0.00     0.168 HD
BRANCH  31  33
HETATM   33  C   UNL     1     -51.159  60.881 -57.503  1.00  0.00    -0.007 A 
HETATM   34  C   UNL     1     -50.778  61.618 -56.371  1.00  0.00     0.014 A 
HETATM   35  C   UNL     1     -51.474  61.486 -55.165  1.00  0.00     0.001 A 
HETATM   36  C   UNL     1     -52.559  60.618 -55.071  1.00  0.00     0.000 A 
HETATM   37  C   UNL     1     -52.950  59.878 -56.183  1.00  0.00     0.001 A 
HETATM   38  C   UNL     1     -52.255  60.010 -57.388  1.00  0.00     0.014 A 
ENDBRANCH  31  33
ENDBRANCH   4  26
TORSDOF 9
ENDMDL
MODEL 4
REMARK VINA RESULT:      -7.6      6.691     12.843
REMARK  9 active torsions:
REMARK  status: ('A' for Active; 'I' for Inactive)
REMARK    1  A    between atoms: C_2  and  N_3 
REMARK    2  A    between atoms: N_3  and  C_4 
REMARK    3  A    between atoms: N_3  and  C_34 
REMARK    4  A    between atoms: C_6  and  O_7 
REMARK    5  A    between atoms: C_8  and  C_9 
REMARK    6  A    between atoms: N_10  and  N_11 
REMARK       I    between atoms: N_11  and  C_12 
REMARK    7  A    between atoms: C_12  and  C_13 
REMARK    8  A    between atoms: C_16  and  N_17 
REMARK    9  A    between atoms: C_21  and  C_22 
ROOT
HETATM    1  C   UNL     1     -44.839  57.509 -59.924  1.00  0.00     0.033 A 
HETATM    2  C   UNL     1     -44.492  58.848 -60.136  1.00  0.00     0.019 A 
HETATM    3  C   UNL     1     -45.433  59.741 -60.666  1.00  0.00     0.030 A 
HETATM    4  C   UNL     1     -46.732  59.325 -61.004  1.00  0.00     0.034 A 
HETATM    5  C   UNL     1     -47.052  57.976 -60.808  1.00  0.00     0.030 A 
HETATM    6  C   UNL     1     -46.121  57.077 -60.272  1.00  0.00     0.019 A 
ENDROOT
BRANCH   1   7
HETATM    7  C   UNL     1     -43.878  56.508 -59.377  1.00  0.00     0.271 C 
HETATM    8  N   UNL     1     -43.813  56.445 -57.988  1.00  0.00    -0.243 N 
HETATM    9  H   UNL     1     -44.601  56.813 -57.465  1.00  0.00     0.192 HD
HETATM   10  O   UNL     1     -43.253  55.800 -60.161  1.00  0.00    -0.266 OA
BRANCH   8  11
HETATM   11  N   UNL     1     -43.087  55.525 -57.277  1.00  0.00    -0.183 NA
HETATM   12  C   UNL     1     -43.053  55.646 -55.984  1.00  0.00     0.153 C 
BRANCH  12  13
HETATM   13  C   UNL     1     -42.245  54.737 -55.144  1.00  0.00     0.016 A 
HETATM   14  C   UNL     1     -42.718  54.299 -53.911  1.00  0.00     0.079 A 
HETATM   15  C   UNL     1     -41.939  53.447 -53.113  1.00  0.00     0.066 A 
HETATM   16  C   UNL     1     -40.659  53.007 -53.506  1.00  0.00     0.032 A 
HETATM   17  C   UNL     1     -40.217  53.468 -54.760  1.00  0.00     0.030 A 
HETATM   18  C   UNL     1     -40.988  54.316 -55.569  1.00  0.00     0.018 A 
BRANCH  14  19
HETATM   19  O   UNL     1     -43.950  54.696 -53.470  1.00  0.00    -0.360 OA
HETATM   20  H   UNL     1     -43.844  55.286 -52.707  1.00  0.00     0.217 HD
ENDBRANCH  14  19
BRANCH  16  21
HETATM   21  N   UNL     1     -39.885  52.167 -52.710  1.00  0.00    -0.382 N 
BRANCH  21  22
HETATM   22  C   UNL     1     -39.071  51.083 -53.280  1.00  0.00     0.118 C 
HETATM   23  C   UNL     1     -39.949  50.061 -53.987  1.00  0.00     0.026 C 
ENDBRANCH  21  22
BRANCH  21  24
HETATM   24  C   UNL     1     -39.774  52.342 -51.254  1.00  0.00     0.118 C 
HETATM   25  C   UNL     1     -40.179  51.069 -50.525  1.00  0.00     0.026 C 
ENDBRANCH  21  24
ENDBRANCH  16  21
ENDBRANCH  12  13
ENDBRANCH   8  11
ENDBRANCH   1   7
BRANCH   4  26
HETATM   26  N   UNL     1     -47.608  60.258 -61.584  1.00  0.00    -0.335 N 
HETATM   27  C   UNL     1     -48.777  60.737 -61.094  1.00  0.00     0.171 A 
HETATM   28  S   UNL     1     -49.597  61.987 -61.961  1.00  0.00    -0.061 SA
HETATM   29  N   UNL     1     -49.410  60.334 -60.017  1.00  0.00    -0.223 NA
HETATM   30  C   UNL     1     -50.861  61.965 -60.804  1.00  0.00     0.085 A 
HETATM   31  C   UNL     1     -50.604  61.016 -59.836  1.00  0.00     0.076 A 
HETATM   32  H   UNL     1     -47.311  60.617 -62.482  1.00  0.00     0.168 HD
BRANCH  31  33
HETATM   33  C   UNL     1     -51.479  60.699 -58.705  1.00  0.00    -0.007 A 
HETATM   34  C   UNL     1     -50.999  60.530 -57.398  1.00  0.00     0.014 A 
HETATM   35  C   UNL     1     -51.874  60.236 -56.347  1.00  0.00     0.001 A 
HETATM   36  C   UNL     1     -53.240  60.106 -56.587  1.00  0.00     0.000 A 
HETATM   37  C   UNL     1     -53.734  60.268 -57.878  1.00  0.00     0.001 A 
HETATM   38  C   UNL     1     -52.860  60.561 -58.927  1.00  0.00     0.014 A 
ENDBRANCH  31  33
ENDBRANCH   4  26
TORSDOF 9
ENDMDL
MODEL 5
REMARK VINA RESULT:      -7.4      4.224      4.834
REMARK  9 active torsions:
REMARK  status: ('A' for Active; 'I' for Inactive)
REMARK    1  A    between atoms: C_2  and  N_3 
REMARK    2  A    between atoms: N_3  and  C_4 
REMARK    3  A    between atoms: N_3  and  C_34 
REMARK    4  A    between atoms: C_6  and  O_7 
REMARK    5  A    between atoms: C_8  and  C_9 
REMARK    6  A    between atoms: N_10  and  N_11 
REMARK       I    between atoms: N_11  and  C_12 
REMARK    7  A    between atoms: C_12  and  C_13 
REMARK    8  A    between atoms: C_16  and  N_17 
REMARK    9  A    between atoms: C_21  and  C_22 
ROOT
HETATM    1  C   UNL     1     -43.922  58.426 -53.271  1.00  0.00     0.033 A 
HETATM    2  C   UNL     1     -42.556  58.528 -52.985  1.00  0.00     0.019 A 
HETATM    3  C   UNL     1     -41.994  57.752 -51.962  1.00  0.00     0.030 A 
HETATM    4  C   UNL     1     -42.774  56.867 -51.198  1.00  0.00     0.034 A 
HETATM    5  C   UNL     1     -44.143  56.798 -51.483  1.00  0.00     0.030 A 
HETATM    6  C   UNL     1     -44.712  57.564 -52.507  1.00  0.00     0.019 A 
ENDROOT
BRANCH   1   7
HETATM    7  C   UNL     1     -44.581  59.236 -54.336  1.00  0.00     0.271 C 
HETATM    8  N   UNL     1     -44.779  58.575 -55.545  1.00  0.00    -0.243 N 
HETATM    9  H   UNL     1     -44.773  57.561 -55.532  1.00  0.00     0.192 HD
HETATM   10  O   UNL     1     -44.928  60.384 -54.076  1.00  0.00    -0.266 OA
BRANCH   8  11
HETATM   11  N   UNL     1     -45.464  59.089 -56.617  1.00  0.00    -0.183 NA
HETATM   12  C   UNL     1     -46.168  58.268 -57.337  1.00  0.00     0.153 C 
BRANCH  12  13
HETATM   13  C   UNL     1     -46.887  58.723 -58.545  1.00  0.00     0.016 A 
HETATM   14  C   UNL     1     -47.755  59.809 -58.490  1.00  0.00     0.079 A 
HETATM   15  C   UNL     1     -48.445  60.226 -59.639  1.00  0.00     0.066 A 
HETATM   16  C   UNL     1     -48.306  59.575 -60.881  1.00  0.00     0.032 A 
HETATM   17  C   UNL     1     -47.417  58.484 -60.897  1.00  0.00     0.030 A 
HETATM   18  C   UNL     1     -46.717  58.060 -59.757  1.00  0.00     0.018 A 
BRANCH  14  19
HETATM   19  O   UNL     1     -47.939  60.479 -57.312  1.00  0.00    -0.360 OA
HETATM   20  H   UNL     1     -47.810  59.867 -56.570  1.00  0.00     0.217 HD
ENDBRANCH  14  19
BRANCH  16  21
HETATM   21  N   UNL     1     -48.996  59.986 -62.018  1.00  0.00    -0.382 N 
BRANCH  21  22
HETATM   22  C   UNL     1     -50.454  59.829 -62.146  1.00  0.00     0.118 C 
HETATM   23  C   UNL     1     -50.808  58.420 -62.598  1.00  0.00     0.026 C 
ENDBRANCH  21  22
BRANCH  21  24
HETATM   24  C   UNL     1     -48.333  60.662 -63.142  1.00  0.00     0.118 C 
HETATM   25  C   UNL     1     -48.173  62.149 -62.860  1.00  0.00     0.026 C 
ENDBRANCH  21  24
ENDBRANCH  16  21
ENDBRANCH  12  13
ENDBRANCH   8  11
ENDBRANCH   1   7
BRANCH   4  26
HETATM   26  N   UNL     1     -42.159  56.161 -50.150  1.00  0.00    -0.335 N 
HETATM   27  C   UNL     1     -41.442  55.013 -50.211  1.00  0.00     0.171 A 
HETATM   28  S   UNL     1     -40.679  54.426 -48.777  1.00  0.00    -0.061 SA
HETATM   29  N   UNL     1     -41.272  54.240 -51.259  1.00  0.00    -0.223 NA
HETATM   30  C   UNL     1     -40.098  53.063 -49.639  1.00  0.00     0.085 A 
HETATM   31  C   UNL     1     -40.515  53.118 -50.953  1.00  0.00     0.076 A 
HETATM   32  H   UNL     1     -42.266  56.581 -49.235  1.00  0.00     0.168 HD
BRANCH  31  33
HETATM   33  C   UNL     1     -40.230  52.110 -51.976  1.00  0.00    -0.007 A 
HETATM   34  C   UNL     1     -39.728  50.837 -51.669  1.00  0.00     0.014 A 
HETATM   35  C   UNL     1     -39.478  49.903 -52.680  1.00  0.00     0.001 A 
HETATM   36  C   UNL     1     -39.727  50.227 -54.012  1.00  0.00     0.000 A 
HETATM   37  C   UNL     1     -40.224  51.486 -54.335  1.00  0.00     0.001 A 
HETATM   38  C   UNL     1     -40.472  52.419 -53.325  1.00  0.00     0.014 A 
ENDBRANCH  31  33
ENDBRANCH   4  26
TORSDOF 9
ENDMDL
MODEL 6
REMARK VINA RESULT:      -7.3      6.706     13.275
REMARK  9 active torsions:
REMARK  status: ('A' for Active; 'I' for Inactive)
REMARK    1  A    between atoms: C_2  and  N_3 
REMARK    2  A    between atoms: N_3  and  C_4 
REMARK    3  A    between atoms: N_3  and  C_34 
REMARK    4  A    between atoms: C_6  and  O_7 
REMARK    5  A    between atoms: C_8  and  C_9 
REMARK    6  A    between atoms: N_10  and  N_11 
REMARK       I    between atoms: N_11  and  C_12 
REMARK    7  A    between atoms: C_12  and  C_13 
REMARK    8  A    between atoms: C_16  and  N_17 
REMARK    9  A    between atoms: C_21  and  C_22 
ROOT
HETATM    1  C   UNL     1     -45.482  58.220 -58.145  1.00  0.00     0.033 A 
HETATM    2  C   UNL     1     -45.338  59.523 -58.635  1.00  0.00     0.019 A 
HETATM    3  C   UNL     1     -45.917  59.878 -59.861  1.00  0.00     0.030 A 
HETATM    4  C   UNL     1     -46.642  58.950 -60.628  1.00  0.00     0.034 A 
HETATM    5  C   UNL     1     -46.752  57.646 -60.133  1.00  0.00     0.030 A 
HETATM    6  C   UNL     1     -46.184  57.282 -58.906  1.00  0.00     0.019 A 
ENDROOT
BRANCH   1   7
HETATM    7  C   UNL     1     -44.878  57.778 -56.855  1.00  0.00     0.271 C 
HETATM    8  N   UNL     1     -43.981  56.718 -56.952  1.00  0.00    -0.243 N 
HETATM    9  H   UNL     1     -43.563  56.539 -57.859  1.00  0.00     0.192 HD
HETATM   10  O   UNL     1     -45.172  58.382 -55.827  1.00  0.00    -0.266 OA
BRANCH   8  11
HETATM   11  N   UNL     1     -43.228  56.229 -55.915  1.00  0.00    -0.183 NA
HETATM   12  C   UNL     1     -43.054  54.943 -55.846  1.00  0.00     0.153 C 
BRANCH  12  13
HETATM   13  C   UNL     1     -42.310  54.324 -54.728  1.00  0.00     0.016 A 
HETATM   14  C   UNL     1     -42.788  54.404 -53.424  1.00  0.00     0.079 A 
HETATM   15  C   UNL     1     -42.068  53.827 -52.367  1.00  0.00     0.066 A 
HETATM   16  C   UNL     1     -40.844  53.157 -52.565  1.00  0.00     0.032 A 
HETATM   17  C   UNL     1     -40.395  53.094 -53.897  1.00  0.00     0.030 A 
HETATM   18  C   UNL     1     -41.108  53.664 -54.963  1.00  0.00     0.018 A 
BRANCH  14  19
HETATM   19  O   UNL     1     -43.968  55.047 -53.165  1.00  0.00    -0.360 OA
HETATM   20  H   UNL     1     -44.327  54.730 -52.321  1.00  0.00     0.217 HD
ENDBRANCH  14  19
BRANCH  16  21
HETATM   21  N   UNL     1     -40.128  52.590 -51.514  1.00  0.00    -0.382 N 
BRANCH  21  22
HETATM   22  C   UNL     1     -40.304  53.031 -50.121  1.00  0.00     0.118 C 
HETATM   23  C   UNL     1     -39.484  54.283 -49.842  1.00  0.00     0.026 C 
ENDBRANCH  21  22
BRANCH  21  24
HETATM   24  C   UNL     1     -39.195  51.471 -51.708  1.00  0.00     0.118 C 
HETATM   25  C   UNL     1     -39.666  50.237 -50.951  1.00  0.00     0.026 C 
ENDBRANCH  21  24
ENDBRANCH  16  21
ENDBRANCH  12  13
ENDBRANCH   8  11
ENDBRANCH   1   7
BRANCH   4  26
HETATM   26  N   UNL     1     -47.147  59.356 -61.875  1.00  0.00    -0.335 N 
HETATM   27  C   UNL     1     -48.423  59.663 -62.210  1.00  0.00     0.171 A 
HETATM   28  S   UNL     1     -48.751  60.266 -63.796  1.00  0.00    -0.061 SA
HETATM   29  N   UNL     1     -49.494  59.524 -61.462  1.00  0.00    -0.223 NA
HETATM   30  C   UNL     1     -50.423  60.336 -63.428  1.00  0.00     0.085 A 
HETATM   31  C   UNL     1     -50.646  59.896 -62.140  1.00  0.00     0.076 A 
HETATM   32  H   UNL     1     -46.454  59.434 -62.609  1.00  0.00     0.168 HD
BRANCH  31  33
HETATM   33  C   UNL     1     -51.956  59.792 -61.494  1.00  0.00    -0.007 A 
HETATM   34  C   UNL     1     -52.370  60.661 -60.473  1.00  0.00     0.014 A 
HETATM   35  C   UNL     1     -53.635  60.528 -59.891  1.00  0.00     0.001 A 
HETATM   36  C   UNL     1     -54.504  59.526 -60.318  1.00  0.00     0.000 A 
HETATM   37  C   UNL     1     -54.109  58.654 -61.328  1.00  0.00     0.001 A 
HETATM   38  C   UNL     1     -52.846  58.787 -61.910  1.00  0.00     0.014 A 
ENDBRANCH  31  33
ENDBRANCH   4  26
TORSDOF 9
ENDMDL
MODEL 7
REMARK VINA RESULT:      -7.2      6.235     12.434
REMARK  9 active torsions:
REMARK  status: ('A' for Active; 'I' for Inactive)
REMARK    1  A    between atoms: C_2  and  N_3 
REMARK    2  A    between atoms: N_3  and  C_4 
REMARK    3  A    between atoms: N_3  and  C_34 
REMARK    4  A    between atoms: C_6  and  O_7 
REMARK    5  A    between atoms: C_8  and  C_9 
REMARK    6  A    between atoms: N_10  and  N_11 
REMARK       I    between atoms: N_11  and  C_12 
REMARK    7  A    between atoms: C_12  and  C_13 
REMARK    8  A    between atoms: C_16  and  N_17 
REMARK    9  A    between atoms: C_21  and  C_22 
ROOT
HETATM    1  C   UNL     1     -45.133  58.232 -58.599  1.00  0.00     0.033 A 
HETATM    2  C   UNL     1     -44.728  59.571 -58.619  1.00  0.00     0.019 A 
HETATM    3  C   UNL     1     -45.662  60.582 -58.884  1.00  0.00     0.030 A 
HETATM    4  C   UNL     1     -47.011  60.287 -59.141  1.00  0.00     0.034 A 
HETATM    5  C   UNL     1     -47.392  58.940 -59.140  1.00  0.00     0.030 A 
HETATM    6  C   UNL     1     -46.469  57.923 -58.870  1.00  0.00     0.019 A 
ENDROOT
BRANCH   1   7
HETATM    7  C   UNL     1     -44.185  57.111 -58.337  1.00  0.00     0.271 C 
HETATM    8  N   UNL     1     -43.851  56.916 -57.001  1.00  0.00    -0.243 N 
HETATM    9  H   UNL     1     -44.478  57.297 -56.300  1.00  0.00     0.192 HD
HETATM   10  O   UNL     1     -43.801  56.430 -59.284  1.00  0.00    -0.266 OA
BRANCH   8  11
HETATM   11  N   UNL     1     -43.090  55.879 -56.525  1.00  0.00    -0.183 NA
HETATM   12  C   UNL     1     -43.008  55.727 -55.237  1.00  0.00     0.153 C 
BRANCH  12  13
HETATM   13  C   UNL     1     -42.162  54.675 -54.636  1.00  0.00     0.016 A 
HETATM   14  C   UNL     1     -42.489  54.114 -53.406  1.00  0.00     0.079 A 
HETATM   15  C   UNL     1     -41.673  53.126 -52.835  1.00  0.00     0.066 A 
HETATM   16  C   UNL     1     -40.497  52.665 -53.461  1.00  0.00     0.032 A 
HETATM   17  C   UNL     1     -40.201  53.253 -54.705  1.00  0.00     0.030 A 
HETATM   18  C   UNL     1     -41.011  54.239 -55.288  1.00  0.00     0.018 A 
BRANCH  14  19
HETATM   19  O   UNL     1     -43.615  54.523 -52.745  1.00  0.00    -0.360 OA
HETATM   20  H   UNL     1     -43.886  53.835 -52.116  1.00  0.00     0.217 HD
ENDBRANCH  14  19
BRANCH  16  21
HETATM   21  N   UNL     1     -39.684  51.689 -52.890  1.00  0.00    -0.382 N 
BRANCH  21  22
HETATM   22  C   UNL     1     -39.053  50.630 -53.694  1.00  0.00     0.118 C 
HETATM   23  C   UNL     1     -40.103  49.808 -54.427  1.00  0.00     0.026 C 
ENDBRANCH  21  22
BRANCH  21  24
HETATM   24  C   UNL     1     -39.347  51.682 -51.459  1.00  0.00     0.118 C 
HETATM   25  C   UNL     1     -39.842  50.405 -50.794  1.00  0.00     0.026 C 
ENDBRANCH  21  24
ENDBRANCH  16  21
ENDBRANCH  12  13
ENDBRANCH   8  11
ENDBRANCH   1   7
BRANCH   4  26
HETATM   26  N   UNL     1     -47.883  61.344 -59.456  1.00  0.00    -0.335 N 
HETATM   27  C   UNL     1     -48.801  61.946 -58.662  1.00  0.00     0.171 A 
HETATM   28  S   UNL     1     -49.656  63.321 -59.265  1.00  0.00    -0.061 SA
HETATM   29  N   UNL     1     -49.164  61.584 -57.453  1.00  0.00    -0.223 NA
HETATM   30  C   UNL     1     -50.549  63.412 -57.806  1.00  0.00     0.085 A 
HETATM   31  C   UNL     1     -50.164  62.402 -56.949  1.00  0.00     0.076 A 
HETATM   32  H   UNL     1     -47.797  61.698 -60.399  1.00  0.00     0.168 HD
BRANCH  31  33
HETATM   33  C   UNL     1     -50.731  62.153 -55.621  1.00  0.00    -0.007 A 
HETATM   34  C   UNL     1     -50.121  62.598 -54.440  1.00  0.00     0.014 A 
HETATM   35  C   UNL     1     -50.704  62.344 -53.194  1.00  0.00     0.001 A 
HETATM   36  C   UNL     1     -51.905  61.642 -53.111  1.00  0.00     0.000 A 
HETATM   37  C   UNL     1     -52.524  61.192 -54.273  1.00  0.00     0.001 A 
HETATM   38  C   UNL     1     -51.941  61.446 -55.517  1.00  0.00     0.014 A 
ENDBRANCH  31  33
ENDBRANCH   4  26
TORSDOF 9
ENDMDL
MODEL 8
REMARK VINA RESULT:      -7.1      6.443     12.175
REMARK  9 active torsions:
REMARK  status: ('A' for Active; 'I' for Inactive)
REMARK    1  A    between atoms: C_2  and  N_3 
REMARK    2  A    between atoms: N_3  and  C_4 
REMARK    3  A    between atoms: N_3  and  C_34 
REMARK    4  A    between atoms: C_6  and  O_7 
REMARK    5  A    between atoms: C_8  and  C_9 
REMARK    6  A    between atoms: N_10  and  N_11 
REMARK       I    between atoms: N_11  and  C_12 
REMARK    7  A    between atoms: C_12  and  C_13 
REMARK    8  A    between atoms: C_16  and  N_17 
REMARK    9  A    between atoms: C_21  and  C_22 
ROOT
HETATM    1  C   UNL     1     -45.359  60.406 -53.199  1.00  0.00     0.033 A 
HETATM    2  C   UNL     1     -46.238  60.389 -52.110  1.00  0.00     0.019 A 
HETATM    3  C   UNL     1     -47.369  61.216 -52.109  1.00  0.00     0.030 A 
HETATM    4  C   UNL     1     -47.649  62.081 -53.180  1.00  0.00     0.034 A 
HETATM    5  C   UNL     1     -46.745  62.102 -54.249  1.00  0.00     0.030 A 
HETATM    6  C   UNL     1     -45.615  61.275 -54.263  1.00  0.00     0.019 A 
ENDROOT
BRANCH   1   7
HETATM    7  C   UNL     1     -44.132  59.561 -53.254  1.00  0.00     0.271 C 
HETATM    8  N   UNL     1     -44.194  58.378 -52.523  1.00  0.00    -0.243 N 
HETATM    9  H   UNL     1     -45.113  58.020 -52.287  1.00  0.00     0.192 HD
HETATM   10  O   UNL     1     -43.190  59.932 -53.947  1.00  0.00    -0.266 OA
BRANCH   8  11
HETATM   11  N   UNL     1     -43.228  57.404 -52.523  1.00  0.00    -0.183 NA
HETATM   12  C   UNL     1     -43.563  56.219 -52.938  1.00  0.00     0.153 C 
BRANCH  12  13
HETATM   13  C   UNL     1     -42.604  55.094 -52.914  1.00  0.00     0.016 A 
HETATM   14  C   UNL     1     -41.811  54.858 -51.796  1.00  0.00     0.079 A 
HETATM   15  C   UNL     1     -40.893  53.796 -51.787  1.00  0.00     0.066 A 
HETATM   16  C   UNL     1     -40.724  52.936 -52.891  1.00  0.00     0.032 A 
HETATM   17  C   UNL     1     -41.546  53.205 -54.001  1.00  0.00     0.030 A 
HETATM   18  C   UNL     1     -42.470  54.260 -54.021  1.00  0.00     0.018 A 
BRANCH  14  19
HETATM   19  O   UNL     1     -41.924  55.661 -50.695  1.00  0.00    -0.360 OA
HETATM   20  H   UNL     1     -41.038  55.900 -50.380  1.00  0.00     0.217 HD
ENDBRANCH  14  19
BRANCH  16  21
HETATM   21  N   UNL     1     -39.808  51.888 -52.883  1.00  0.00    -0.382 N 
BRANCH  21  22
HETATM   22  C   UNL     1     -39.434  51.167 -54.110  1.00  0.00     0.118 C 
HETATM   23  C   UNL     1     -40.155  49.829 -54.192  1.00  0.00     0.026 C 
ENDBRANCH  21  22
BRANCH  21  24
HETATM   24  C   UNL     1     -39.101  51.467 -51.664  1.00  0.00     0.118 C 
HETATM   25  C   UNL     1     -39.913  50.430 -50.900  1.00  0.00     0.026 C 
ENDBRANCH  21  24
ENDBRANCH  16  21
ENDBRANCH  12  13
ENDBRANCH   8  11
ENDBRANCH   1   7
BRANCH   4  26
HETATM   26  N   UNL     1     -48.769  62.925 -53.089  1.00  0.00    -0.335 N 
HETATM   27  C   UNL     1     -49.978  62.791 -53.685  1.00  0.00     0.171 A 
HETATM   28  S   UNL     1     -51.232  63.913 -53.294  1.00  0.00    -0.061 SA
HETATM   29  N   UNL     1     -50.324  61.900 -54.585  1.00  0.00    -0.223 NA
HETATM   30  C   UNL     1     -52.280  63.135 -54.405  1.00  0.00     0.085 A 
HETATM   31  C   UNL     1     -51.630  62.082 -55.014  1.00  0.00     0.076 A 
HETATM   32  H   UNL     1     -48.645  63.730 -52.489  1.00  0.00     0.168 HD
BRANCH  31  33
HETATM   33  C   UNL     1     -52.206  61.207 -56.039  1.00  0.00    -0.007 A 
HETATM   34  C   UNL     1     -52.390  61.616 -57.368  1.00  0.00     0.014 A 
HETATM   35  C   UNL     1     -52.937  60.742 -58.315  1.00  0.00     0.001 A 
HETATM   36  C   UNL     1     -53.308  59.451 -57.947  1.00  0.00     0.000 A 
HETATM   37  C   UNL     1     -53.133  59.030 -56.632  1.00  0.00     0.001 A 
HETATM   38  C   UNL     1     -52.587  59.902 -55.687  1.00  0.00     0.014 A 
ENDBRANCH  31  33
ENDBRANCH   4  26
TORSDOF 9
ENDMDL
MODEL 9
REMARK VINA RESULT:      -6.9      7.021     12.050
REMARK  9 active torsions:
REMARK  status: ('A' for Active; 'I' for Inactive)
REMARK    1  A    between atoms: C_2  and  N_3 
REMARK    2  A    between atoms: N_3  and  C_4 
REMARK    3  A    between atoms: N_3  and  C_34 
REMARK    4  A    between atoms: C_6  and  O_7 
REMARK    5  A    between atoms: C_8  and  C_9 
REMARK    6  A    between atoms: N_10  and  N_11 
REMARK       I    between atoms: N_11  and  C_12 
REMARK    7  A    between atoms: C_12  and  C_13 
REMARK    8  A    between atoms: C_16  and  N_17 
REMARK    9  A    between atoms: C_21  and  C_22 
ROOT
HETATM    1  C   UNL     1     -43.101  60.351 -50.840  1.00  0.00     0.033 A 
HETATM    2  C   UNL     1     -44.382  60.050 -50.364  1.00  0.00     0.019 A 
HETATM    3  C   UNL     1     -45.197  61.069 -49.853  1.00  0.00     0.030 A 
HETATM    4  C   UNL     1     -44.758  62.403 -49.796  1.00  0.00     0.034 A 
HETATM    5  C   UNL     1     -43.465  62.679 -50.254  1.00  0.00     0.030 A 
HETATM    6  C   UNL     1     -42.645  61.670 -50.773  1.00  0.00     0.019 A 
ENDROOT
BRANCH   1   7
HETATM    7  C   UNL     1     -42.181  59.309 -51.382  1.00  0.00     0.271 C 
HETATM    8  N   UNL     1     -42.024  58.182 -50.581  1.00  0.00    -0.243 N 
HETATM    9  H   UNL     1     -42.743  57.994 -49.891  1.00  0.00     0.192 HD
HETATM   10  O   UNL     1     -41.668  59.490 -52.482  1.00  0.00    -0.266 OA
BRANCH   8  11
HETATM   11  N   UNL     1     -41.320  57.059 -50.935  1.00  0.00    -0.183 NA
HETATM   12  C   UNL     1     -41.994  56.009 -51.294  1.00  0.00     0.153 C 
BRANCH  12  13
HETATM   13  C   UNL     1     -41.320  54.737 -51.631  1.00  0.00     0.016 A 
HETATM   14  C   UNL     1     -40.453  54.130 -50.729  1.00  0.00     0.079 A 
HETATM   15  C   UNL     1     -39.806  52.930 -51.062  1.00  0.00     0.066 A 
HETATM   16  C   UNL     1     -39.989  52.295 -52.307  1.00  0.00     0.032 A 
HETATM   17  C   UNL     1     -40.875  52.938 -53.192  1.00  0.00     0.030 A 
HETATM   18  C   UNL     1     -41.532  54.135 -52.868  1.00  0.00     0.018 A 
BRANCH  14  19
HETATM   19  O   UNL     1     -40.228  54.700 -49.506  1.00  0.00    -0.360 OA
HETATM   20  H   UNL     1     -40.497  55.632 -49.531  1.00  0.00     0.217 HD
ENDBRANCH  14  19
BRANCH  16  21
HETATM   21  N   UNL     1     -39.340  51.108 -52.639  1.00  0.00    -0.382 N 
BRANCH  21  22
HETATM   22  C   UNL     1     -38.938  50.126 -51.620  1.00  0.00     0.118 C 
HETATM   23  C   UNL     1     -40.159  49.497 -50.964  1.00  0.00     0.026 C 
ENDBRANCH  21  22
BRANCH  21  24
HETATM   24  C   UNL     1     -39.068  50.722 -54.031  1.00  0.00     0.118 C 
HETATM   25  C   UNL     1     -40.205  49.878 -54.589  1.00  0.00     0.026 C 
ENDBRANCH  21  24
ENDBRANCH  16  21
ENDBRANCH  12  13
ENDBRANCH   8  11
ENDBRANCH   1   7
BRANCH   4  26
HETATM   26  N   UNL     1     -45.604  63.365 -49.219  1.00  0.00    -0.335 N 
HETATM   27  C   UNL     1     -46.906  63.619 -49.495  1.00  0.00     0.171 A 
HETATM   28  S   UNL     1     -47.753  64.781 -48.536  1.00  0.00    -0.061 SA
HETATM   29  N   UNL     1     -47.629  63.097 -50.459  1.00  0.00    -0.223 NA
HETATM   30  C   UNL     1     -49.159  64.547 -49.487  1.00  0.00     0.085 A 
HETATM   31  C   UNL     1     -48.915  63.617 -50.477  1.00  0.00     0.076 A 
HETATM   32  H   UNL     1     -45.174  63.931 -48.499  1.00  0.00     0.168 HD
BRANCH  31  33
HETATM   33  C   UNL     1     -49.877  63.187 -51.494  1.00  0.00    -0.007 A 
HETATM   34  C   UNL     1     -51.265  63.275 -51.310  1.00  0.00     0.014 A 
HETATM   35  C   UNL     1     -52.147  62.859 -52.313  1.00  0.00     0.001 A 
HETATM   36  C   UNL     1     -51.656  62.350 -53.513  1.00  0.00     0.000 A 
HETATM   37  C   UNL     1     -50.282  62.255 -53.712  1.00  0.00     0.001 A 
HETATM   38  C   UNL     1     -49.402  62.670 -52.710  1.00  0.00     0.014 A 
ENDBRANCH  31  33
ENDBRANCH   4  26
TORSDOF 9
ENDMDL
MODEL 10
REMARK VINA RESULT:      -6.7      7.069     12.010
REMARK  9 active torsions:
REMARK  status: ('A' for Active; 'I' for Inactive)
REMARK    1  A    between atoms: C_2  and  N_3 
REMARK    2  A    between atoms: N_3  and  C_4 
REMARK    3  A    between atoms: N_3  and  C_34 
REMARK    4  A    between atoms: C_6  and  O_7 
REMARK    5  A    between atoms: C_8  and  C_9 
REMARK    6  A    between atoms: N_10  and  N_11 
REMARK       I    between atoms: N_11  and  C_12 
REMARK    7  A    between atoms: C_12  and  C_13 
REMARK    8  A    between atoms: C_16  and  N_17 
REMARK    9  A    between atoms: C_21  and  C_22 
ROOT
HETATM    1  C   UNL     1     -43.488  60.155 -50.837  1.00  0.00     0.033 A 
HETATM    2  C   UNL     1     -44.684  59.764 -50.227  1.00  0.00     0.019 A 
HETATM    3  C   UNL     1     -45.549  60.730 -49.696  1.00  0.00     0.030 A 
HETATM    4  C   UNL     1     -45.243  62.100 -49.750  1.00  0.00     0.034 A 
HETATM    5  C   UNL     1     -44.029  62.470 -50.342  1.00  0.00     0.030 A 
HETATM    6  C   UNL     1     -43.162  61.513 -50.883  1.00  0.00     0.019 A 
ENDROOT
BRANCH   1   7
HETATM    7  C   UNL     1     -42.520  59.174 -51.409  1.00  0.00     0.271 C 
HETATM    8  N   UNL     1     -42.846  57.836 -51.210  1.00  0.00    -0.243 N 
HETATM    9  H   UNL     1     -43.813  57.615 -51.001  1.00  0.00     0.192 HD
HETATM   10  O   UNL     1     -41.550  59.596 -52.030  1.00  0.00    -0.266 OA
BRANCH   8  11
HETATM   11  N   UNL     1     -42.162  56.774 -51.745  1.00  0.00    -0.183 NA
HETATM   12  C   UNL     1     -42.265  55.624 -51.150  1.00  0.00     0.153 C 
BRANCH  12  13
HETATM   13  C   UNL     1     -41.514  54.441 -51.621  1.00  0.00     0.016 A 
HETATM   14  C   UNL     1     -41.392  54.170 -52.980  1.00  0.00     0.079 A 
HETATM   15  C   UNL     1     -40.690  53.037 -53.419  1.00  0.00     0.066 A 
HETATM   16  C   UNL     1     -40.091  52.127 -52.524  1.00  0.00     0.032 A 
HETATM   17  C   UNL     1     -40.234  52.437 -51.159  1.00  0.00     0.030 A 
HETATM   18  C   UNL     1     -40.929  53.568 -50.707  1.00  0.00     0.018 A 
BRANCH  14  19
HETATM   19  O   UNL     1     -41.956  55.012 -53.899  1.00  0.00    -0.360 OA
HETATM   20  H   UNL     1     -42.221  54.502 -54.681  1.00  0.00     0.217 HD
ENDBRANCH  14  19
BRANCH  16  21
HETATM   21  N   UNL     1     -39.401  51.000 -52.961  1.00  0.00    -0.382 N 
BRANCH  21  22
HETATM   22  C   UNL     1     -39.281  50.661 -54.388  1.00  0.00     0.118 C 
HETATM   23  C   UNL     1     -39.358  49.156 -54.595  1.00  0.00     0.026 C 
ENDBRANCH  21  22
BRANCH  21  24
HETATM   24  C   UNL     1     -38.689  50.104 -52.037  1.00  0.00     0.118 C 
HETATM   25  C   UNL     1     -39.672  49.259 -51.241  1.00  0.00     0.026 C 
ENDBRANCH  21  24
ENDBRANCH  16  21
ENDBRANCH  12  13
ENDBRANCH   8  11
ENDBRANCH   1   7
BRANCH   4  26
HETATM   26  N   UNL     1     -46.126  63.012 -49.146  1.00  0.00    -0.335 N 
HETATM   27  C   UNL     1     -46.090  63.515 -47.889  1.00  0.00     0.171 A 
HETATM   28  S   UNL     1     -47.234  64.731 -47.442  1.00  0.00    -0.061 SA
HETATM   29  N   UNL     1     -45.285  63.160 -46.915  1.00  0.00    -0.223 NA
HETATM   30  C   UNL     1     -46.588  64.762 -45.855  1.00  0.00     0.085 A 
HETATM   31  C   UNL     1     -45.556  63.853 -45.744  1.00  0.00     0.076 A 
HETATM   32  H   UNL     1     -46.878  63.332 -49.742  1.00  0.00     0.168 HD
BRANCH  31  33
HETATM   33  C   UNL     1     -44.787  63.586 -44.526  1.00  0.00    -0.007 A 
HETATM   34  C   UNL     1     -44.276  62.318 -44.213  1.00  0.00     0.014 A 
HETATM   35  C   UNL     1     -43.540  62.113 -43.041  1.00  0.00     0.001 A 
HETATM   36  C   UNL     1     -43.305  63.171 -42.166  1.00  0.00     0.000 A 
HETATM   37  C   UNL     1     -43.805  64.435 -42.460  1.00  0.00     0.001 A 
HETATM   38  C   UNL     1     -44.540  64.640 -43.630  1.00  0.00     0.014 A 
ENDBRANCH  31  33
ENDBRANCH   4  26
TORSDOF 9
ENDMDL
