MODEL 1
REMARK VINA RESULT:      -7.5      0.000      0.000
REMARK  8 active torsions:
REMARK  status: ('A' for Active; 'I' for Inactive)
REMARK    1  A    between atoms: C_9  and  S_10 
REMARK    2  A    between atoms: S_10  and  C_11 
REMARK    3  A    between atoms: C_11  and  C_12 
REMARK       I    between atoms: C_12  and  N_13 
REMARK    4  A    between atoms: N_13  and  C_14 
REMARK    5  A    between atoms: C_15  and  O_16 
REMARK    6  A    between atoms: C_19  and  O_20 
REMARK    7  A    between atoms: N_25  and  C_26 
REMARK    8  A    between atoms: C_33  and  N_34 
ROOT
HETATM    1  C   UNL     1     -45.514  55.833 -60.833  1.00  0.00     0.073 C 
HETATM    2  C   UNL     1     -45.388  57.010 -59.934  1.00  0.00     0.068 A 
HETATM    3  N   UNL     1     -45.979  58.159 -60.283  1.00  0.00    -0.177 NA
HETATM    4  N   UNL     1     -45.694  58.998 -59.276  1.00  0.00    -0.260 N 
HETATM    5  H   UNL     1     -46.046  59.951 -59.316  1.00  0.00     0.191 HD
HETATM    6  C   UNL     1     -44.941  58.419 -58.297  1.00  0.00     0.162 A 
HETATM    7  C   UNL     1     -44.707  57.117 -58.683  1.00  0.00     0.081 A 
HETATM    8  N   UNL     1     -44.515  59.010 -57.183  1.00  0.00    -0.204 NA
HETATM    9  C   UNL     1     -43.794  58.176 -56.402  1.00  0.00     0.177 A 
HETATM   10  N   UNL     1     -43.527  56.871 -56.695  1.00  0.00    -0.276 N 
HETATM   11  C   UNL     1     -43.938  56.281 -57.856  1.00  0.00     0.124 A 
ENDROOT
BRANCH   9  12
HETATM   12  S   UNL     1     -43.273  58.931 -54.854  1.00  0.00    -0.082 SA
BRANCH  12  13
HETATM   13  C   UNL     1     -44.783  58.674 -53.863  1.00  0.00     0.185 C 
BRANCH  13  14
HETATM   14  C   UNL     1     -44.413  58.081 -52.519  1.00  0.00     0.232 C 
HETATM   15  N   UNL     1     -43.109  57.619 -52.470  1.00  0.00    -0.324 N 
HETATM   16  H   UNL     1     -42.425  58.138 -53.006  1.00  0.00     0.169 HD
HETATM   17  O   UNL     1     -45.219  58.100 -51.593  1.00  0.00    -0.272 OA
BRANCH  15  18
HETATM   18  C   UNL     1     -42.599  56.750 -51.478  1.00  0.00     0.068 A 
HETATM   19  C   UNL     1     -41.376  56.964 -50.807  1.00  0.00     0.097 A 
HETATM   20  C   UNL     1     -40.952  56.037 -49.841  1.00  0.00     0.075 A 
HETATM   21  C   UNL     1     -41.744  54.934 -49.514  1.00  0.00     0.070 A 
HETATM   22  C   UNL     1     -42.980  54.769 -50.138  1.00  0.00     0.039 A 
HETATM   23  C   UNL     1     -43.412  55.674 -51.106  1.00  0.00     0.035 A 
BRANCH  19  24
HETATM   24  O   UNL     1     -40.726  58.144 -51.070  1.00  0.00    -0.354 OA
HETATM   25  C   UNL     1     -40.827  59.189 -50.112  1.00  0.00     0.210 C 
ENDBRANCH  19  24
BRANCH  21  26
HETATM   26  O   UNL     1     -41.445  53.972 -48.589  1.00  0.00    -0.356 OA
HETATM   27  C   UNL     1     -40.135  53.985 -48.036  1.00  0.00     0.210 C 
ENDBRANCH  21  26
ENDBRANCH  15  18
ENDBRANCH  13  14
ENDBRANCH  12  13
ENDBRANCH   9  12
BRANCH  10  28
HETATM   28  C   UNL     1     -42.834  56.054 -55.734  1.00  0.00     0.043 A 
HETATM   29  C   UNL     1     -43.567  55.108 -55.011  1.00  0.00     0.031 A 
HETATM   30  C   UNL     1     -42.893  54.267 -54.125  1.00  0.00     0.021 A 
HETATM   31  C   UNL     1     -41.508  54.381 -53.979  1.00  0.00     0.011 A 
HETATM   32 BR   UNL     1     -40.601  53.234 -52.782  1.00  0.00    -0.051 Br
HETATM   33  C   UNL     1     -40.785  55.326 -54.713  1.00  0.00     0.021 A 
HETATM   34  C   UNL     1     -41.447  56.171 -55.607  1.00  0.00     0.031 A 
ENDBRANCH  10  28
BRANCH  11  35
HETATM   35  N   UNL     1     -43.631  54.966 -58.191  1.00  0.00    -0.384 N 
HETATM   36  H   UNL     1     -44.227  54.197 -57.907  1.00  0.00     0.157 HD
HETATM   37  H   UNL     1     -42.654  54.712 -58.295  1.00  0.00     0.157 HD
ENDBRANCH  11  35
TORSDOF 8
ENDMDL
MODEL 2
REMARK VINA RESULT:      -7.4      3.683      8.822
REMARK  8 active torsions:
REMARK  status: ('A' for Active; 'I' for Inactive)
REMARK    1  A    between atoms: C_9  and  S_10 
REMARK    2  A    between atoms: S_10  and  C_11 
REMARK    3  A    between atoms: C_11  and  C_12 
REMARK       I    between atoms: C_12  and  N_13 
REMARK    4  A    between atoms: N_13  and  C_14 
REMARK    5  A    between atoms: C_15  and  O_16 
REMARK    6  A    between atoms: C_19  and  O_20 
REMARK    7  A    between atoms: N_25  and  C_26 
REMARK    8  A    between atoms: C_33  and  N_34 
ROOT
HETATM    1  C   UNL     1     -40.291  53.047 -48.943  1.00  0.00     0.073 C 
HETATM    2  C   UNL     1     -40.470  53.253 -50.404  1.00  0.00     0.068 A 
HETATM    3  N   UNL     1     -40.112  52.276 -51.247  1.00  0.00    -0.177 NA
HETATM    4  N   UNL     1     -40.408  52.759 -52.462  1.00  0.00    -0.260 N 
HETATM    5  H   UNL     1     -40.224  52.182 -53.278  1.00  0.00     0.191 HD
HETATM    6  C   UNL     1     -40.943  54.013 -52.421  1.00  0.00     0.162 A 
HETATM    7  C   UNL     1     -40.999  54.386 -51.095  1.00  0.00     0.081 A 
HETATM    8  N   UNL     1     -41.334  54.734 -53.469  1.00  0.00    -0.204 NA
HETATM    9  C   UNL     1     -41.830  55.938 -53.110  1.00  0.00     0.177 A 
HETATM   10  N   UNL     1     -41.939  56.383 -51.825  1.00  0.00    -0.276 N 
HETATM   11  C   UNL     1     -41.505  55.652 -50.756  1.00  0.00     0.124 A 
ENDROOT
BRANCH   9  12
HETATM   12  S   UNL     1     -42.435  56.899 -54.505  1.00  0.00    -0.082 SA
BRANCH  12  13
HETATM   13  C   UNL     1     -41.671  55.966 -55.875  1.00  0.00     0.185 C 
BRANCH  13  14
HETATM   14  C   UNL     1     -42.750  55.480 -56.821  1.00  0.00     0.232 C 
HETATM   15  N   UNL     1     -42.823  56.221 -57.988  1.00  0.00    -0.324 N 
HETATM   16  H   UNL     1     -41.950  56.581 -58.351  1.00  0.00     0.169 HD
HETATM   17  O   UNL     1     -43.412  54.483 -56.542  1.00  0.00    -0.272 OA
BRANCH  15  18
HETATM   18  C   UNL     1     -43.915  56.202 -58.887  1.00  0.00     0.068 A 
HETATM   19  C   UNL     1     -44.972  57.136 -58.852  1.00  0.00     0.097 A 
HETATM   20  C   UNL     1     -46.015  57.029 -59.785  1.00  0.00     0.075 A 
HETATM   21  C   UNL     1     -45.994  56.035 -60.767  1.00  0.00     0.070 A 
HETATM   22  C   UNL     1     -44.912  55.158 -60.832  1.00  0.00     0.039 A 
HETATM   23  C   UNL     1     -43.873  55.245 -59.907  1.00  0.00     0.035 A 
BRANCH  19  24
HETATM   24  O   UNL     1     -44.850  58.172 -57.960  1.00  0.00    -0.354 OA
HETATM   25  C   UNL     1     -45.701  58.176 -56.821  1.00  0.00     0.210 C 
ENDBRANCH  19  24
BRANCH  21  26
HETATM   26  O   UNL     1     -46.942  55.834 -61.732  1.00  0.00    -0.356 OA
HETATM   27  C   UNL     1     -48.030  56.750 -61.776  1.00  0.00     0.210 C 
ENDBRANCH  21  26
ENDBRANCH  15  18
ENDBRANCH  13  14
ENDBRANCH  12  13
ENDBRANCH   9  12
BRANCH  10  28
HETATM   28  C   UNL     1     -42.580  57.644 -51.562  1.00  0.00     0.043 A 
HETATM   29  C   UNL     1     -41.793  58.800 -51.538  1.00  0.00     0.031 A 
HETATM   30  C   UNL     1     -42.414  60.035 -51.349  1.00  0.00     0.021 A 
HETATM   31  C   UNL     1     -43.801  60.096 -51.191  1.00  0.00     0.011 A 
HETATM   32 BR   UNL     1     -44.637  61.773 -50.943  1.00  0.00    -0.051 Br
HETATM   33  C   UNL     1     -44.579  58.934 -51.224  1.00  0.00     0.021 A 
HETATM   34  C   UNL     1     -43.970  57.692 -51.418  1.00  0.00     0.031 A 
ENDBRANCH  10  28
BRANCH  11  35
HETATM   35  N   UNL     1     -41.563  56.114 -49.445  1.00  0.00    -0.384 N 
HETATM   36  H   UNL     1     -42.433  56.112 -48.924  1.00  0.00     0.157 HD
HETATM   37  H   UNL     1     -40.917  56.843 -49.163  1.00  0.00     0.157 HD
ENDBRANCH  11  35
TORSDOF 8
ENDMDL
MODEL 3
REMARK VINA RESULT:      -7.4      3.862      5.222
REMARK  8 active torsions:
REMARK  status: ('A' for Active; 'I' for Inactive)
REMARK    1  A    between atoms: C_9  and  S_10 
REMARK    2  A    between atoms: S_10  and  C_11 
REMARK    3  A    between atoms: C_11  and  C_12 
REMARK       I    between atoms: C_12  and  N_13 
REMARK    4  A    between atoms: N_13  and  C_14 
REMARK    5  A    between atoms: C_15  and  O_16 
REMARK    6  A    between atoms: C_19  and  O_20 
REMARK    7  A    between atoms: N_25  and  C_26 
REMARK    8  A    between atoms: C_33  and  N_34 
ROOT
HETATM    1  C   UNL     1     -40.290  63.302 -61.649  1.00  0.00     0.073 C 
HETATM    2  C   UNL     1     -40.476  62.935 -60.220  1.00  0.00     0.068 A 
HETATM    3  N   UNL     1     -40.069  63.787 -59.272  1.00  0.00    -0.177 NA
HETATM    4  N   UNL     1     -40.385  63.180 -58.120  1.00  0.00    -0.260 N 
HETATM    5  H   UNL     1     -40.172  63.646 -57.243  1.00  0.00     0.191 HD
HETATM    6  C   UNL     1     -40.980  61.965 -58.304  1.00  0.00     0.162 A 
HETATM    7  C   UNL     1     -41.057  61.754 -59.664  1.00  0.00     0.081 A 
HETATM    8  N   UNL     1     -41.403  61.145 -57.345  1.00  0.00    -0.204 NA
HETATM    9  C   UNL     1     -41.957  60.016 -57.839  1.00  0.00     0.177 A 
HETATM   10  N   UNL     1     -42.090  59.732 -59.166  1.00  0.00    -0.276 N 
HETATM   11  C   UNL     1     -41.623  60.562 -60.145  1.00  0.00     0.124 A 
ENDROOT
BRANCH   9  12
HETATM   12  S   UNL     1     -42.603  58.928 -56.561  1.00  0.00    -0.082 SA
BRANCH  12  13
HETATM   13  C   UNL     1     -42.077  59.850 -55.076  1.00  0.00     0.185 C 
BRANCH  13  14
HETATM   14  C   UNL     1     -41.381  58.908 -54.115  1.00  0.00     0.232 C 
HETATM   15  N   UNL     1     -41.893  57.623 -54.148  1.00  0.00    -0.324 N 
HETATM   16  H   UNL     1     -42.219  57.288 -55.045  1.00  0.00     0.169 HD
HETATM   17  O   UNL     1     -40.424  59.300 -53.453  1.00  0.00    -0.272 OA
BRANCH  15  18
HETATM   18  C   UNL     1     -41.663  56.638 -53.159  1.00  0.00     0.068 A 
HETATM   19  C   UNL     1     -40.911  55.466 -53.385  1.00  0.00     0.097 A 
HETATM   20  C   UNL     1     -40.744  54.544 -52.339  1.00  0.00     0.075 A 
HETATM   21  C   UNL     1     -41.279  54.797 -51.074  1.00  0.00     0.070 A 
HETATM   22  C   UNL     1     -41.965  55.990 -50.845  1.00  0.00     0.039 A 
HETATM   23  C   UNL     1     -42.148  56.911 -51.875  1.00  0.00     0.035 A 
BRANCH  19  24
HETATM   24  O   UNL     1     -40.290  55.357 -54.604  1.00  0.00    -0.354 OA
HETATM   25  C   UNL     1     -40.280  54.084 -55.237  1.00  0.00     0.210 C 
ENDBRANCH  19  24
BRANCH  21  26
HETATM   26  O   UNL     1     -41.178  53.985 -49.978  1.00  0.00    -0.356 OA
HETATM   27  C   UNL     1     -41.007  54.615 -48.714  1.00  0.00     0.210 C 
ENDBRANCH  21  26
ENDBRANCH  15  18
ENDBRANCH  13  14
ENDBRANCH  12  13
ENDBRANCH   9  12
BRANCH  10  28
HETATM   28  C   UNL     1     -42.791  58.542 -59.571  1.00  0.00     0.043 A 
HETATM   29  C   UNL     1     -42.073  57.346 -59.670  1.00  0.00     0.031 A 
HETATM   30  C   UNL     1     -42.757  56.175 -59.998  1.00  0.00     0.021 A 
HETATM   31  C   UNL     1     -44.136  56.216 -60.216  1.00  0.00     0.011 A 
HETATM   32 BR   UNL     1     -45.057  54.624 -60.652  1.00  0.00    -0.051 Br
HETATM   33  C   UNL     1     -44.845  57.416 -60.106  1.00  0.00     0.021 A 
HETATM   34  C   UNL     1     -44.173  58.596 -59.773  1.00  0.00     0.031 A 
ENDBRANCH  10  28
BRANCH  11  35
HETATM   35  N   UNL     1     -41.707  60.262 -61.501  1.00  0.00    -0.384 N 
HETATM   36  H   UNL     1     -40.933  59.834 -61.995  1.00  0.00     0.157 HD
HETATM   37  H   UNL     1     -42.296  60.845 -62.087  1.00  0.00     0.157 HD
ENDBRANCH  11  35
TORSDOF 8
ENDMDL
MODEL 4
REMARK VINA RESULT:      -7.4      4.143      8.550
REMARK  8 active torsions:
REMARK  status: ('A' for Active; 'I' for Inactive)
REMARK    1  A    between atoms: C_9  and  S_10 
REMARK    2  A    between atoms: S_10  and  C_11 
REMARK    3  A    between atoms: C_11  and  C_12 
REMARK       I    between atoms: C_12  and  N_13 
REMARK    4  A    between atoms: N_13  and  C_14 
REMARK    5  A    between atoms: C_15  and  O_16 
REMARK    6  A    between atoms: C_19  and  O_20 
REMARK    7  A    between atoms: N_25  and  C_26 
REMARK    8  A    between atoms: C_33  and  N_34 
ROOT
HETATM    1  C   UNL     1     -39.842  53.925 -49.513  1.00  0.00     0.073 C 
HETATM    2  C   UNL     1     -40.395  53.878 -50.891  1.00  0.00     0.068 A 
HETATM    3  N   UNL     1     -40.072  52.851 -51.687  1.00  0.00    -0.177 NA
HETATM    4  N   UNL     1     -40.730  53.095 -52.829  1.00  0.00    -0.260 N 
HETATM    5  H   UNL     1     -40.640  52.437 -53.598  1.00  0.00     0.191 HD
HETATM    6  C   UNL     1     -41.462  54.245 -52.787  1.00  0.00     0.162 A 
HETATM    7  C   UNL     1     -41.272  54.801 -51.540  1.00  0.00     0.081 A 
HETATM    8  N   UNL     1     -42.216  54.731 -53.770  1.00  0.00    -0.204 NA
HETATM    9  C   UNL     1     -42.827  55.887 -53.428  1.00  0.00     0.177 A 
HETATM   10  N   UNL     1     -42.711  56.498 -52.214  1.00  0.00    -0.276 N 
HETATM   11  C   UNL     1     -41.909  56.012 -51.221  1.00  0.00     0.124 A 
ENDROOT
BRANCH   9  12
HETATM   12  S   UNL     1     -43.910  56.523 -54.716  1.00  0.00    -0.082 SA
BRANCH  12  13
HETATM   13  C   UNL     1     -42.960  56.023 -56.191  1.00  0.00     0.185 C 
BRANCH  13  14
HETATM   14  C   UNL     1     -43.202  57.016 -57.310  1.00  0.00     0.232 C 
HETATM   15  N   UNL     1     -42.032  57.515 -57.855  1.00  0.00    -0.324 N 
HETATM   16  H   UNL     1     -41.245  56.881 -57.896  1.00  0.00     0.169 HD
HETATM   17  O   UNL     1     -44.347  57.256 -57.685  1.00  0.00    -0.272 OA
BRANCH  15  18
HETATM   18  C   UNL     1     -41.952  58.667 -58.672  1.00  0.00     0.068 A 
HETATM   19  C   UNL     1     -41.724  59.966 -58.170  1.00  0.00     0.097 A 
HETATM   20  C   UNL     1     -41.667  61.048 -59.064  1.00  0.00     0.075 A 
HETATM   21  C   UNL     1     -41.795  60.843 -60.440  1.00  0.00     0.070 A 
HETATM   22  C   UNL     1     -41.955  59.547 -60.928  1.00  0.00     0.039 A 
HETATM   23  C   UNL     1     -42.022  58.463 -60.054  1.00  0.00     0.035 A 
BRANCH  19  24
HETATM   24  O   UNL     1     -41.458  60.070 -56.828  1.00  0.00    -0.354 OA
HETATM   25  C   UNL     1     -42.521  60.453 -55.964  1.00  0.00     0.210 C 
ENDBRANCH  19  24
BRANCH  21  26
HETATM   26  O   UNL     1     -41.749  61.810 -61.406  1.00  0.00    -0.356 OA
HETATM   27  C   UNL     1     -40.552  62.572 -61.509  1.00  0.00     0.210 C 
ENDBRANCH  21  26
ENDBRANCH  15  18
ENDBRANCH  13  14
ENDBRANCH  12  13
ENDBRANCH   9  12
BRANCH  10  28
HETATM   28  C   UNL     1     -43.493  57.672 -51.932  1.00  0.00     0.043 A 
HETATM   29  C   UNL     1     -44.740  57.511 -51.320  1.00  0.00     0.031 A 
HETATM   30  C   UNL     1     -45.477  58.647 -50.983  1.00  0.00     0.021 A 
HETATM   31  C   UNL     1     -44.960  59.916 -51.258  1.00  0.00     0.011 A 
HETATM   32 BR   UNL     1     -45.961  61.450 -50.793  1.00  0.00    -0.051 Br
HETATM   33  C   UNL     1     -43.709  60.064 -51.864  1.00  0.00     0.021 A 
HETATM   34  C   UNL     1     -42.958  58.935 -52.202  1.00  0.00     0.031 A 
ENDBRANCH  10  28
BRANCH  11  35
HETATM   35  N   UNL     1     -41.741  56.651 -49.997  1.00  0.00    -0.384 N 
HETATM   36  H   UNL     1     -42.536  56.887 -49.413  1.00  0.00     0.157 HD
HETATM   37  H   UNL     1     -40.949  57.275 -49.885  1.00  0.00     0.157 HD
ENDBRANCH  11  35
TORSDOF 8
ENDMDL
MODEL 5
REMARK VINA RESULT:      -7.3      3.246      5.109
REMARK  8 active torsions:
REMARK  status: ('A' for Active; 'I' for Inactive)
REMARK    1  A    between atoms: C_9  and  S_10 
REMARK    2  A    between atoms: S_10  and  C_11 
REMARK    3  A    between atoms: C_11  and  C_12 
REMARK       I    between atoms: C_12  and  N_13 
REMARK    4  A    between atoms: N_13  and  C_14 
REMARK    5  A    between atoms: C_15  and  O_16 
REMARK    6  A    between atoms: C_19  and  O_20 
REMARK    7  A    between atoms: N_25  and  C_26 
REMARK    8  A    between atoms: C_33  and  N_34 
ROOT
HETATM    1  C   UNL     1     -44.210  57.733 -59.254  1.00  0.00     0.073 C 
HETATM    2  C   UNL     1     -43.527  57.123 -58.084  1.00  0.00     0.068 A 
HETATM    3  N   UNL     1     -42.881  55.961 -58.242  1.00  0.00    -0.177 NA
HETATM    4  N   UNL     1     -42.373  55.694 -57.031  1.00  0.00    -0.260 N 
HETATM    5  H   UNL     1     -41.828  54.847 -56.901  1.00  0.00     0.191 HD
HETATM    6  C   UNL     1     -42.675  56.650 -56.105  1.00  0.00     0.162 A 
HETATM    7  C   UNL     1     -43.436  57.607 -56.743  1.00  0.00     0.081 A 
HETATM    8  N   UNL     1     -42.301  56.651 -54.827  1.00  0.00    -0.204 NA
HETATM    9  C   UNL     1     -42.748  57.737 -54.160  1.00  0.00     0.177 A 
HETATM   10  N   UNL     1     -43.491  58.739 -54.713  1.00  0.00    -0.276 N 
HETATM   11  C   UNL     1     -43.900  58.715 -56.016  1.00  0.00     0.124 A 
ENDROOT
BRANCH   9  12
HETATM   12  S   UNL     1     -42.191  57.797 -52.451  1.00  0.00    -0.082 SA
BRANCH  12  13
HETATM   13  C   UNL     1     -43.429  56.697 -51.685  1.00  0.00     0.185 C 
BRANCH  13  14
HETATM   14  C   UNL     1     -42.846  55.308 -51.529  1.00  0.00     0.232 C 
HETATM   15  N   UNL     1     -41.582  55.185 -52.079  1.00  0.00    -0.324 N 
HETATM   16  H   UNL     1     -40.984  55.999 -52.025  1.00  0.00     0.169 HD
HETATM   17  O   UNL     1     -43.462  54.445 -50.908  1.00  0.00    -0.272 OA
BRANCH  15  18
HETATM   18  C   UNL     1     -40.941  53.955 -52.359  1.00  0.00     0.068 A 
HETATM   19  C   UNL     1     -40.095  53.290 -51.446  1.00  0.00     0.097 A 
HETATM   20  C   UNL     1     -39.499  52.075 -51.822  1.00  0.00     0.075 A 
HETATM   21  C   UNL     1     -39.768  51.505 -53.069  1.00  0.00     0.070 A 
HETATM   22  C   UNL     1     -40.656  52.139 -53.936  1.00  0.00     0.039 A 
HETATM   23  C   UNL     1     -41.248  53.351 -53.583  1.00  0.00     0.035 A 
BRANCH  19  24
HETATM   24  O   UNL     1     -39.998  53.831 -50.189  1.00  0.00    -0.354 OA
HETATM   25  C   UNL     1     -40.609  53.131 -49.112  1.00  0.00     0.210 C 
ENDBRANCH  19  24
BRANCH  21  26
HETATM   26  O   UNL     1     -39.258  50.328 -53.544  1.00  0.00    -0.356 OA
HETATM   27  C   UNL     1     -39.860  49.782 -54.712  1.00  0.00     0.210 C 
ENDBRANCH  21  26
ENDBRANCH  15  18
ENDBRANCH  13  14
ENDBRANCH  12  13
ENDBRANCH   9  12
BRANCH  10  28
HETATM   28  C   UNL     1     -43.821  59.897 -53.925  1.00  0.00     0.043 A 
HETATM   29  C   UNL     1     -45.001  59.878 -53.175  1.00  0.00     0.031 A 
HETATM   30  C   UNL     1     -45.297  60.969 -52.357  1.00  0.00     0.021 A 
HETATM   31  C   UNL     1     -44.415  62.051 -52.299  1.00  0.00     0.011 A 
HETATM   32 BR   UNL     1     -44.819  63.522 -51.184  1.00  0.00    -0.051 Br
HETATM   33  C   UNL     1     -43.235  62.056 -53.049  1.00  0.00     0.021 A 
HETATM   34  C   UNL     1     -42.924  60.967 -53.868  1.00  0.00     0.031 A 
ENDBRANCH  10  28
BRANCH  11  35
HETATM   35  N   UNL     1     -44.699  59.704 -56.581  1.00  0.00    -0.384 N 
HETATM   36  H   UNL     1     -45.708  59.612 -56.613  1.00  0.00     0.157 HD
HETATM   37  H   UNL     1     -44.313  60.261 -57.337  1.00  0.00     0.157 HD
ENDBRANCH  11  35
TORSDOF 8
ENDMDL
MODEL 6
REMARK VINA RESULT:      -7.2      4.333      8.710
REMARK  8 active torsions:
REMARK  status: ('A' for Active; 'I' for Inactive)
REMARK    1  A    between atoms: C_9  and  S_10 
REMARK    2  A    between atoms: S_10  and  C_11 
REMARK    3  A    between atoms: C_11  and  C_12 
REMARK       I    between atoms: C_12  and  N_13 
REMARK    4  A    between atoms: N_13  and  C_14 
REMARK    5  A    between atoms: C_15  and  O_16 
REMARK    6  A    between atoms: C_19  and  O_20 
REMARK    7  A    between atoms: N_25  and  C_26 
REMARK    8  A    between atoms: C_33  and  N_34 
ROOT
HETATM    1  C   UNL     1     -40.240  50.898 -50.217  1.00  0.00     0.073 C 
HETATM    2  C   UNL     1     -40.062  51.501 -51.564  1.00  0.00     0.068 A 
HETATM    3  N   UNL     1     -39.471  50.780 -52.525  1.00  0.00    -0.177 NA
HETATM    4  N   UNL     1     -39.476  51.585 -53.596  1.00  0.00    -0.260 N 
HETATM    5  H   UNL     1     -39.075  51.248 -54.467  1.00  0.00     0.191 HD
HETATM    6  C   UNL     1     -40.052  52.797 -53.349  1.00  0.00     0.162 A 
HETATM    7  C   UNL     1     -40.447  52.796 -52.028  1.00  0.00     0.081 A 
HETATM    8  N   UNL     1     -40.199  53.790 -54.223  1.00  0.00    -0.204 NA
HETATM    9  C   UNL     1     -40.813  54.865 -53.684  1.00  0.00     0.177 A 
HETATM   10  N   UNL     1     -41.252  54.946 -52.395  1.00  0.00    -0.276 N 
HETATM   11  C   UNL     1     -41.067  53.937 -51.493  1.00  0.00     0.124 A 
ENDROOT
BRANCH   9  12
HETATM   12  S   UNL     1     -41.091  56.190 -54.869  1.00  0.00    -0.082 SA
BRANCH  12  13
HETATM   13  C   UNL     1     -42.606  55.569 -55.674  1.00  0.00     0.185 C 
BRANCH  13  14
HETATM   14  C   UNL     1     -43.045  56.544 -56.748  1.00  0.00     0.232 C 
HETATM   15  N   UNL     1     -42.042  56.842 -57.654  1.00  0.00    -0.324 N 
HETATM   16  H   UNL     1     -41.395  56.096 -57.875  1.00  0.00     0.169 HD
HETATM   17  O   UNL     1     -44.208  56.937 -56.785  1.00  0.00    -0.272 OA
BRANCH  15  18
HETATM   18  C   UNL     1     -42.065  57.937 -58.549  1.00  0.00     0.068 A 
HETATM   19  C   UNL     1     -42.350  57.813 -59.925  1.00  0.00     0.097 A 
HETATM   20  C   UNL     1     -42.341  58.961 -60.735  1.00  0.00     0.075 A 
HETATM   21  C   UNL     1     -42.094  60.220 -60.183  1.00  0.00     0.070 A 
HETATM   22  C   UNL     1     -41.878  60.337 -58.810  1.00  0.00     0.039 A 
HETATM   23  C   UNL     1     -41.873  59.207 -57.994  1.00  0.00     0.035 A 
BRANCH  19  24
HETATM   24  O   UNL     1     -42.732  56.571 -60.367  1.00  0.00    -0.354 OA
HETATM   25  C   UNL     1     -44.123  56.293 -60.457  1.00  0.00     0.210 C 
ENDBRANCH  19  24
BRANCH  21  26
HETATM   26  O   UNL     1     -42.066  61.407 -60.862  1.00  0.00    -0.356 OA
HETATM   27  C   UNL     1     -42.505  62.567 -60.164  1.00  0.00     0.210 C 
ENDBRANCH  21  26
ENDBRANCH  15  18
ENDBRANCH  13  14
ENDBRANCH  12  13
ENDBRANCH   9  12
BRANCH  10  28
HETATM   28  C   UNL     1     -41.985  56.107 -51.965  1.00  0.00     0.043 A 
HETATM   29  C   UNL     1     -41.267  57.226 -51.533  1.00  0.00     0.031 A 
HETATM   30  C   UNL     1     -41.967  58.379 -51.176  1.00  0.00     0.021 A 
HETATM   31  C   UNL     1     -43.361  58.397 -51.259  1.00  0.00     0.011 A 
HETATM   32 BR   UNL     1     -44.302  59.965 -50.782  1.00  0.00    -0.051 Br
HETATM   33  C   UNL     1     -44.068  57.274 -51.700  1.00  0.00     0.021 A 
HETATM   34  C   UNL     1     -43.379  56.115 -52.065  1.00  0.00     0.031 A 
ENDBRANCH  10  28
BRANCH  11  35
HETATM   35  N   UNL     1     -41.464  54.024 -50.163  1.00  0.00    -0.384 N 
HETATM   36  H   UNL     1     -42.394  53.744 -49.870  1.00  0.00     0.157 HD
HETATM   37  H   UNL     1     -41.054  54.750 -49.585  1.00  0.00     0.157 HD
ENDBRANCH  11  35
TORSDOF 8
ENDMDL
MODEL 7
REMARK VINA RESULT:      -7.1      4.054      6.867
REMARK  8 active torsions:
REMARK  status: ('A' for Active; 'I' for Inactive)
REMARK    1  A    between atoms: C_9  and  S_10 
REMARK    2  A    between atoms: S_10  and  C_11 
REMARK    3  A    between atoms: C_11  and  C_12 
REMARK       I    between atoms: C_12  and  N_13 
REMARK    4  A    between atoms: N_13  and  C_14 
REMARK    5  A    between atoms: C_15  and  O_16 
REMARK    6  A    between atoms: C_19  and  O_20 
REMARK    7  A    between atoms: N_25  and  C_26 
REMARK    8  A    between atoms: C_33  and  N_34 
ROOT
HETATM    1  C   UNL     1     -39.406  50.475 -54.323  1.00  0.00     0.073 C 
HETATM    2  C   UNL     1     -39.723  51.115 -53.020  1.00  0.00     0.068 A 
HETATM    3  N   UNL     1     -39.475  50.444 -51.888  1.00  0.00    -0.177 NA
HETATM    4  N   UNL     1     -39.851  51.283 -50.913  1.00  0.00    -0.260 N 
HETATM    5  H   UNL     1     -39.751  50.989 -49.946  1.00  0.00     0.191 HD
HETATM    6  C   UNL     1     -40.332  52.469 -51.388  1.00  0.00     0.162 A 
HETATM    7  C   UNL     1     -40.276  52.408 -52.764  1.00  0.00     0.081 A 
HETATM    8  N   UNL     1     -40.771  53.488 -50.652  1.00  0.00    -0.204 NA
HETATM    9  C   UNL     1     -41.179  54.531 -51.408  1.00  0.00     0.177 A 
HETATM   10  N   UNL     1     -41.143  54.564 -52.772  1.00  0.00    -0.276 N 
HETATM   11  C   UNL     1     -40.724  53.503 -53.521  1.00  0.00     0.124 A 
ENDROOT
BRANCH   9  12
HETATM   12  S   UNL     1     -41.705  55.948 -50.433  1.00  0.00    -0.082 SA
BRANCH  12  13
HETATM   13  C   UNL     1     -43.515  55.752 -50.559  1.00  0.00     0.185 C 
BRANCH  13  14
HETATM   14  C   UNL     1     -44.152  57.098 -50.838  1.00  0.00     0.232 C 
HETATM   15  N   UNL     1     -43.238  58.062 -51.222  1.00  0.00    -0.324 N 
HETATM   16  H   UNL     1     -42.450  57.745 -51.774  1.00  0.00     0.169 HD
HETATM   17  O   UNL     1     -45.372  57.229 -50.772  1.00  0.00    -0.272 OA
BRANCH  15  18
HETATM   18  C   UNL     1     -43.491  59.454 -51.236  1.00  0.00     0.068 A 
HETATM   19  C   UNL     1     -42.709  60.396 -50.535  1.00  0.00     0.097 A 
HETATM   20  C   UNL     1     -43.047  61.758 -50.605  1.00  0.00     0.075 A 
HETATM   21  C   UNL     1     -44.119  62.186 -51.391  1.00  0.00     0.070 A 
HETATM   22  C   UNL     1     -44.844  61.252 -52.130  1.00  0.00     0.039 A 
HETATM   23  C   UNL     1     -44.529  59.896 -52.063  1.00  0.00     0.035 A 
BRANCH  19  24
HETATM   24  O   UNL     1     -41.584  59.921 -49.909  1.00  0.00    -0.354 OA
HETATM   25  C   UNL     1     -40.427  59.687 -50.702  1.00  0.00     0.210 C 
ENDBRANCH  19  24
BRANCH  21  26
HETATM   26  O   UNL     1     -44.539  63.478 -51.547  1.00  0.00    -0.356 OA
HETATM   27  C   UNL     1     -45.343  64.031 -50.511  1.00  0.00     0.210 C 
ENDBRANCH  21  26
ENDBRANCH  15  18
ENDBRANCH  13  14
ENDBRANCH  12  13
ENDBRANCH   9  12
BRANCH  10  28
HETATM   28  C   UNL     1     -41.509  55.773 -53.462  1.00  0.00     0.043 A 
HETATM   29  C   UNL     1     -42.768  55.839 -54.068  1.00  0.00     0.031 A 
HETATM   30  C   UNL     1     -43.157  57.029 -54.684  1.00  0.00     0.021 A 
HETATM   31  C   UNL     1     -42.293  58.126 -54.681  1.00  0.00     0.011 A 
HETATM   32 BR   UNL     1     -42.830  59.737 -55.510  1.00  0.00    -0.051 Br
HETATM   33  C   UNL     1     -41.039  58.050 -54.065  1.00  0.00     0.021 A 
HETATM   34  C   UNL     1     -40.639  56.866 -53.440  1.00  0.00     0.031 A 
ENDBRANCH  10  28
BRANCH  11  35
HETATM   35  N   UNL     1     -40.730  53.504 -54.912  1.00  0.00    -0.384 N 
HETATM   36  H   UNL     1     -40.943  54.344 -55.438  1.00  0.00     0.157 HD
HETATM   37  H   UNL     1     -40.977  52.645 -55.393  1.00  0.00     0.157 HD
ENDBRANCH  11  35
TORSDOF 8
ENDMDL
MODEL 8
REMARK VINA RESULT:      -7.1      4.194      8.623
REMARK  8 active torsions:
REMARK  status: ('A' for Active; 'I' for Inactive)
REMARK    1  A    between atoms: C_9  and  S_10 
REMARK    2  A    between atoms: S_10  and  C_11 
REMARK    3  A    between atoms: C_11  and  C_12 
REMARK       I    between atoms: C_12  and  N_13 
REMARK    4  A    between atoms: N_13  and  C_14 
REMARK    5  A    between atoms: C_15  and  O_16 
REMARK    6  A    between atoms: C_19  and  O_20 
REMARK    7  A    between atoms: N_25  and  C_26 
REMARK    8  A    between atoms: C_33  and  N_34 
ROOT
HETATM    1  C   UNL     1     -39.859  51.007 -50.589  1.00  0.00     0.073 C 
HETATM    2  C   UNL     1     -39.938  51.560 -51.966  1.00  0.00     0.068 A 
HETATM    3  N   UNL     1     -39.488  50.822 -52.989  1.00  0.00    -0.177 NA
HETATM    4  N   UNL     1     -39.710  51.582 -54.070  1.00  0.00    -0.260 N 
HETATM    5  H   UNL     1     -39.448  51.224 -54.985  1.00  0.00     0.191 HD
HETATM    6  C   UNL     1     -40.287  52.781 -53.770  1.00  0.00     0.162 A 
HETATM    7  C   UNL     1     -40.451  52.820 -52.401  1.00  0.00     0.081 A 
HETATM    8  N   UNL     1     -40.623  53.731 -54.640  1.00  0.00    -0.204 NA
HETATM    9  C   UNL     1     -41.182  54.804 -54.041  1.00  0.00     0.177 A 
HETATM   10  N   UNL     1     -41.399  54.922 -52.699  1.00  0.00    -0.276 N 
HETATM   11  C   UNL     1     -41.021  53.958 -51.808  1.00  0.00     0.124 A 
ENDROOT
BRANCH   9  12
HETATM   12  S   UNL     1     -41.713  56.068 -55.206  1.00  0.00    -0.082 SA
BRANCH  12  13
HETATM   13  C   UNL     1     -42.714  55.042 -56.336  1.00  0.00     0.185 C 
BRANCH  13  14
HETATM   14  C   UNL     1     -42.921  55.782 -57.642  1.00  0.00     0.232 C 
HETATM   15  N   UNL     1     -42.160  56.934 -57.740  1.00  0.00    -0.324 N 
HETATM   16  H   UNL     1     -41.246  56.911 -57.305  1.00  0.00     0.169 HD
HETATM   17  O   UNL     1     -43.657  55.314 -58.506  1.00  0.00    -0.272 OA
BRANCH  15  18
HETATM   18  C   UNL     1     -42.380  57.967 -58.681  1.00  0.00     0.068 A 
HETATM   19  C   UNL     1     -43.132  59.128 -58.402  1.00  0.00     0.097 A 
HETATM   20  C   UNL     1     -43.300  60.096 -59.407  1.00  0.00     0.075 A 
HETATM   21  C   UNL     1     -42.697  59.937 -60.657  1.00  0.00     0.070 A 
HETATM   22  C   UNL     1     -41.903  58.816 -60.898  1.00  0.00     0.039 A 
HETATM   23  C   UNL     1     -41.734  57.842 -59.915  1.00  0.00     0.035 A 
BRANCH  19  24
HETATM   24  O   UNL     1     -43.566  59.287 -57.110  1.00  0.00    -0.354 OA
HETATM   25  C   UNL     1     -44.910  58.935 -56.808  1.00  0.00     0.210 C 
ENDBRANCH  19  24
BRANCH  21  26
HETATM   26  O   UNL     1     -42.779  60.808 -61.708  1.00  0.00    -0.356 OA
HETATM   27  C   UNL     1     -44.050  60.964 -62.327  1.00  0.00     0.210 C 
ENDBRANCH  21  26
ENDBRANCH  15  18
ENDBRANCH  13  14
ENDBRANCH  12  13
ENDBRANCH   9  12
BRANCH  10  28
HETATM   28  C   UNL     1     -42.098  56.072 -52.190  1.00  0.00     0.043 A 
HETATM   29  C   UNL     1     -41.359  57.219 -51.883  1.00  0.00     0.031 A 
HETATM   30  C   UNL     1     -42.035  58.360 -51.451  1.00  0.00     0.021 A 
HETATM   31  C   UNL     1     -43.427  58.340 -51.337  1.00  0.00     0.011 A 
HETATM   32 BR   UNL     1     -44.337  59.892 -50.759  1.00  0.00    -0.051 Br
HETATM   33  C   UNL     1     -44.156  57.189 -51.655  1.00  0.00     0.021 A 
HETATM   34  C   UNL     1     -43.492  56.041 -52.093  1.00  0.00     0.031 A 
ENDBRANCH  10  28
BRANCH  11  35
HETATM   35  N   UNL     1     -41.190  54.085 -50.433  1.00  0.00    -0.384 N 
HETATM   36  H   UNL     1     -40.456  54.463 -49.844  1.00  0.00     0.157 HD
HETATM   37  H   UNL     1     -41.796  53.423 -49.960  1.00  0.00     0.157 HD
ENDBRANCH  11  35
TORSDOF 8
ENDMDL
MODEL 9
REMARK VINA RESULT:      -7.1      2.859      4.106
REMARK  8 active torsions:
REMARK  status: ('A' for Active; 'I' for Inactive)
REMARK    1  A    between atoms: C_9  and  S_10 
REMARK    2  A    between atoms: S_10  and  C_11 
REMARK    3  A    between atoms: C_11  and  C_12 
REMARK       I    between atoms: C_12  and  N_13 
REMARK    4  A    between atoms: N_13  and  C_14 
REMARK    5  A    between atoms: C_15  and  O_16 
REMARK    6  A    between atoms: C_19  and  O_20 
REMARK    7  A    between atoms: N_25  and  C_26 
REMARK    8  A    between atoms: C_33  and  N_34 
ROOT
HETATM    1  C   UNL     1     -41.332  61.496 -60.253  1.00  0.00     0.073 C 
HETATM    2  C   UNL     1     -41.839  60.124 -59.986  1.00  0.00     0.068 A 
HETATM    3  N   UNL     1     -42.002  59.281 -61.013  1.00  0.00    -0.177 NA
HETATM    4  N   UNL     1     -42.447  58.150 -60.447  1.00  0.00    -0.260 N 
HETATM    5  H   UNL     1     -42.643  57.348 -61.039  1.00  0.00     0.191 HD
HETATM    6  C   UNL     1     -42.574  58.246 -59.092  1.00  0.00     0.162 A 
HETATM    7  C   UNL     1     -42.194  59.524 -58.739  1.00  0.00     0.081 A 
HETATM    8  N   UNL     1     -42.989  57.283 -58.272  1.00  0.00    -0.204 NA
HETATM    9  C   UNL     1     -43.003  57.677 -56.980  1.00  0.00     0.177 A 
HETATM   10  N   UNL     1     -42.629  58.913 -56.539  1.00  0.00    -0.276 N 
HETATM   11  C   UNL     1     -42.237  59.907 -57.389  1.00  0.00     0.124 A 
ENDROOT
BRANCH   9  12
HETATM   12  S   UNL     1     -43.488  56.367 -55.847  1.00  0.00    -0.082 SA
BRANCH  12  13
HETATM   13  C   UNL     1     -42.039  55.269 -56.009  1.00  0.00     0.185 C 
BRANCH  13  14
HETATM   14  C   UNL     1     -41.307  55.197 -54.685  1.00  0.00     0.232 C 
HETATM   15  N   UNL     1     -42.099  54.730 -53.651  1.00  0.00    -0.324 N 
HETATM   16  H   UNL     1     -42.790  54.031 -53.890  1.00  0.00     0.169 HD
HETATM   17  O   UNL     1     -40.113  55.481 -54.624  1.00  0.00    -0.272 OA
BRANCH  15  18
HETATM   18  C   UNL     1     -41.788  54.857 -52.276  1.00  0.00     0.068 A 
HETATM   19  C   UNL     1     -42.411  55.788 -51.419  1.00  0.00     0.097 A 
HETATM   20  C   UNL     1     -42.028  55.843 -50.069  1.00  0.00     0.075 A 
HETATM   21  C   UNL     1     -41.070  54.960 -49.564  1.00  0.00     0.070 A 
HETATM   22  C   UNL     1     -40.509  54.001 -50.407  1.00  0.00     0.039 A 
HETATM   23  C   UNL     1     -40.871  53.940 -51.752  1.00  0.00     0.035 A 
BRANCH  19  24
HETATM   24  O   UNL     1     -43.447  56.517 -51.947  1.00  0.00    -0.354 OA
HETATM   25  C   UNL     1     -44.405  57.062 -51.050  1.00  0.00     0.210 C 
ENDBRANCH  19  24
BRANCH  21  26
HETATM   26  O   UNL     1     -40.621  54.909 -48.273  1.00  0.00    -0.356 OA
HETATM   27  C   UNL     1     -40.402  53.620 -47.710  1.00  0.00     0.210 C 
ENDBRANCH  21  26
ENDBRANCH  15  18
ENDBRANCH  13  14
ENDBRANCH  12  13
ENDBRANCH   9  12
BRANCH  10  28
HETATM   28  C   UNL     1     -42.589  59.180 -55.126  1.00  0.00     0.043 A 
HETATM   29  C   UNL     1     -41.414  58.893 -54.425  1.00  0.00     0.031 A 
HETATM   30  C   UNL     1     -41.343  59.210 -53.068  1.00  0.00     0.021 A 
HETATM   31  C   UNL     1     -42.438  59.807 -52.438  1.00  0.00     0.011 A 
HETATM   32 BR   UNL     1     -42.332  60.240 -50.602  1.00  0.00    -0.051 Br
HETATM   33  C   UNL     1     -43.606  60.097 -53.151  1.00  0.00     0.021 A 
HETATM   34  C   UNL     1     -43.688  59.789 -54.512  1.00  0.00     0.031 A 
ENDBRANCH  10  28
BRANCH  11  35
HETATM   35  N   UNL     1     -41.901  61.186 -56.958  1.00  0.00    -0.384 N 
HETATM   36  H   UNL     1     -41.591  61.898 -57.611  1.00  0.00     0.157 HD
HETATM   37  H   UNL     1     -41.523  61.295 -56.023  1.00  0.00     0.157 HD
ENDBRANCH  11  35
TORSDOF 8
ENDMDL
MODEL 10
REMARK VINA RESULT:      -7.0      3.936      8.762
REMARK  8 active torsions:
REMARK  status: ('A' for Active; 'I' for Inactive)
REMARK    1  A    between atoms: C_9  and  S_10 
REMARK    2  A    between atoms: S_10  and  C_11 
REMARK    3  A    between atoms: C_11  and  C_12 
REMARK       I    between atoms: C_12  and  N_13 
REMARK    4  A    between atoms: N_13  and  C_14 
REMARK    5  A    between atoms: C_15  and  O_16 
REMARK    6  A    between atoms: C_19  and  O_20 
REMARK    7  A    between atoms: N_25  and  C_26 
REMARK    8  A    between atoms: C_33  and  N_34 
ROOT
HETATM    1  C   UNL     1     -39.816  51.700 -51.114  1.00  0.00     0.073 C 
HETATM    2  C   UNL     1     -40.060  52.228 -52.481  1.00  0.00     0.068 A 
HETATM    3  N   UNL     1     -39.753  51.465 -53.537  1.00  0.00    -0.177 NA
HETATM    4  N   UNL     1     -40.099  52.209 -54.597  1.00  0.00    -0.260 N 
HETATM    5  H   UNL     1     -39.959  51.830 -55.530  1.00  0.00     0.191 HD
HETATM    6  C   UNL     1     -40.616  53.423 -54.251  1.00  0.00     0.162 A 
HETATM    7  C   UNL     1     -40.607  53.489 -52.874  1.00  0.00     0.081 A 
HETATM    8  N   UNL     1     -41.046  54.361 -55.091  1.00  0.00    -0.204 NA
HETATM    9  C   UNL     1     -41.510  55.455 -54.448  1.00  0.00     0.177 A 
HETATM   10  N   UNL     1     -41.555  55.600 -53.092  1.00  0.00    -0.276 N 
HETATM   11  C   UNL     1     -41.080  54.647 -52.236  1.00  0.00     0.124 A 
ENDROOT
BRANCH   9  12
HETATM   12  S   UNL     1     -42.167  56.705 -55.562  1.00  0.00    -0.082 SA
BRANCH  12  13
HETATM   13  C   UNL     1     -42.806  55.629 -56.890  1.00  0.00     0.185 C 
BRANCH  13  14
HETATM   14  C   UNL     1     -43.369  56.483 -58.007  1.00  0.00     0.232 C 
HETATM   15  N   UNL     1     -44.716  56.758 -57.855  1.00  0.00    -0.324 N 
HETATM   16  H   UNL     1     -45.051  56.872 -56.907  1.00  0.00     0.169 HD
HETATM   17  O   UNL     1     -42.629  56.907 -58.892  1.00  0.00    -0.272 OA
BRANCH  15  18
HETATM   18  C   UNL     1     -45.560  57.248 -58.879  1.00  0.00     0.068 A 
HETATM   19  C   UNL     1     -45.800  58.621 -59.101  1.00  0.00     0.097 A 
HETATM   20  C   UNL     1     -46.660  59.009 -60.141  1.00  0.00     0.075 A 
HETATM   21  C   UNL     1     -47.244  58.053 -60.977  1.00  0.00     0.070 A 
HETATM   22  C   UNL     1     -46.947  56.704 -60.788  1.00  0.00     0.039 A 
HETATM   23  C   UNL     1     -46.103  56.302 -59.754  1.00  0.00     0.035 A 
BRANCH  19  24
HETATM   24  O   UNL     1     -45.076  59.505 -58.340  1.00  0.00    -0.354 OA
HETATM   25  C   UNL     1     -44.073  60.277 -58.988  1.00  0.00     0.210 C 
ENDBRANCH  19  24
BRANCH  21  26
HETATM   26  O   UNL     1     -48.088  58.304 -62.024  1.00  0.00    -0.356 OA
HETATM   27  C   UNL     1     -48.817  57.203 -62.551  1.00  0.00     0.210 C 
ENDBRANCH  21  26
ENDBRANCH  15  18
ENDBRANCH  13  14
ENDBRANCH  12  13
ENDBRANCH   9  12
BRANCH  10  28
HETATM   28  C   UNL     1     -42.168  56.771 -52.523  1.00  0.00     0.043 A 
HETATM   29  C   UNL     1     -41.380  57.911 -52.334  1.00  0.00     0.031 A 
HETATM   30  C   UNL     1     -41.980  59.071 -51.844  1.00  0.00     0.021 A 
HETATM   31  C   UNL     1     -43.347  59.076 -51.555  1.00  0.00     0.011 A 
HETATM   32 BR   UNL     1     -44.155  60.653 -50.898  1.00  0.00    -0.051 Br
HETATM   33  C   UNL     1     -44.126  57.931 -51.755  1.00  0.00     0.021 A 
HETATM   34  C   UNL     1     -43.539  56.764 -52.250  1.00  0.00     0.031 A 
ENDBRANCH  10  28
BRANCH  11  35
HETATM   35  N   UNL     1     -41.073  54.802 -50.854  1.00  0.00    -0.384 N 
HETATM   36  H   UNL     1     -41.729  55.420 -50.389  1.00  0.00     0.157 HD
HETATM   37  H   UNL     1     -40.192  54.695 -50.363  1.00  0.00     0.157 HD
ENDBRANCH  11  35
TORSDOF 8
ENDMDL
