MODEL 1
REMARK VINA RESULT:      -7.5      0.000      0.000
REMARK  6 active torsions:
REMARK  status: ('A' for Active; 'I' for Inactive)
REMARK    1  A    between atoms: C_2  and  S_3 
REMARK    2  A    between atoms: C_2  and  C_11 
REMARK    3  A    between atoms: S_3  and  C_4 
REMARK    4  A    between atoms: C_4  and  C_5 
REMARK       I    between atoms: C_11  and  N_12 
REMARK    5  A    between atoms: N_12  and  C_13 
REMARK    6  A    between atoms: C_15  and  C_16 
ROOT
HETATM    1  C   UNL     1     -42.848  56.756 -51.523  1.00  0.00     0.235 C 
HETATM    2  N   UNL     1     -41.563  56.250 -51.382  1.00  0.00    -0.326 N 
HETATM    3  O   UNL     1     -43.860  56.280 -51.015  1.00  0.00    -0.272 OA
HETATM    4  H   UNL     1     -40.868  56.660 -51.997  1.00  0.00     0.169 HD
ENDROOT
BRANCH   2   5
HETATM    5  C   UNL     1     -41.147  55.157 -50.593  1.00  0.00     0.035 A 
HETATM    6  C   UNL     1     -40.819  53.901 -51.112  1.00  0.00     0.042 A 
HETATM    7  C   UNL     1     -40.425  52.845 -50.272  1.00  0.00    -0.021 A 
HETATM    8  C   UNL     1     -40.375  53.064 -48.890  1.00  0.00     0.012 A 
HETATM    9  C   UNL     1     -40.705  54.312 -48.361  1.00  0.00     0.003 A 
HETATM   10  C   UNL     1     -41.089  55.353 -49.209  1.00  0.00     0.029 A 
BRANCH   7  11
HETATM   11  C   UNL     1     -40.080  51.542 -50.818  1.00  0.00     0.010 A 
HETATM   12  C   UNL     1     -39.539  51.174 -52.072  1.00  0.00     0.152 A 
HETATM   13  N   UNL     1     -39.376  49.853 -52.200  1.00  0.00    -0.187 NA
HETATM   14  N   UNL     1     -39.812  49.369 -51.027  1.00  0.00    -0.289 N 
HETATM   15  H   UNL     1     -39.787  48.366 -50.880  1.00  0.00     0.188 HD
HETATM   16  C   UNL     1     -40.247  50.337 -50.168  1.00  0.00     0.123 A 
ENDBRANCH   7  11
ENDBRANCH   2   5
BRANCH   1  17
HETATM   17  C   UNL     1     -42.893  58.079 -52.316  1.00  0.00     0.135 C 
HETATM   18  C   UNL     1     -44.209  58.205 -53.079  1.00  0.00     0.031 C 
BRANCH  17  19
HETATM   19  S   UNL     1     -41.434  58.193 -53.437  1.00  0.00    -0.150 SA
BRANCH  19  20
HETATM   20  C   UNL     1     -42.084  57.299 -54.885  1.00  0.00     0.113 C 
BRANCH  20  21
HETATM   21  C   UNL     1     -41.777  55.824 -54.821  1.00  0.00    -0.049 A 
HETATM   22  C   UNL     1     -40.447  55.378 -54.790  1.00  0.00     0.008 A 
HETATM   23  C   UNL     1     -40.157  54.015 -54.709  1.00  0.00     0.001 A 
HETATM   24  C   UNL     1     -41.192  53.084 -54.663  1.00  0.00     0.000 A 
HETATM   25  C   UNL     1     -42.517  53.514 -54.704  1.00  0.00     0.001 A 
HETATM   26  C   UNL     1     -42.810  54.877 -54.786  1.00  0.00     0.008 A 
ENDBRANCH  20  21
ENDBRANCH  19  20
ENDBRANCH  17  19
ENDBRANCH   1  17
TORSDOF 6
ENDMDL
MODEL 2
REMARK VINA RESULT:      -7.4      3.617      6.990
REMARK  6 active torsions:
REMARK  status: ('A' for Active; 'I' for Inactive)
REMARK    1  A    between atoms: C_2  and  S_3 
REMARK    2  A    between atoms: C_2  and  C_11 
REMARK    3  A    between atoms: S_3  and  C_4 
REMARK    4  A    between atoms: C_4  and  C_5 
REMARK       I    between atoms: C_11  and  N_12 
REMARK    5  A    between atoms: N_12  and  C_13 
REMARK    6  A    between atoms: C_15  and  C_16 
ROOT
HETATM    1  C   UNL     1     -42.952  55.537 -52.562  1.00  0.00     0.235 C 
HETATM    2  N   UNL     1     -43.624  55.264 -53.746  1.00  0.00    -0.326 N 
HETATM    3  O   UNL     1     -42.422  56.607 -52.277  1.00  0.00    -0.272 OA
HETATM    4  H   UNL     1     -43.858  54.287 -53.894  1.00  0.00     0.169 HD
ENDROOT
BRANCH   2   5
HETATM    5  C   UNL     1     -43.895  56.150 -54.811  1.00  0.00     0.035 A 
HETATM    6  C   UNL     1     -43.231  56.115 -56.041  1.00  0.00     0.042 A 
HETATM    7  C   UNL     1     -43.536  57.036 -57.058  1.00  0.00    -0.021 A 
HETATM    8  C   UNL     1     -44.514  58.008 -56.820  1.00  0.00     0.012 A 
HETATM    9  C   UNL     1     -45.178  58.055 -55.594  1.00  0.00     0.003 A 
HETATM   10  C   UNL     1     -44.869  57.130 -54.595  1.00  0.00     0.029 A 
BRANCH   7  11
HETATM   11  C   UNL     1     -42.846  56.991 -58.339  1.00  0.00     0.010 A 
HETATM   12  C   UNL     1     -42.879  56.034 -59.380  1.00  0.00     0.152 A 
HETATM   13  N   UNL     1     -42.081  56.352 -60.404  1.00  0.00    -0.187 NA
HETATM   14  N   UNL     1     -41.534  57.517 -60.023  1.00  0.00    -0.289 N 
HETATM   15  H   UNL     1     -40.877  57.969 -60.650  1.00  0.00     0.188 HD
HETATM   16  C   UNL     1     -41.955  57.940 -58.795  1.00  0.00     0.123 A 
ENDBRANCH   7  11
ENDBRANCH   2   5
BRANCH   1  17
HETATM   17  C   UNL     1     -43.017  54.375 -51.549  1.00  0.00     0.135 C 
HETATM   18  C   UNL     1     -43.963  54.715 -50.400  1.00  0.00     0.031 C 
BRANCH  17  19
HETATM   19  S   UNL     1     -41.324  53.966 -50.947  1.00  0.00    -0.150 SA
BRANCH  19  20
HETATM   20  C   UNL     1     -40.482  53.701 -52.540  1.00  0.00     0.113 C 
BRANCH  20  21
HETATM   21  C   UNL     1     -40.157  52.247 -52.771  1.00  0.00    -0.049 A 
HETATM   22  C   UNL     1     -39.764  51.430 -51.700  1.00  0.00     0.008 A 
HETATM   23  C   UNL     1     -39.482  50.078 -51.905  1.00  0.00     0.001 A 
HETATM   24  C   UNL     1     -39.586  49.530 -53.181  1.00  0.00     0.000 A 
HETATM   25  C   UNL     1     -39.965  50.334 -54.255  1.00  0.00     0.001 A 
HETATM   26  C   UNL     1     -40.246  51.687 -54.053  1.00  0.00     0.008 A 
ENDBRANCH  20  21
ENDBRANCH  19  20
ENDBRANCH  17  19
ENDBRANCH   1  17
TORSDOF 6
ENDMDL
MODEL 3
REMARK VINA RESULT:      -7.1      1.647      2.270
REMARK  6 active torsions:
REMARK  status: ('A' for Active; 'I' for Inactive)
REMARK    1  A    between atoms: C_2  and  S_3 
REMARK    2  A    between atoms: C_2  and  C_11 
REMARK    3  A    between atoms: S_3  and  C_4 
REMARK    4  A    between atoms: C_4  and  C_5 
REMARK       I    between atoms: C_11  and  N_12 
REMARK    5  A    between atoms: N_12  and  C_13 
REMARK    6  A    between atoms: C_15  and  C_16 
ROOT
HETATM    1  C   UNL     1     -42.270  57.930 -51.278  1.00  0.00     0.235 C 
HETATM    2  N   UNL     1     -42.620  56.671 -50.812  1.00  0.00    -0.326 N 
HETATM    3  O   UNL     1     -41.124  58.310 -51.506  1.00  0.00    -0.272 OA
HETATM    4  H   UNL     1     -43.587  56.573 -50.519  1.00  0.00     0.169 HD
ENDROOT
BRANCH   2   5
HETATM    5  C   UNL     1     -41.770  55.569 -50.574  1.00  0.00     0.035 A 
HETATM    6  C   UNL     1     -41.424  54.628 -51.549  1.00  0.00     0.042 A 
HETATM    7  C   UNL     1     -40.584  53.543 -51.246  1.00  0.00    -0.021 A 
HETATM    8  C   UNL     1     -40.100  53.405 -49.940  1.00  0.00     0.012 A 
HETATM    9  C   UNL     1     -40.443  54.336 -48.959  1.00  0.00     0.003 A 
HETATM   10  C   UNL     1     -41.275  55.413 -49.276  1.00  0.00     0.029 A 
BRANCH   7  11
HETATM   11  C   UNL     1     -40.223  52.569 -52.265  1.00  0.00     0.010 A 
HETATM   12  C   UNL     1     -39.516  51.347 -52.174  1.00  0.00     0.152 A 
HETATM   13  N   UNL     1     -39.376  50.738 -53.356  1.00  0.00    -0.187 NA
HETATM   14  N   UNL     1     -39.995  51.568 -54.210  1.00  0.00    -0.289 N 
HETATM   15  H   UNL     1     -40.023  51.316 -55.192  1.00  0.00     0.188 HD
HETATM   16  C   UNL     1     -40.515  52.678 -53.609  1.00  0.00     0.123 A 
ENDBRANCH   7  11
ENDBRANCH   2   5
BRANCH   1  17
HETATM   17  C   UNL     1     -43.490  58.817 -51.600  1.00  0.00     0.135 C 
HETATM   18  C   UNL     1     -44.786  58.114 -51.203  1.00  0.00     0.031 C 
BRANCH  17  19
HETATM   19  S   UNL     1     -43.481  59.284 -53.383  1.00  0.00    -0.150 SA
BRANCH  19  20
HETATM   20  C   UNL     1     -44.709  58.101 -54.021  1.00  0.00     0.113 C 
BRANCH  20  21
HETATM   21  C   UNL     1     -44.057  56.931 -54.714  1.00  0.00    -0.049 A 
HETATM   22  C   UNL     1     -43.510  57.081 -55.997  1.00  0.00     0.008 A 
HETATM   23  C   UNL     1     -42.886  56.007 -56.634  1.00  0.00     0.001 A 
HETATM   24  C   UNL     1     -42.808  54.770 -55.998  1.00  0.00     0.000 A 
HETATM   25  C   UNL     1     -43.359  54.605 -54.728  1.00  0.00     0.001 A 
HETATM   26  C   UNL     1     -43.984  55.678 -54.090  1.00  0.00     0.008 A 
ENDBRANCH  20  21
ENDBRANCH  19  20
ENDBRANCH  17  19
ENDBRANCH   1  17
TORSDOF 6
ENDMDL
MODEL 4
REMARK VINA RESULT:      -7.0      2.595      3.260
REMARK  6 active torsions:
REMARK  status: ('A' for Active; 'I' for Inactive)
REMARK    1  A    between atoms: C_2  and  S_3 
REMARK    2  A    between atoms: C_2  and  C_11 
REMARK    3  A    between atoms: S_3  and  C_4 
REMARK    4  A    between atoms: C_4  and  C_5 
REMARK       I    between atoms: C_11  and  N_12 
REMARK    5  A    between atoms: N_12  and  C_13 
REMARK    6  A    between atoms: C_15  and  C_16 
ROOT
HETATM    1  C   UNL     1     -41.777  57.121 -52.968  1.00  0.00     0.235 C 
HETATM    2  N   UNL     1     -42.158  55.968 -52.295  1.00  0.00    -0.326 N 
HETATM    3  O   UNL     1     -40.624  57.428 -53.256  1.00  0.00    -0.272 OA
HETATM    4  H   UNL     1     -43.126  55.946 -51.990  1.00  0.00     0.169 HD
ENDROOT
BRANCH   2   5
HETATM    5  C   UNL     1     -41.335  54.901 -51.875  1.00  0.00     0.035 A 
HETATM    6  C   UNL     1     -41.110  53.746 -52.631  1.00  0.00     0.042 A 
HETATM    7  C   UNL     1     -40.290  52.710 -52.150  1.00  0.00    -0.021 A 
HETATM    8  C   UNL     1     -39.704  52.843 -50.886  1.00  0.00     0.012 A 
HETATM    9  C   UNL     1     -39.926  53.988 -50.122  1.00  0.00     0.003 A 
HETATM   10  C   UNL     1     -40.738  55.012 -50.615  1.00  0.00     0.029 A 
BRANCH   7  11
HETATM   11  C   UNL     1     -40.056  51.513 -52.943  1.00  0.00     0.010 A 
HETATM   12  C   UNL     1     -39.559  50.240 -52.578  1.00  0.00     0.152 A 
HETATM   13  N   UNL     1     -39.477  49.398 -53.613  1.00  0.00    -0.187 NA
HETATM   14  N   UNL     1     -39.924  50.129 -54.647  1.00  0.00    -0.289 N 
HETATM   15  H   UNL     1     -39.957  49.697 -55.564  1.00  0.00     0.188 HD
HETATM   16  C   UNL     1     -40.278  51.401 -54.299  1.00  0.00     0.123 A 
ENDBRANCH   7  11
ENDBRANCH   2   5
BRANCH   1  17
HETATM   17  C   UNL     1     -42.977  57.971 -53.435  1.00  0.00     0.135 C 
HETATM   18  C   UNL     1     -44.287  57.220 -53.217  1.00  0.00     0.031 C 
BRANCH  17  19
HETATM   19  S   UNL     1     -42.753  58.467 -55.196  1.00  0.00    -0.150 SA
BRANCH  19  20
HETATM   20  C   UNL     1     -42.719  56.824 -55.980  1.00  0.00     0.113 C 
BRANCH  20  21
HETATM   21  C   UNL     1     -42.640  56.918 -57.483  1.00  0.00    -0.049 A 
HETATM   22  C   UNL     1     -42.107  58.062 -58.095  1.00  0.00     0.008 A 
HETATM   23  C   UNL     1     -42.011  58.145 -59.485  1.00  0.00     0.001 A 
HETATM   24  C   UNL     1     -42.453  57.089 -60.278  1.00  0.00     0.000 A 
HETATM   25  C   UNL     1     -42.996  55.952 -59.682  1.00  0.00     0.001 A 
HETATM   26  C   UNL     1     -43.093  55.866 -58.292  1.00  0.00     0.008 A 
ENDBRANCH  20  21
ENDBRANCH  19  20
ENDBRANCH  17  19
ENDBRANCH   1  17
TORSDOF 6
ENDMDL
MODEL 5
REMARK VINA RESULT:      -7.0      2.041      3.837
REMARK  6 active torsions:
REMARK  status: ('A' for Active; 'I' for Inactive)
REMARK    1  A    between atoms: C_2  and  S_3 
REMARK    2  A    between atoms: C_2  and  C_11 
REMARK    3  A    between atoms: S_3  and  C_4 
REMARK    4  A    between atoms: C_4  and  C_5 
REMARK       I    between atoms: C_11  and  N_12 
REMARK    5  A    between atoms: N_12  and  C_13 
REMARK    6  A    between atoms: C_15  and  C_16 
ROOT
HETATM    1  C   UNL     1     -42.967  55.724 -54.398  1.00  0.00     0.235 C 
HETATM    2  N   UNL     1     -41.689  55.736 -53.856  1.00  0.00    -0.326 N 
HETATM    3  O   UNL     1     -43.837  54.892 -54.150  1.00  0.00    -0.272 OA
HETATM    4  H   UNL     1     -41.043  56.389 -54.288  1.00  0.00     0.169 HD
ENDROOT
BRANCH   2   5
HETATM    5  C   UNL     1     -41.156  54.865 -52.881  1.00  0.00     0.035 A 
HETATM    6  C   UNL     1     -40.802  53.537 -53.134  1.00  0.00     0.042 A 
HETATM    7  C   UNL     1     -40.289  52.714 -52.116  1.00  0.00    -0.021 A 
HETATM    8  C   UNL     1     -40.145  53.243 -50.828  1.00  0.00     0.012 A 
HETATM    9  C   UNL     1     -40.500  54.565 -50.564  1.00  0.00     0.003 A 
HETATM   10  C   UNL     1     -41.003  55.372 -51.587  1.00  0.00     0.029 A 
BRANCH   7  11
HETATM   11  C   UNL     1     -39.917  51.333 -52.385  1.00  0.00     0.010 A 
HETATM   12  C   UNL     1     -39.791  50.626 -53.603  1.00  0.00     0.152 A 
HETATM   13  N   UNL     1     -39.436  49.349 -53.428  1.00  0.00    -0.187 NA
HETATM   14  N   UNL     1     -39.333  49.233 -52.095  1.00  0.00    -0.289 N 
HETATM   15  H   UNL     1     -39.069  48.334 -51.708  1.00  0.00     0.188 HD
HETATM   16  C   UNL     1     -39.614  50.390 -51.426  1.00  0.00     0.123 A 
ENDBRANCH   7  11
ENDBRANCH   2   5
BRANCH   1  17
HETATM   17  C   UNL     1     -43.255  56.946 -55.294  1.00  0.00     0.135 C 
HETATM   18  C   UNL     1     -43.384  56.524 -56.755  1.00  0.00     0.031 C 
BRANCH  17  19
HETATM   19  S   UNL     1     -41.947  58.223 -55.060  1.00  0.00    -0.150 SA
BRANCH  19  20
HETATM   20  C   UNL     1     -42.741  59.252 -53.785  1.00  0.00     0.113 C 
BRANCH  20  21
HETATM   21  C   UNL     1     -41.877  59.396 -52.558  1.00  0.00    -0.049 A 
HETATM   22  C   UNL     1     -42.393  59.983 -51.392  1.00  0.00     0.008 A 
HETATM   23  C   UNL     1     -41.604  60.098 -50.246  1.00  0.00     0.001 A 
HETATM   24  C   UNL     1     -40.291  59.634 -50.254  1.00  0.00     0.000 A 
HETATM   25  C   UNL     1     -39.763  59.061 -51.410  1.00  0.00     0.001 A 
HETATM   26  C   UNL     1     -40.550  58.944 -52.557  1.00  0.00     0.008 A 
ENDBRANCH  20  21
ENDBRANCH  19  20
ENDBRANCH  17  19
ENDBRANCH   1  17
TORSDOF 6
ENDMDL
MODEL 6
REMARK VINA RESULT:      -7.0      4.124      7.245
REMARK  6 active torsions:
REMARK  status: ('A' for Active; 'I' for Inactive)
REMARK    1  A    between atoms: C_2  and  S_3 
REMARK    2  A    between atoms: C_2  and  C_11 
REMARK    3  A    between atoms: S_3  and  C_4 
REMARK    4  A    between atoms: C_4  and  C_5 
REMARK       I    between atoms: C_11  and  N_12 
REMARK    5  A    between atoms: N_12  and  C_13 
REMARK    6  A    between atoms: C_15  and  C_16 
ROOT
HETATM    1  C   UNL     1     -42.014  56.742 -53.797  1.00  0.00     0.235 C 
HETATM    2  N   UNL     1     -43.051  57.074 -54.658  1.00  0.00    -0.326 N 
HETATM    3  O   UNL     1     -40.845  56.560 -54.129  1.00  0.00    -0.272 OA
HETATM    4  H   UNL     1     -43.980  57.026 -54.253  1.00  0.00     0.169 HD
ENDROOT
BRANCH   2   5
HETATM    5  C   UNL     1     -42.974  57.336 -56.043  1.00  0.00     0.035 A 
HETATM    6  C   UNL     1     -43.504  56.494 -57.025  1.00  0.00     0.042 A 
HETATM    7  C   UNL     1     -43.382  56.803 -58.391  1.00  0.00    -0.021 A 
HETATM    8  C   UNL     1     -42.706  57.971 -58.763  1.00  0.00     0.012 A 
HETATM    9  C   UNL     1     -42.170  58.815 -57.791  1.00  0.00     0.003 A 
HETATM   10  C   UNL     1     -42.304  58.499 -56.437  1.00  0.00     0.029 A 
BRANCH   7  11
HETATM   11  C   UNL     1     -43.939  55.925 -59.409  1.00  0.00     0.010 A 
HETATM   12  C   UNL     1     -44.337  56.183 -60.742  1.00  0.00     0.152 A 
HETATM   13  N   UNL     1     -44.819  55.101 -61.359  1.00  0.00    -0.187 NA
HETATM   14  N   UNL     1     -44.732  54.142 -60.423  1.00  0.00    -0.289 N 
HETATM   15  H   UNL     1     -45.046  53.207 -60.659  1.00  0.00     0.188 HD
HETATM   16  C   UNL     1     -44.217  54.585 -59.239  1.00  0.00     0.123 A 
ENDBRANCH   7  11
ENDBRANCH   2   5
BRANCH   1  17
HETATM   17  C   UNL     1     -42.442  56.719 -52.316  1.00  0.00     0.135 C 
HETATM   18  C   UNL     1     -41.337  57.285 -51.427  1.00  0.00     0.031 C 
BRANCH  17  19
HETATM   19  S   UNL     1     -42.914  55.008 -51.819  1.00  0.00    -0.150 SA
BRANCH  19  20
HETATM   20  C   UNL     1     -41.307  54.406 -51.212  1.00  0.00     0.113 C 
BRANCH  20  21
HETATM   21  C   UNL     1     -40.750  53.308 -52.083  1.00  0.00    -0.049 A 
HETATM   22  C   UNL     1     -39.816  52.397 -51.566  1.00  0.00     0.008 A 
HETATM   23  C   UNL     1     -39.314  51.367 -52.361  1.00  0.00     0.001 A 
HETATM   24  C   UNL     1     -39.734  51.238 -53.683  1.00  0.00     0.000 A 
HETATM   25  C   UNL     1     -40.652  52.145 -54.212  1.00  0.00     0.001 A 
HETATM   26  C   UNL     1     -41.155  53.177 -53.418  1.00  0.00     0.008 A 
ENDBRANCH  20  21
ENDBRANCH  19  20
ENDBRANCH  17  19
ENDBRANCH   1  17
TORSDOF 6
ENDMDL
MODEL 7
REMARK VINA RESULT:      -6.9      3.168      3.887
REMARK  6 active torsions:
REMARK  status: ('A' for Active; 'I' for Inactive)
REMARK    1  A    between atoms: C_2  and  S_3 
REMARK    2  A    between atoms: C_2  and  C_11 
REMARK    3  A    between atoms: S_3  and  C_4 
REMARK    4  A    between atoms: C_4  and  C_5 
REMARK       I    between atoms: C_11  and  N_12 
REMARK    5  A    between atoms: N_12  and  C_13 
REMARK    6  A    between atoms: C_15  and  C_16 
ROOT
HETATM    1  C   UNL     1     -42.417  55.983 -54.661  1.00  0.00     0.235 C 
HETATM    2  N   UNL     1     -41.249  55.844 -53.924  1.00  0.00    -0.326 N 
HETATM    3  O   UNL     1     -43.364  55.201 -54.646  1.00  0.00    -0.272 OA
HETATM    4  H   UNL     1     -40.502  56.484 -54.175  1.00  0.00     0.169 HD
ENDROOT
BRANCH   2   5
HETATM    5  C   UNL     1     -40.939  54.845 -52.976  1.00  0.00     0.035 A 
HETATM    6  C   UNL     1     -40.571  53.539 -53.313  1.00  0.00     0.042 A 
HETATM    7  C   UNL     1     -40.289  52.584 -52.321  1.00  0.00    -0.021 A 
HETATM    8  C   UNL     1     -40.392  52.956 -50.975  1.00  0.00     0.012 A 
HETATM    9  C   UNL     1     -40.762  54.255 -50.628  1.00  0.00     0.003 A 
HETATM   10  C   UNL     1     -41.035  55.195 -51.625  1.00  0.00     0.029 A 
BRANCH   7  11
HETATM   11  C   UNL     1     -39.902  51.227 -52.677  1.00  0.00     0.010 A 
HETATM   12  C   UNL     1     -39.767  50.600 -53.938  1.00  0.00     0.152 A 
HETATM   13  N   UNL     1     -39.399  49.319 -53.844  1.00  0.00    -0.187 NA
HETATM   14  N   UNL     1     -39.295  49.120 -52.520  1.00  0.00    -0.289 N 
HETATM   15  H   UNL     1     -39.022  48.200 -52.191  1.00  0.00     0.188 HD
HETATM   16  C   UNL     1     -39.589  50.228 -51.780  1.00  0.00     0.123 A 
ENDBRANCH   7  11
ENDBRANCH   2   5
BRANCH   1  17
HETATM   17  C   UNL     1     -42.477  57.304 -55.455  1.00  0.00     0.135 C 
HETATM   18  C   UNL     1     -41.840  58.440 -54.658  1.00  0.00     0.031 C 
BRANCH  17  19
HETATM   19  S   UNL     1     -44.220  57.684 -55.920  1.00  0.00    -0.150 SA
BRANCH  19  20
HETATM   20  C   UNL     1     -43.986  58.122 -57.672  1.00  0.00     0.113 C 
BRANCH  20  21
HETATM   21  C   UNL     1     -44.421  57.011 -58.594  1.00  0.00    -0.049 A 
HETATM   22  C   UNL     1     -45.616  57.119 -59.320  1.00  0.00     0.008 A 
HETATM   23  C   UNL     1     -46.012  56.103 -60.191  1.00  0.00     0.001 A 
HETATM   24  C   UNL     1     -45.222  54.967 -60.342  1.00  0.00     0.000 A 
HETATM   25  C   UNL     1     -44.038  54.842 -59.617  1.00  0.00     0.001 A 
HETATM   26  C   UNL     1     -43.640  55.856 -58.744  1.00  0.00     0.008 A 
ENDBRANCH  20  21
ENDBRANCH  19  20
ENDBRANCH  17  19
ENDBRANCH   1  17
TORSDOF 6
ENDMDL
MODEL 8
REMARK VINA RESULT:      -6.8      4.696      8.908
REMARK  6 active torsions:
REMARK  status: ('A' for Active; 'I' for Inactive)
REMARK    1  A    between atoms: C_2  and  S_3 
REMARK    2  A    between atoms: C_2  and  C_11 
REMARK    3  A    between atoms: S_3  and  C_4 
REMARK    4  A    between atoms: C_4  and  C_5 
REMARK       I    between atoms: C_11  and  N_12 
REMARK    5  A    between atoms: N_12  and  C_13 
REMARK    6  A    between atoms: C_15  and  C_16 
ROOT
HETATM    1  C   UNL     1     -43.059  55.947 -55.806  1.00  0.00     0.235 C 
HETATM    2  N   UNL     1     -42.476  55.930 -57.066  1.00  0.00    -0.326 N 
HETATM    3  O   UNL     1     -43.842  56.799 -55.396  1.00  0.00    -0.272 OA
HETATM    4  H   UNL     1     -41.729  55.254 -57.186  1.00  0.00     0.169 HD
ENDROOT
BRANCH   2   5
HETATM    5  C   UNL     1     -42.705  56.821 -58.136  1.00  0.00     0.035 A 
HETATM    6  C   UNL     1     -42.176  58.114 -58.200  1.00  0.00     0.042 A 
HETATM    7  C   UNL     1     -42.454  58.961 -59.288  1.00  0.00    -0.021 A 
HETATM    8  C   UNL     1     -43.286  58.495 -60.312  1.00  0.00     0.012 A 
HETATM    9  C   UNL     1     -43.823  57.209 -60.255  1.00  0.00     0.003 A 
HETATM   10  C   UNL     1     -43.533  56.377 -59.171  1.00  0.00     0.029 A 
BRANCH   7  11
HETATM   11  C   UNL     1     -41.896  60.303 -59.352  1.00  0.00     0.010 A 
HETATM   12  C   UNL     1     -41.255  61.091 -58.368  1.00  0.00     0.152 A 
HETATM   13  N   UNL     1     -40.892  62.295 -58.822  1.00  0.00    -0.187 NA
HETATM   14  N   UNL     1     -41.299  62.282 -60.101  1.00  0.00    -0.289 N 
HETATM   15  H   UNL     1     -41.132  63.106 -60.668  1.00  0.00     0.188 HD
HETATM   16  C   UNL     1     -41.909  61.117 -60.466  1.00  0.00     0.123 A 
ENDBRANCH   7  11
ENDBRANCH   2   5
BRANCH   1  17
HETATM   17  C   UNL     1     -42.712  54.702 -54.963  1.00  0.00     0.135 C 
HETATM   18  C   UNL     1     -43.249  54.847 -53.542  1.00  0.00     0.031 C 
BRANCH  17  19
HETATM   19  S   UNL     1     -40.892  54.412 -54.983  1.00  0.00    -0.150 SA
BRANCH  19  20
HETATM   20  C   UNL     1     -40.640  53.896 -53.255  1.00  0.00     0.113 C 
BRANCH  20  21
HETATM   21  C   UNL     1     -40.264  52.440 -53.151  1.00  0.00    -0.049 A 
HETATM   22  C   UNL     1     -39.776  51.918 -51.943  1.00  0.00     0.008 A 
HETATM   23  C   UNL     1     -39.447  50.566 -51.834  1.00  0.00     0.001 A 
HETATM   24  C   UNL     1     -39.596  49.723 -52.932  1.00  0.00     0.000 A 
HETATM   25  C   UNL     1     -40.068  50.231 -54.141  1.00  0.00     0.001 A 
HETATM   26  C   UNL     1     -40.398  51.583 -54.252  1.00  0.00     0.008 A 
ENDBRANCH  20  21
ENDBRANCH  19  20
ENDBRANCH  17  19
ENDBRANCH   1  17
TORSDOF 6
ENDMDL
MODEL 9
REMARK VINA RESULT:      -6.7      2.138      3.673
REMARK  6 active torsions:
REMARK  status: ('A' for Active; 'I' for Inactive)
REMARK    1  A    between atoms: C_2  and  S_3 
REMARK    2  A    between atoms: C_2  and  C_11 
REMARK    3  A    between atoms: S_3  and  C_4 
REMARK    4  A    between atoms: C_4  and  C_5 
REMARK       I    between atoms: C_11  and  N_12 
REMARK    5  A    between atoms: N_12  and  C_13 
REMARK    6  A    between atoms: C_15  and  C_16 
ROOT
HETATM    1  C   UNL     1     -42.331  56.881 -52.609  1.00  0.00     0.235 C 
HETATM    2  N   UNL     1     -42.611  55.573 -52.980  1.00  0.00    -0.326 N 
HETATM    3  O   UNL     1     -41.221  57.407 -52.639  1.00  0.00    -0.272 OA
HETATM    4  H   UNL     1     -43.542  55.246 -52.739  1.00  0.00     0.169 HD
ENDROOT
BRANCH   2   5
HETATM    5  C   UNL     1     -41.723  54.619 -53.522  1.00  0.00     0.035 A 
HETATM    6  C   UNL     1     -41.312  53.466 -52.846  1.00  0.00     0.042 A 
HETATM    7  C   UNL     1     -40.412  52.560 -53.434  1.00  0.00    -0.021 A 
HETATM    8  C   UNL     1     -39.917  52.834 -54.714  1.00  0.00     0.012 A 
HETATM    9  C   UNL     1     -40.317  53.984 -55.395  1.00  0.00     0.003 A 
HETATM   10  C   UNL     1     -41.216  54.872 -54.800  1.00  0.00     0.029 A 
BRANCH   7  11
HETATM   11  C   UNL     1     -39.991  51.360 -52.729  1.00  0.00     0.010 A 
HETATM   12  C   UNL     1     -39.655  51.149 -51.370  1.00  0.00     0.152 A 
HETATM   13  N   UNL     1     -39.301  49.887 -51.113  1.00  0.00    -0.187 NA
HETATM   14  N   UNL     1     -39.410  49.281 -52.306  1.00  0.00    -0.289 N 
HETATM   15  H   UNL     1     -39.188  48.294 -52.368  1.00  0.00     0.188 HD
HETATM   16  C   UNL     1     -39.815  50.119 -53.305  1.00  0.00     0.123 A 
ENDBRANCH   7  11
ENDBRANCH   2   5
BRANCH   1  17
HETATM   17  C   UNL     1     -43.593  57.687 -52.238  1.00  0.00     0.135 C 
HETATM   18  C   UNL     1     -44.319  57.041 -51.061  1.00  0.00     0.031 C 
BRANCH  17  19
HETATM   19  S   UNL     1     -44.688  57.860 -53.710  1.00  0.00    -0.150 SA
BRANCH  19  20
HETATM   20  C   UNL     1     -43.703  59.032 -54.696  1.00  0.00     0.113 C 
BRANCH  20  21
HETATM   21  C   UNL     1     -43.265  58.435 -56.010  1.00  0.00    -0.049 A 
HETATM   22  C   UNL     1     -42.425  59.157 -56.872  1.00  0.00     0.008 A 
HETATM   23  C   UNL     1     -42.000  58.600 -58.079  1.00  0.00     0.001 A 
HETATM   24  C   UNL     1     -42.413  57.320 -58.441  1.00  0.00     0.000 A 
HETATM   25  C   UNL     1     -43.258  56.598 -57.599  1.00  0.00     0.001 A 
HETATM   26  C   UNL     1     -43.685  57.153 -56.391  1.00  0.00     0.008 A 
ENDBRANCH  20  21
ENDBRANCH  19  20
ENDBRANCH  17  19
ENDBRANCH   1  17
TORSDOF 6
ENDMDL
MODEL 10
REMARK VINA RESULT:      -6.5      2.478      4.558
REMARK  6 active torsions:
REMARK  status: ('A' for Active; 'I' for Inactive)
REMARK    1  A    between atoms: C_2  and  S_3 
REMARK    2  A    between atoms: C_2  and  C_11 
REMARK    3  A    between atoms: S_3  and  C_4 
REMARK    4  A    between atoms: C_4  and  C_5 
REMARK       I    between atoms: C_11  and  N_12 
REMARK    5  A    between atoms: N_12  and  C_13 
REMARK    6  A    between atoms: C_15  and  C_16 
ROOT
HETATM    1  C   UNL     1     -42.808  55.779 -56.278  1.00  0.00     0.235 C 
HETATM    2  N   UNL     1     -41.887  55.936 -55.252  1.00  0.00    -0.326 N 
HETATM    3  O   UNL     1     -43.251  54.706 -56.678  1.00  0.00    -0.272 OA
HETATM    4  H   UNL     1     -41.502  56.871 -55.157  1.00  0.00     0.169 HD
ENDROOT
BRANCH   2   5
HETATM    5  C   UNL     1     -41.333  54.934 -54.427  1.00  0.00     0.035 A 
HETATM    6  C   UNL     1     -41.349  54.978 -53.029  1.00  0.00     0.042 A 
HETATM    7  C   UNL     1     -40.766  53.955 -52.262  1.00  0.00    -0.021 A 
HETATM    8  C   UNL     1     -40.151  52.884 -52.920  1.00  0.00     0.012 A 
HETATM    9  C   UNL     1     -40.124  52.833 -54.313  1.00  0.00     0.003 A 
HETATM   10  C   UNL     1     -40.713  53.854 -55.063  1.00  0.00     0.029 A 
BRANCH   7  11
HETATM   11  C   UNL     1     -40.791  54.003 -50.808  1.00  0.00     0.010 A 
HETATM   12  C   UNL     1     -40.381  53.057 -49.840  1.00  0.00     0.152 A 
HETATM   13  N   UNL     1     -40.581  53.476 -48.587  1.00  0.00    -0.187 NA
HETATM   14  N   UNL     1     -41.120  54.695 -48.747  1.00  0.00    -0.289 N 
HETATM   15  H   UNL     1     -41.365  55.227 -47.918  1.00  0.00     0.188 HD
HETATM   16  C   UNL     1     -41.269  55.055 -50.055  1.00  0.00     0.123 A 
ENDBRANCH   7  11
ENDBRANCH   2   5
BRANCH   1  17
HETATM   17  C   UNL     1     -43.332  57.121 -56.830  1.00  0.00     0.135 C 
HETATM   18  C   UNL     1     -42.177  57.988 -57.324  1.00  0.00     0.031 C 
BRANCH  17  19
HETATM   19  S   UNL     1     -44.339  57.983 -55.549  1.00  0.00    -0.150 SA
BRANCH  19  20
HETATM   20  C   UNL     1     -43.176  59.302 -55.074  1.00  0.00     0.113 C 
BRANCH  20  21
HETATM   21  C   UNL     1     -42.445  58.977 -53.796  1.00  0.00    -0.049 A 
HETATM   22  C   UNL     1     -41.049  59.095 -53.728  1.00  0.00     0.008 A 
HETATM   23  C   UNL     1     -40.370  58.817 -52.541  1.00  0.00     0.001 A 
HETATM   24  C   UNL     1     -41.077  58.412 -51.412  1.00  0.00     0.000 A 
HETATM   25  C   UNL     1     -42.464  58.278 -51.470  1.00  0.00     0.001 A 
HETATM   26  C   UNL     1     -43.145  58.556 -52.657  1.00  0.00     0.008 A 
ENDBRANCH  20  21
ENDBRANCH  19  20
ENDBRANCH  17  19
ENDBRANCH   1  17
TORSDOF 6
ENDMDL
