MODEL 1
REMARK VINA RESULT:      -8.1      0.000      0.000
REMARK  6 active torsions:
REMARK  status: ('A' for Active; 'I' for Inactive)
REMARK    1  A    between atoms: C_2  and  N_3 
REMARK    2  A    between atoms: C_2  and  C_12 
REMARK       I    between atoms: N_3  and  C_4 
REMARK    3  A    between atoms: C_4  and  C_5 
REMARK    4  A    between atoms: C_12  and  C_13 
REMARK       I    between atoms: C_13  and  N_14 
REMARK    5  A    between atoms: N_14  and  C_15 
REMARK    6  A    between atoms: C_17  and  C_18 
ROOT
HETATM    1  C   UNL     1     -43.008  56.649 -52.120  1.00  0.00     0.224 C 
HETATM    2  N   UNL     1     -41.737  56.180 -52.378  1.00  0.00    -0.327 N 
HETATM    3  O   UNL     1     -43.851  56.128 -51.395  1.00  0.00    -0.273 OA
HETATM    4  H   UNL     1     -41.150  56.793 -52.952  1.00  0.00     0.169 HD
ENDROOT
BRANCH   1   5
HETATM    5  C   UNL     1     -43.299  57.967 -52.820  1.00  0.00     0.128 C 
BRANCH   5   6
HETATM    6  C   UNL     1     -42.231  58.247 -53.892  1.00  0.00     0.089 C 
HETATM    7  C   UNL     1     -41.734  59.691 -53.763  1.00  0.00     0.032 C 
BRANCH   6   8
HETATM    8  N   UNL     1     -42.680  58.026 -55.274  1.00  0.00    -0.352 N 
HETATM    9  C   UNL     1     -42.403  56.880 -55.991  1.00  0.00     0.252 C 
HETATM   10  O   UNL     1     -42.072  55.816 -55.479  1.00  0.00    -0.268 OA
HETATM   11  H   UNL     1     -42.961  58.846 -55.796  1.00  0.00     0.163 HD
BRANCH   9  12
HETATM   12  C   UNL     1     -42.529  56.970 -57.469  1.00  0.00     0.032 A 
HETATM   13  C   UNL     1     -42.104  58.103 -58.175  1.00  0.00     0.017 A 
HETATM   14  C   UNL     1     -42.181  58.123 -59.570  1.00  0.00     0.001 A 
HETATM   15  C   UNL     1     -42.674  57.015 -60.259  1.00  0.00     0.000 A 
HETATM   16  C   UNL     1     -43.086  55.880 -59.559  1.00  0.00     0.001 A 
HETATM   17  C   UNL     1     -43.008  55.855 -58.166  1.00  0.00     0.017 A 
ENDBRANCH   9  12
ENDBRANCH   6   8
ENDBRANCH   5   6
ENDBRANCH   1   5
BRANCH   2  18
HETATM   18  C   UNL     1     -41.110  55.012 -51.909  1.00  0.00     0.035 A 
HETATM   19  C   UNL     1     -40.879  53.873 -52.685  1.00  0.00     0.042 A 
HETATM   20  C   UNL     1     -40.252  52.740 -52.136  1.00  0.00    -0.021 A 
HETATM   21  C   UNL     1     -39.848  52.774 -50.793  1.00  0.00     0.012 A 
HETATM   22  C   UNL     1     -40.074  53.906 -50.013  1.00  0.00     0.003 A 
HETATM   23  C   UNL     1     -40.708  55.015 -50.568  1.00  0.00     0.029 A 
BRANCH  20  24
HETATM   24  C   UNL     1     -40.032  51.537 -52.925  1.00  0.00     0.010 A 
HETATM   25  C   UNL     1     -39.588  50.247 -52.542  1.00  0.00     0.152 A 
HETATM   26  N   UNL     1     -39.504  49.398 -53.571  1.00  0.00    -0.187 NA
HETATM   27  N   UNL     1     -39.899  50.139 -54.618  1.00  0.00    -0.289 N 
HETATM   28  H   UNL     1     -39.923  49.704 -55.533  1.00  0.00     0.188 HD
HETATM   29  C   UNL     1     -40.222  51.422 -54.286  1.00  0.00     0.123 A 
ENDBRANCH  20  24
ENDBRANCH   2  18
TORSDOF 6
ENDMDL
MODEL 2
REMARK VINA RESULT:      -8.0      2.409      7.439
REMARK  6 active torsions:
REMARK  status: ('A' for Active; 'I' for Inactive)
REMARK    1  A    between atoms: C_2  and  N_3 
REMARK    2  A    between atoms: C_2  and  C_12 
REMARK       I    between atoms: N_3  and  C_4 
REMARK    3  A    between atoms: C_4  and  C_5 
REMARK    4  A    between atoms: C_12  and  C_13 
REMARK       I    between atoms: C_13  and  N_14 
REMARK    5  A    between atoms: N_14  and  C_15 
REMARK    6  A    between atoms: C_17  and  C_18 
ROOT
HETATM    1  C   UNL     1     -42.284  57.335 -53.973  1.00  0.00     0.224 C 
HETATM    2  N   UNL     1     -41.875  56.932 -55.226  1.00  0.00    -0.327 N 
HETATM    3  O   UNL     1     -43.232  58.068 -53.709  1.00  0.00    -0.273 OA
HETATM    4  H   UNL     1     -41.105  56.257 -55.242  1.00  0.00     0.169 HD
ENDROOT
BRANCH   1   5
HETATM    5  C   UNL     1     -41.434  56.740 -52.861  1.00  0.00     0.128 C 
BRANCH   5   6
HETATM    6  C   UNL     1     -42.099  55.468 -52.307  1.00  0.00     0.089 C 
HETATM    7  C   UNL     1     -42.608  55.726 -50.885  1.00  0.00     0.032 C 
BRANCH   6   8
HETATM    8  N   UNL     1     -41.229  54.283 -52.287  1.00  0.00    -0.352 N 
HETATM    9  C   UNL     1     -40.791  53.640 -53.427  1.00  0.00     0.252 C 
HETATM   10  O   UNL     1     -40.782  54.153 -54.541  1.00  0.00    -0.268 OA
HETATM   11  H   UNL     1     -41.179  53.773 -51.415  1.00  0.00     0.163 HD
BRANCH   9  12
HETATM   12  C   UNL     1     -40.302  52.247 -53.262  1.00  0.00     0.032 A 
HETATM   13  C   UNL     1     -39.818  51.778 -52.033  1.00  0.00     0.017 A 
HETATM   14  C   UNL     1     -39.427  50.444 -51.903  1.00  0.00     0.001 A 
HETATM   15  C   UNL     1     -39.524  49.577 -52.992  1.00  0.00     0.000 A 
HETATM   16  C   UNL     1     -40.017  50.038 -54.213  1.00  0.00     0.001 A 
HETATM   17  C   UNL     1     -40.412  51.369 -54.346  1.00  0.00     0.017 A 
ENDBRANCH   9  12
ENDBRANCH   6   8
ENDBRANCH   5   6
ENDBRANCH   1   5
BRANCH   2  18
HETATM   18  C   UNL     1     -42.412  57.262 -56.484  1.00  0.00     0.035 A 
HETATM   19  C   UNL     1     -42.992  56.342 -57.361  1.00  0.00     0.042 A 
HETATM   20  C   UNL     1     -43.499  56.754 -58.607  1.00  0.00    -0.021 A 
HETATM   21  C   UNL     1     -43.426  58.111 -58.953  1.00  0.00     0.012 A 
HETATM   22  C   UNL     1     -42.850  59.035 -58.083  1.00  0.00     0.003 A 
HETATM   23  C   UNL     1     -42.341  58.609 -56.859  1.00  0.00     0.029 A 
BRANCH  20  24
HETATM   24  C   UNL     1     -44.079  55.801 -59.543  1.00  0.00     0.010 A 
HETATM   25  C   UNL     1     -44.578  55.981 -60.857  1.00  0.00     0.152 A 
HETATM   26  N   UNL     1     -45.042  54.850 -61.398  1.00  0.00    -0.187 NA
HETATM   27  N   UNL     1     -44.838  53.939 -60.433  1.00  0.00    -0.289 N 
HETATM   28  H   UNL     1     -45.114  52.979 -60.612  1.00  0.00     0.188 HD
HETATM   29  C   UNL     1     -44.270  54.456 -59.306  1.00  0.00     0.123 A 
ENDBRANCH  20  24
ENDBRANCH   2  18
TORSDOF 6
ENDMDL
MODEL 3
REMARK VINA RESULT:      -7.9      2.168      7.174
REMARK  6 active torsions:
REMARK  status: ('A' for Active; 'I' for Inactive)
REMARK    1  A    between atoms: C_2  and  N_3 
REMARK    2  A    between atoms: C_2  and  C_12 
REMARK       I    between atoms: N_3  and  C_4 
REMARK    3  A    between atoms: C_4  and  C_5 
REMARK    4  A    between atoms: C_12  and  C_13 
REMARK       I    between atoms: C_13  and  N_14 
REMARK    5  A    between atoms: N_14  and  C_15 
REMARK    6  A    between atoms: C_17  and  C_18 
ROOT
HETATM    1  C   UNL     1     -41.508  57.460 -52.524  1.00  0.00     0.224 C 
HETATM    2  N   UNL     1     -42.440  56.864 -53.346  1.00  0.00    -0.327 N 
HETATM    3  O   UNL     1     -40.991  58.564 -52.676  1.00  0.00    -0.273 OA
HETATM    4  H   UNL     1     -42.812  55.969 -53.013  1.00  0.00     0.169 HD
ENDROOT
BRANCH   1   5
HETATM    5  C   UNL     1     -41.164  56.607 -51.313  1.00  0.00     0.128 C 
BRANCH   5   6
HETATM    6  C   UNL     1     -41.922  55.270 -51.372  1.00  0.00     0.089 C 
HETATM    7  C   UNL     1     -42.698  55.056 -50.069  1.00  0.00     0.032 C 
BRANCH   6   8
HETATM    8  N   UNL     1     -41.070  54.095 -51.610  1.00  0.00    -0.352 N 
HETATM    9  C   UNL     1     -40.725  53.646 -52.869  1.00  0.00     0.252 C 
HETATM   10  O   UNL     1     -40.789  54.335 -53.882  1.00  0.00    -0.268 OA
HETATM   11  H   UNL     1     -40.964  53.449 -50.840  1.00  0.00     0.163 HD
BRANCH   9  12
HETATM   12  C   UNL     1     -40.247  52.243 -52.970  1.00  0.00     0.032 A 
HETATM   13  C   UNL     1     -39.788  51.541 -51.848  1.00  0.00     0.017 A 
HETATM   14  C   UNL     1     -39.406  50.203 -51.973  1.00  0.00     0.001 A 
HETATM   15  C   UNL     1     -39.487  49.565 -53.211  1.00  0.00     0.000 A 
HETATM   16  C   UNL     1     -39.955  50.259 -54.328  1.00  0.00     0.001 A 
HETATM   17  C   UNL     1     -40.341  51.595 -54.206  1.00  0.00     0.017 A 
ENDBRANCH   9  12
ENDBRANCH   6   8
ENDBRANCH   5   6
ENDBRANCH   1   5
BRANCH   2  18
HETATM   18  C   UNL     1     -43.005  57.344 -54.541  1.00  0.00     0.035 A 
HETATM   19  C   UNL     1     -42.533  57.031 -55.819  1.00  0.00     0.042 A 
HETATM   20  C   UNL     1     -43.151  57.561 -56.966  1.00  0.00    -0.021 A 
HETATM   21  C   UNL     1     -44.262  58.402 -56.809  1.00  0.00     0.012 A 
HETATM   22  C   UNL     1     -44.739  58.718 -55.539  1.00  0.00     0.003 A 
HETATM   23  C   UNL     1     -44.108  58.195 -54.413  1.00  0.00     0.029 A 
BRANCH  20  24
HETATM   24  C   UNL     1     -42.650  57.267 -58.301  1.00  0.00     0.010 A 
HETATM   25  C   UNL     1     -42.881  56.159 -59.153  1.00  0.00     0.152 A 
HETATM   26  N   UNL     1     -42.228  56.250 -60.316  1.00  0.00    -0.187 NA
HETATM   27  N   UNL     1     -41.578  57.421 -60.216  1.00  0.00    -0.289 N 
HETATM   28  H   UNL     1     -41.002  57.719 -60.995  1.00  0.00     0.188 HD
HETATM   29  C   UNL     1     -41.794  58.064 -59.033  1.00  0.00     0.123 A 
ENDBRANCH  20  24
ENDBRANCH   2  18
TORSDOF 6
ENDMDL
MODEL 4
REMARK VINA RESULT:      -7.8      3.050      4.182
REMARK  6 active torsions:
REMARK  status: ('A' for Active; 'I' for Inactive)
REMARK    1  A    between atoms: C_2  and  N_3 
REMARK    2  A    between atoms: C_2  and  C_12 
REMARK       I    between atoms: N_3  and  C_4 
REMARK    3  A    between atoms: C_4  and  C_5 
REMARK    4  A    between atoms: C_12  and  C_13 
REMARK       I    between atoms: C_13  and  N_14 
REMARK    5  A    between atoms: N_14  and  C_15 
REMARK    6  A    between atoms: C_17  and  C_18 
ROOT
HETATM    1  C   UNL     1     -42.657  55.289 -56.231  1.00  0.00     0.224 C 
HETATM    2  N   UNL     1     -41.717  55.581 -55.266  1.00  0.00    -0.327 N 
HETATM    3  O   UNL     1     -43.327  54.265 -56.319  1.00  0.00    -0.273 OA
HETATM    4  H   UNL     1     -41.313  56.521 -55.314  1.00  0.00     0.169 HD
ENDROOT
BRANCH   1   5
HETATM    5  C   UNL     1     -42.840  56.421 -57.231  1.00  0.00     0.128 C 
BRANCH   5   6
HETATM    6  C   UNL     1     -43.448  55.882 -58.537  1.00  0.00     0.089 C 
HETATM    7  C   UNL     1     -42.435  56.027 -59.678  1.00  0.00     0.032 C 
BRANCH   6   8
HETATM    8  N   UNL     1     -44.704  56.530 -58.939  1.00  0.00    -0.352 N 
HETATM    9  C   UNL     1     -45.588  55.983 -59.847  1.00  0.00     0.252 C 
HETATM   10  O   UNL     1     -45.610  54.794 -60.149  1.00  0.00    -0.268 OA
HETATM   11  H   UNL     1     -44.783  57.521 -58.752  1.00  0.00     0.163 HD
BRANCH   9  12
HETATM   12  C   UNL     1     -46.562  56.912 -60.476  1.00  0.00     0.032 A 
HETATM   13  C   UNL     1     -46.504  58.295 -60.258  1.00  0.00     0.017 A 
HETATM   14  C   UNL     1     -47.399  59.141 -60.917  1.00  0.00     0.001 A 
HETATM   15  C   UNL     1     -48.345  58.612 -61.795  1.00  0.00     0.000 A 
HETATM   16  C   UNL     1     -48.397  57.236 -62.023  1.00  0.00     0.001 A 
HETATM   17  C   UNL     1     -47.502  56.388 -61.370  1.00  0.00     0.017 A 
ENDBRANCH   9  12
ENDBRANCH   6   8
ENDBRANCH   5   6
ENDBRANCH   1   5
BRANCH   2  18
HETATM   18  C   UNL     1     -41.285  54.795 -54.181  1.00  0.00     0.035 A 
HETATM   19  C   UNL     1     -40.847  53.473 -54.290  1.00  0.00     0.042 A 
HETATM   20  C   UNL     1     -40.440  52.752 -53.153  1.00  0.00    -0.021 A 
HETATM   21  C   UNL     1     -40.467  53.387 -51.903  1.00  0.00     0.012 A 
HETATM   22  C   UNL     1     -40.902  54.706 -51.786  1.00  0.00     0.003 A 
HETATM   23  C   UNL     1     -41.314  55.402 -52.920  1.00  0.00     0.029 A 
BRANCH  20  24
HETATM   24  C   UNL     1     -40.009  51.364 -53.248  1.00  0.00     0.010 A 
HETATM   25  C   UNL     1     -39.911  50.500 -54.367  1.00  0.00     0.152 A 
HETATM   26  N   UNL     1     -39.476  49.278 -54.045  1.00  0.00    -0.187 NA
HETATM   27  N   UNL     1     -39.290  49.355 -52.717  1.00  0.00    -0.289 N 
HETATM   28  H   UNL     1     -38.952  48.532 -52.231  1.00  0.00     0.188 HD
HETATM   29  C   UNL     1     -39.597  50.577 -52.194  1.00  0.00     0.123 A 
ENDBRANCH  20  24
ENDBRANCH   2  18
TORSDOF 6
ENDMDL
MODEL 5
REMARK VINA RESULT:      -7.8      1.755      2.694
REMARK  6 active torsions:
REMARK  status: ('A' for Active; 'I' for Inactive)
REMARK    1  A    between atoms: C_2  and  N_3 
REMARK    2  A    between atoms: C_2  and  C_12 
REMARK       I    between atoms: N_3  and  C_4 
REMARK    3  A    between atoms: C_4  and  C_5 
REMARK    4  A    between atoms: C_12  and  C_13 
REMARK       I    between atoms: C_13  and  N_14 
REMARK    5  A    between atoms: N_14  and  C_15 
REMARK    6  A    between atoms: C_17  and  C_18 
ROOT
HETATM    1  C   UNL     1     -42.518  56.365 -51.857  1.00  0.00     0.224 C 
HETATM    2  N   UNL     1     -41.246  55.964 -52.207  1.00  0.00    -0.327 N 
HETATM    3  O   UNL     1     -43.573  55.831 -52.184  1.00  0.00    -0.273 OA
HETATM    4  H   UNL     1     -40.483  56.493 -51.775  1.00  0.00     0.169 HD
ENDROOT
BRANCH   1   5
HETATM    5  C   UNL     1     -42.518  57.583 -50.947  1.00  0.00     0.128 C 
BRANCH   5   6
HETATM    6  C   UNL     1     -42.712  58.865 -51.774  1.00  0.00     0.089 C 
HETATM    7  C   UNL     1     -44.002  59.571 -51.342  1.00  0.00     0.032 C 
BRANCH   6   8
HETATM    8  N   UNL     1     -42.759  58.652 -53.228  1.00  0.00    -0.352 N 
HETATM    9  C   UNL     1     -41.770  59.077 -54.092  1.00  0.00     0.252 C 
HETATM   10  O   UNL     1     -40.628  59.354 -53.742  1.00  0.00    -0.268 OA
HETATM   11  H   UNL     1     -43.663  58.434 -53.626  1.00  0.00     0.163 HD
BRANCH   9  12
HETATM   12  C   UNL     1     -42.139  59.188 -55.528  1.00  0.00     0.032 A 
HETATM   13  C   UNL     1     -42.162  60.424 -56.186  1.00  0.00     0.017 A 
HETATM   14  C   UNL     1     -42.453  60.479 -57.552  1.00  0.00     0.001 A 
HETATM   15  C   UNL     1     -42.714  59.306 -58.259  1.00  0.00     0.000 A 
HETATM   16  C   UNL     1     -42.680  58.073 -57.608  1.00  0.00     0.001 A 
HETATM   17  C   UNL     1     -42.386  58.013 -56.245  1.00  0.00     0.017 A 
ENDBRANCH   9  12
ENDBRANCH   6   8
ENDBRANCH   5   6
ENDBRANCH   1   5
BRANCH   2  18
HETATM   18  C   UNL     1     -40.847  54.887 -53.019  1.00  0.00     0.035 A 
HETATM   19  C   UNL     1     -40.568  53.602 -52.545  1.00  0.00     0.042 A 
HETATM   20  C   UNL     1     -40.165  52.581 -53.424  1.00  0.00    -0.021 A 
HETATM   21  C   UNL     1     -40.061  52.867 -54.793  1.00  0.00     0.012 A 
HETATM   22  C   UNL     1     -40.339  54.145 -55.274  1.00  0.00     0.003 A 
HETATM   23  C   UNL     1     -40.724  55.149 -54.388  1.00  0.00     0.029 A 
BRANCH  20  24
HETATM   24  C   UNL     1     -39.842  51.246 -52.939  1.00  0.00     0.010 A 
HETATM   25  C   UNL     1     -39.743  50.011 -53.626  1.00  0.00     0.152 A 
HETATM   26  N   UNL     1     -39.427  48.991 -52.822  1.00  0.00    -0.187 NA
HETATM   27  N   UNL     1     -39.318  49.570 -51.615  1.00  0.00    -0.289 N 
HETATM   28  H   UNL     1     -39.078  48.986 -50.822  1.00  0.00     0.188 HD
HETATM   29  C   UNL     1     -39.560  50.912 -51.632  1.00  0.00     0.123 A 
ENDBRANCH  20  24
ENDBRANCH   2  18
TORSDOF 6
ENDMDL
MODEL 6
REMARK VINA RESULT:      -7.7      1.831      2.463
REMARK  6 active torsions:
REMARK  status: ('A' for Active; 'I' for Inactive)
REMARK    1  A    between atoms: C_2  and  N_3 
REMARK    2  A    between atoms: C_2  and  C_12 
REMARK       I    between atoms: N_3  and  C_4 
REMARK    3  A    between atoms: C_4  and  C_5 
REMARK    4  A    between atoms: C_12  and  C_13 
REMARK       I    between atoms: C_13  and  N_14 
REMARK    5  A    between atoms: N_14  and  C_15 
REMARK    6  A    between atoms: C_17  and  C_18 
ROOT
HETATM    1  C   UNL     1     -41.462  58.214 -50.966  1.00  0.00     0.224 C 
HETATM    2  N   UNL     1     -42.029  57.050 -50.492  1.00  0.00    -0.327 N 
HETATM    3  O   UNL     1     -40.320  58.355 -51.391  1.00  0.00    -0.273 OA
HETATM    4  H   UNL     1     -43.022  57.111 -50.249  1.00  0.00     0.169 HD
ENDROOT
BRANCH   1   5
HETATM    5  C   UNL     1     -42.433  59.385 -50.953  1.00  0.00     0.128 C 
BRANCH   5   6
HETATM    6  C   UNL     1     -43.034  59.592 -52.354  1.00  0.00     0.089 C 
HETATM    7  C   UNL     1     -44.540  59.848 -52.239  1.00  0.00     0.032 C 
BRANCH   6   8
HETATM    8  N   UNL     1     -42.817  58.474 -53.283  1.00  0.00    -0.352 N 
HETATM    9  C   UNL     1     -42.130  58.594 -54.474  1.00  0.00     0.252 C 
HETATM   10  O   UNL     1     -41.354  59.510 -54.727  1.00  0.00    -0.268 OA
HETATM   11  H   UNL     1     -43.420  57.670 -53.173  1.00  0.00     0.163 HD
BRANCH   9  12
HETATM   12  C   UNL     1     -42.360  57.533 -55.489  1.00  0.00     0.032 A 
HETATM   13  C   UNL     1     -42.283  56.174 -55.160  1.00  0.00     0.017 A 
HETATM   14  C   UNL     1     -42.568  55.207 -56.128  1.00  0.00     0.001 A 
HETATM   15  C   UNL     1     -42.935  55.594 -57.417  1.00  0.00     0.000 A 
HETATM   16  C   UNL     1     -43.025  56.948 -57.743  1.00  0.00     0.001 A 
HETATM   17  C   UNL     1     -42.745  57.917 -56.778  1.00  0.00     0.017 A 
ENDBRANCH   9  12
ENDBRANCH   6   8
ENDBRANCH   5   6
ENDBRANCH   1   5
BRANCH   2  18
HETATM   18  C   UNL     1     -41.454  55.773 -50.360  1.00  0.00     0.035 A 
HETATM   19  C   UNL     1     -41.144  54.932 -51.433  1.00  0.00     0.042 A 
HETATM   20  C   UNL     1     -40.577  53.664 -51.214  1.00  0.00    -0.021 A 
HETATM   21  C   UNL     1     -40.315  53.257 -49.898  1.00  0.00     0.012 A 
HETATM   22  C   UNL     1     -40.620  54.089 -48.824  1.00  0.00     0.003 A 
HETATM   23  C   UNL     1     -41.193  55.337 -49.056  1.00  0.00     0.029 A 
BRANCH  20  24
HETATM   24  C   UNL     1     -40.277  52.766 -52.321  1.00  0.00     0.010 A 
HETATM   25  C   UNL     1     -39.535  51.559 -52.358  1.00  0.00     0.152 A 
HETATM   26  N   UNL     1     -39.476  51.022 -53.581  1.00  0.00    -0.187 NA
HETATM   27  N   UNL     1     -40.184  51.880 -54.331  1.00  0.00    -0.289 N 
HETATM   28  H   UNL     1     -40.287  51.682 -55.320  1.00  0.00     0.188 HD
HETATM   29  C   UNL     1     -40.680  52.938 -53.628  1.00  0.00     0.123 A 
ENDBRANCH  20  24
ENDBRANCH   2  18
TORSDOF 6
ENDMDL
MODEL 7
REMARK VINA RESULT:      -7.6      1.643      2.146
REMARK  6 active torsions:
REMARK  status: ('A' for Active; 'I' for Inactive)
REMARK    1  A    between atoms: C_2  and  N_3 
REMARK    2  A    between atoms: C_2  and  C_12 
REMARK       I    between atoms: N_3  and  C_4 
REMARK    3  A    between atoms: C_4  and  C_5 
REMARK    4  A    between atoms: C_12  and  C_13 
REMARK       I    between atoms: C_13  and  N_14 
REMARK    5  A    between atoms: N_14  and  C_15 
REMARK    6  A    between atoms: C_17  and  C_18 
ROOT
HETATM    1  C   UNL     1     -42.616  56.302 -53.391  1.00  0.00     0.224 C 
HETATM    2  N   UNL     1     -42.647  55.391 -52.357  1.00  0.00    -0.327 N 
HETATM    3  O   UNL     1     -41.652  56.578 -54.099  1.00  0.00    -0.273 OA
HETATM    4  H   UNL     1     -43.566  55.243 -51.928  1.00  0.00     0.169 HD
ENDROOT
BRANCH   1   5
HETATM    5  C   UNL     1     -43.964  56.965 -53.628  1.00  0.00     0.128 C 
BRANCH   5   6
HETATM    6  C   UNL     1     -43.943  57.755 -54.949  1.00  0.00     0.089 C 
HETATM    7  C   UNL     1     -45.064  58.798 -54.947  1.00  0.00     0.032 C 
BRANCH   6   8
HETATM    8  N   UNL     1     -44.072  56.927 -56.157  1.00  0.00    -0.352 N 
HETATM    9  C   UNL     1     -43.677  57.344 -57.412  1.00  0.00     0.252 C 
HETATM   10  O   UNL     1     -42.888  58.262 -57.611  1.00  0.00    -0.268 OA
HETATM   11  H   UNL     1     -44.716  56.149 -56.106  1.00  0.00     0.163 HD
BRANCH   9  12
HETATM   12  C   UNL     1     -44.252  56.613 -58.571  1.00  0.00     0.032 A 
HETATM   13  C   UNL     1     -45.194  57.208 -59.420  1.00  0.00     0.017 A 
HETATM   14  C   UNL     1     -45.663  56.509 -60.536  1.00  0.00     0.001 A 
HETATM   15  C   UNL     1     -45.191  55.225 -60.807  1.00  0.00     0.000 A 
HETATM   16  C   UNL     1     -44.243  54.636 -59.969  1.00  0.00     0.001 A 
HETATM   17  C   UNL     1     -43.769  55.331 -58.856  1.00  0.00     0.017 A 
ENDBRANCH   9  12
ENDBRANCH   6   8
ENDBRANCH   5   6
ENDBRANCH   1   5
BRANCH   2  18
HETATM   18  C   UNL     1     -41.610  54.585 -51.853  1.00  0.00     0.035 A 
HETATM   19  C   UNL     1     -41.257  53.337 -52.373  1.00  0.00     0.042 A 
HETATM   20  C   UNL     1     -40.211  52.588 -51.805  1.00  0.00    -0.021 A 
HETATM   21  C   UNL     1     -39.515  53.121 -50.710  1.00  0.00     0.012 A 
HETATM   22  C   UNL     1     -39.860  54.364 -50.185  1.00  0.00     0.003 A 
HETATM   23  C   UNL     1     -40.907  55.088 -50.752  1.00  0.00     0.029 A 
BRANCH  20  24
HETATM   24  C   UNL     1     -39.852  51.274 -52.318  1.00  0.00     0.010 A 
HETATM   25  C   UNL     1     -39.651  50.822 -53.646  1.00  0.00     0.152 A 
HETATM   26  N   UNL     1     -39.335  49.525 -53.713  1.00  0.00    -0.187 NA
HETATM   27  N   UNL     1     -39.327  49.141 -52.427  1.00  0.00    -0.289 N 
HETATM   28  H   UNL     1     -39.107  48.174 -52.215  1.00  0.00     0.188 HD
HETATM   29  C   UNL     1     -39.633  50.146 -51.556  1.00  0.00     0.123 A 
ENDBRANCH  20  24
ENDBRANCH   2  18
TORSDOF 6
ENDMDL
MODEL 8
REMARK VINA RESULT:      -7.6      2.067      4.519
REMARK  6 active torsions:
REMARK  status: ('A' for Active; 'I' for Inactive)
REMARK    1  A    between atoms: C_2  and  N_3 
REMARK    2  A    between atoms: C_2  and  C_12 
REMARK       I    between atoms: N_3  and  C_4 
REMARK    3  A    between atoms: C_4  and  C_5 
REMARK    4  A    between atoms: C_12  and  C_13 
REMARK       I    between atoms: C_13  and  N_14 
REMARK    5  A    between atoms: N_14  and  C_15 
REMARK    6  A    between atoms: C_17  and  C_18 
ROOT
HETATM    1  C   UNL     1     -42.866  55.591 -54.689  1.00  0.00     0.224 C 
HETATM    2  N   UNL     1     -41.609  55.555 -54.123  1.00  0.00    -0.327 N 
HETATM    3  O   UNL     1     -43.816  54.863 -54.417  1.00  0.00    -0.273 OA
HETATM    4  H   UNL     1     -40.968  56.294 -54.427  1.00  0.00     0.169 HD
ENDROOT
BRANCH   1   5
HETATM    5  C   UNL     1     -43.010  56.695 -55.725  1.00  0.00     0.128 C 
BRANCH   5   6
HETATM    6  C   UNL     1     -43.836  57.858 -55.150  1.00  0.00     0.089 C 
HETATM    7  C   UNL     1     -44.015  58.944 -56.217  1.00  0.00     0.032 C 
BRANCH   6   8
HETATM    8  N   UNL     1     -43.265  58.475 -53.944  1.00  0.00    -0.352 N 
HETATM    9  C   UNL     1     -42.029  59.088 -53.914  1.00  0.00     0.252 C 
HETATM   10  O   UNL     1     -41.438  59.485 -54.913  1.00  0.00    -0.268 OA
HETATM   11  H   UNL     1     -43.670  58.200 -53.059  1.00  0.00     0.163 HD
BRANCH   9  12
HETATM   12  C   UNL     1     -41.405  59.268 -52.577  1.00  0.00     0.032 A 
HETATM   13  C   UNL     1     -40.077  58.897 -52.331  1.00  0.00     0.017 A 
HETATM   14  C   UNL     1     -39.508  59.142 -51.078  1.00  0.00     0.001 A 
HETATM   15  C   UNL     1     -40.258  59.759 -50.078  1.00  0.00     0.000 A 
HETATM   16  C   UNL     1     -41.577  60.141 -50.325  1.00  0.00     0.001 A 
HETATM   17  C   UNL     1     -42.148  59.902 -51.575  1.00  0.00     0.017 A 
ENDBRANCH   9  12
ENDBRANCH   6   8
ENDBRANCH   5   6
ENDBRANCH   1   5
BRANCH   2  18
HETATM   18  C   UNL     1     -41.106  54.690 -53.134  1.00  0.00     0.035 A 
HETATM   19  C   UNL     1     -40.720  53.367 -53.366  1.00  0.00     0.042 A 
HETATM   20  C   UNL     1     -40.233  52.564 -52.318  1.00  0.00    -0.021 A 
HETATM   21  C   UNL     1     -40.128  53.117 -51.033  1.00  0.00     0.012 A 
HETATM   22  C   UNL     1     -40.510  54.436 -50.795  1.00  0.00     0.003 A 
HETATM   23  C   UNL     1     -41.002  55.214 -51.841  1.00  0.00     0.029 A 
BRANCH  20  24
HETATM   24  C   UNL     1     -39.856  51.175 -52.539  1.00  0.00     0.010 A 
HETATM   25  C   UNL     1     -39.712  50.435 -53.738  1.00  0.00     0.152 A 
HETATM   26  N   UNL     1     -39.354  49.165 -53.527  1.00  0.00    -0.187 NA
HETATM   27  N   UNL     1     -39.262  49.087 -52.190  1.00  0.00    -0.289 N 
HETATM   28  H   UNL     1     -38.996  48.200 -51.777  1.00  0.00     0.188 HD
HETATM   29  C   UNL     1     -39.556  50.258 -51.555  1.00  0.00     0.123 A 
ENDBRANCH  20  24
ENDBRANCH   2  18
TORSDOF 6
ENDMDL
MODEL 9
REMARK VINA RESULT:      -7.6      2.457      5.166
REMARK  6 active torsions:
REMARK  status: ('A' for Active; 'I' for Inactive)
REMARK    1  A    between atoms: C_2  and  N_3 
REMARK    2  A    between atoms: C_2  and  C_12 
REMARK       I    between atoms: N_3  and  C_4 
REMARK    3  A    between atoms: C_4  and  C_5 
REMARK    4  A    between atoms: C_12  and  C_13 
REMARK       I    between atoms: C_13  and  N_14 
REMARK    5  A    between atoms: N_14  and  C_15 
REMARK    6  A    between atoms: C_17  and  C_18 
ROOT
HETATM    1  C   UNL     1     -42.612  54.735 -55.946  1.00  0.00     0.224 C 
HETATM    2  N   UNL     1     -41.337  54.605 -55.440  1.00  0.00    -0.327 N 
HETATM    3  O   UNL     1     -43.641  54.255 -55.479  1.00  0.00    -0.273 OA
HETATM    4  H   UNL     1     -40.613  55.142 -55.927  1.00  0.00     0.169 HD
ENDROOT
BRANCH   1   5
HETATM    5  C   UNL     1     -42.662  55.602 -57.194  1.00  0.00     0.128 C 
BRANCH   5   6
HETATM    6  C   UNL     1     -43.338  56.948 -56.880  1.00  0.00     0.089 C 
HETATM    7  C   UNL     1     -42.386  58.098 -57.224  1.00  0.00     0.032 C 
BRANCH   6   8
HETATM    8  N   UNL     1     -43.774  57.101 -55.485  1.00  0.00    -0.352 N 
HETATM    9  C   UNL     1     -44.805  57.932 -55.095  1.00  0.00     0.252 C 
HETATM   10  O   UNL     1     -45.668  58.354 -55.857  1.00  0.00    -0.268 OA
HETATM   11  H   UNL     1     -43.125  56.798 -54.771  1.00  0.00     0.163 HD
BRANCH   9  12
HETATM   12  C   UNL     1     -44.848  58.317 -53.660  1.00  0.00     0.032 A 
HETATM   13  C   UNL     1     -45.300  59.577 -53.251  1.00  0.00     0.017 A 
HETATM   14  C   UNL     1     -45.385  59.877 -51.889  1.00  0.00     0.001 A 
HETATM   15  C   UNL     1     -45.026  58.922 -50.939  1.00  0.00     0.000 A 
HETATM   16  C   UNL     1     -44.586  57.661 -51.344  1.00  0.00     0.001 A 
HETATM   17  C   UNL     1     -44.504  57.356 -52.703  1.00  0.00     0.017 A 
ENDBRANCH   9  12
ENDBRANCH   6   8
ENDBRANCH   5   6
ENDBRANCH   1   5
BRANCH   2  18
HETATM   18  C   UNL     1     -40.900  53.896 -54.306  1.00  0.00     0.035 A 
HETATM   19  C   UNL     1     -41.086  54.323 -52.988  1.00  0.00     0.042 A 
HETATM   20  C   UNL     1     -40.609  53.557 -51.909  1.00  0.00    -0.021 A 
HETATM   21  C   UNL     1     -39.952  52.347 -52.174  1.00  0.00     0.012 A 
HETATM   22  C   UNL     1     -39.764  51.915 -53.485  1.00  0.00     0.003 A 
HETATM   23  C   UNL     1     -40.230  52.690 -54.544  1.00  0.00     0.029 A 
BRANCH  20  24
HETATM   24  C   UNL     1     -40.769  54.005 -50.532  1.00  0.00     0.010 A 
HETATM   25  C   UNL     1     -40.425  53.378 -49.309  1.00  0.00     0.152 A 
HETATM   26  N   UNL     1     -40.743  54.112 -48.239  1.00  0.00    -0.187 NA
HETATM   27  N   UNL     1     -41.289  55.217 -48.772  1.00  0.00    -0.289 N 
HETATM   28  H   UNL     1     -41.614  55.943 -48.144  1.00  0.00     0.188 HD
HETATM   29  C   UNL     1     -41.331  55.200 -50.135  1.00  0.00     0.123 A 
ENDBRANCH  20  24
ENDBRANCH   2  18
TORSDOF 6
ENDMDL
MODEL 10
REMARK VINA RESULT:      -7.6      2.671      3.915
REMARK  6 active torsions:
REMARK  status: ('A' for Active; 'I' for Inactive)
REMARK    1  A    between atoms: C_2  and  N_3 
REMARK    2  A    between atoms: C_2  and  C_12 
REMARK       I    between atoms: N_3  and  C_4 
REMARK    3  A    between atoms: C_4  and  C_5 
REMARK    4  A    between atoms: C_12  and  C_13 
REMARK       I    between atoms: C_13  and  N_14 
REMARK    5  A    between atoms: N_14  and  C_15 
REMARK    6  A    between atoms: C_17  and  C_18 
ROOT
HETATM    1  C   UNL     1     -41.710  58.170 -54.505  1.00  0.00     0.224 C 
HETATM    2  N   UNL     1     -42.101  56.849 -54.544  1.00  0.00    -0.327 N 
HETATM    3  O   UNL     1     -40.772  58.640 -53.868  1.00  0.00    -0.273 OA
HETATM    4  H   UNL     1     -42.863  56.634 -55.194  1.00  0.00     0.169 HD
ENDROOT
BRANCH   1   5
HETATM    5  C   UNL     1     -42.563  59.060 -55.395  1.00  0.00     0.128 C 
BRANCH   5   6
HETATM    6  C   UNL     1     -42.270  58.768 -56.877  1.00  0.00     0.089 C 
HETATM    7  C   UNL     1     -41.832  60.056 -57.581  1.00  0.00     0.032 C 
BRANCH   6   8
HETATM    8  N   UNL     1     -43.398  58.187 -57.619  1.00  0.00    -0.352 N 
HETATM    9  C   UNL     1     -43.470  56.856 -57.976  1.00  0.00     0.252 C 
HETATM   10  O   UNL     1     -42.811  55.968 -57.445  1.00  0.00    -0.268 OA
HETATM   11  H   UNL     1     -43.998  58.835 -58.112  1.00  0.00     0.163 HD
BRANCH   9  12
HETATM   12  C   UNL     1     -44.415  56.507 -59.069  1.00  0.00     0.032 A 
HETATM   13  C   UNL     1     -44.177  55.428 -59.930  1.00  0.00     0.017 A 
HETATM   14  C   UNL     1     -45.121  55.094 -60.904  1.00  0.00     0.001 A 
HETATM   15  C   UNL     1     -46.301  55.830 -61.016  1.00  0.00     0.000 A 
HETATM   16  C   UNL     1     -46.545  56.897 -60.152  1.00  0.00     0.001 A 
HETATM   17  C   UNL     1     -45.607  57.232 -59.175  1.00  0.00     0.017 A 
ENDBRANCH   9  12
ENDBRANCH   6   8
ENDBRANCH   5   6
ENDBRANCH   1   5
BRANCH   2  18
HETATM   18  C   UNL     1     -41.555  55.741 -53.870  1.00  0.00     0.035 A 
HETATM   19  C   UNL     1     -41.516  55.604 -52.480  1.00  0.00     0.042 A 
HETATM   20  C   UNL     1     -40.943  54.466 -51.884  1.00  0.00    -0.021 A 
HETATM   21  C   UNL     1     -40.420  53.459 -52.708  1.00  0.00     0.012 A 
HETATM   22  C   UNL     1     -40.457  53.588 -54.095  1.00  0.00     0.003 A 
HETATM   23  C   UNL     1     -41.016  54.727 -54.670  1.00  0.00     0.029 A 
BRANCH  20  24
HETATM   24  C   UNL     1     -40.869  54.324 -50.436  1.00  0.00     0.010 A 
HETATM   25  C   UNL     1     -41.142  55.251 -49.400  1.00  0.00     0.152 A 
HETATM   26  N   UNL     1     -40.946  54.742 -48.180  1.00  0.00    -0.187 NA
HETATM   27  N   UNL     1     -40.551  53.483 -48.429  1.00  0.00    -0.289 N 
HETATM   28  H   UNL     1     -40.340  52.881 -47.641  1.00  0.00     0.188 HD
HETATM   29  C   UNL     1     -40.485  53.186 -49.759  1.00  0.00     0.123 A 
ENDBRANCH  20  24
ENDBRANCH   2  18
TORSDOF 6
ENDMDL
