MODEL 1
REMARK VINA RESULT:      -9.1      0.000      0.000
REMARK  5 active torsions:
REMARK  status: ('A' for Active; 'I' for Inactive)
REMARK    1  A    between atoms: N_3  and  C_4 
REMARK    2  A    between atoms: C_6  and  C_7 
REMARK    3  A    between atoms: C_15  and  C_16 
REMARK       I    between atoms: C_16  and  N_17 
REMARK    4  A    between atoms: N_17  and  N_18 
REMARK       I    between atoms: N_18  and  C_19 
REMARK    5  A    between atoms: C_19  and  C_20 
ROOT
HETATM    1  C   UNL     1     -39.856  54.283 -48.937  1.00  0.00     0.070 C 
HETATM    2  C   UNL     1     -40.643  54.823 -50.109  1.00  0.00     0.036 C 
HETATM    3  N   UNL     1     -40.763  54.081 -51.294  1.00  0.00    -0.238 N 
HETATM    4  N   UNL     1     -41.191  54.636 -52.479  1.00  0.00    -0.158 NA
HETATM    5  C   UNL     1     -41.684  55.842 -52.469  1.00  0.00     0.196 C 
HETATM    6  C   UNL     1     -41.806  56.613 -51.185  1.00  0.00     0.209 C 
HETATM    7  O   UNL     1     -42.435  57.661 -51.152  1.00  0.00    -0.286 OA
HETATM    8  C   UNL     1     -41.137  56.067 -50.003  1.00  0.00     0.084 C 
ENDROOT
BRANCH   5   9
HETATM    9  C   UNL     1     -42.116  56.423 -53.807  1.00  0.00     0.294 C 
HETATM   10  N   UNL     1     -41.475  55.913 -54.920  1.00  0.00    -0.261 N 
HETATM   11  H   UNL     1     -40.935  55.040 -54.883  1.00  0.00     0.190 HD
HETATM   12  O   UNL     1     -42.985  57.287 -53.864  1.00  0.00    -0.264 OA
BRANCH  10  13
HETATM   13  N   UNL     1     -41.939  56.317 -56.180  1.00  0.00    -0.262 N 
HETATM   14  C   UNL     1     -42.822  55.509 -56.864  1.00  0.00     0.286 C 
HETATM   15  O   UNL     1     -43.149  54.399 -56.445  1.00  0.00    -0.264 OA
HETATM   16  H   UNL     1     -41.751  57.279 -56.450  1.00  0.00     0.190 HD
BRANCH  14  17
HETATM   17  C   UNL     1     -43.338  56.056 -58.100  1.00  0.00     0.102 A 
HETATM   18  N   UNL     1     -44.443  56.884 -58.109  1.00  0.00    -0.361 N 
HETATM   19  H   UNL     1     -44.949  57.154 -57.274  1.00  0.00     0.165 HD
HETATM   20  C   UNL     1     -44.738  57.269 -59.389  1.00  0.00     0.088 A 
HETATM   21  C   UNL     1     -43.818  56.686 -60.227  1.00  0.00     0.019 A 
HETATM   22  C   UNL     1     -42.937  55.923 -59.420  1.00  0.00     0.036 A 
ENDBRANCH  14  17
ENDBRANCH  10  13
ENDBRANCH   5   9
BRANCH   3  23
HETATM   23  C   UNL     1     -40.408  52.701 -51.434  1.00  0.00     0.059 A 
HETATM   24  C   UNL     1     -40.231  52.143 -52.715  1.00  0.00     0.047 A 
HETATM   25  C   UNL     1     -39.903  50.788 -52.892  1.00  0.00     0.050 A 
HETATM   26  C   UNL     1     -39.746  49.976 -51.762  1.00  0.00     0.016 A 
HETATM   27  C   UNL     1     -39.943  50.501 -50.486  1.00  0.00     0.003 A 
HETATM   28  C   UNL     1     -40.280  51.848 -50.327  1.00  0.00     0.031 A 
BRANCH  25  29
HETATM   29  C   UNL     1     -39.694  50.218 -54.273  1.00  0.00     0.417 C 
HETATM   30  F   UNL     1     -40.746  49.488 -54.733  1.00  0.00    -0.166 F 
HETATM   31  F   UNL     1     -39.478  51.189 -55.203  1.00  0.00    -0.166 F 
HETATM   32  F   UNL     1     -38.611  49.392 -54.341  1.00  0.00    -0.166 F 
ENDBRANCH  25  29
ENDBRANCH   3  23
TORSDOF 5
ENDMDL
MODEL 2
REMARK VINA RESULT:      -9.1      2.066      2.393
REMARK  5 active torsions:
REMARK  status: ('A' for Active; 'I' for Inactive)
REMARK    1  A    between atoms: N_3  and  C_4 
REMARK    2  A    between atoms: C_6  and  C_7 
REMARK    3  A    between atoms: C_15  and  C_16 
REMARK       I    between atoms: C_16  and  N_17 
REMARK    4  A    between atoms: N_17  and  N_18 
REMARK       I    between atoms: N_18  and  C_19 
REMARK    5  A    between atoms: C_19  and  C_20 
ROOT
HETATM    1  C   UNL     1     -39.655  54.355 -49.214  1.00  0.00     0.070 C 
HETATM    2  C   UNL     1     -40.701  54.723 -50.240  1.00  0.00     0.036 C 
HETATM    3  N   UNL     1     -40.964  53.878 -51.329  1.00  0.00    -0.238 N 
HETATM    4  N   UNL     1     -41.664  54.293 -52.440  1.00  0.00    -0.158 NA
HETATM    5  C   UNL     1     -42.269  55.445 -52.411  1.00  0.00     0.196 C 
HETATM    6  C   UNL     1     -42.227  56.306 -51.179  1.00  0.00     0.209 C 
HETATM    7  O   UNL     1     -42.944  57.291 -51.090  1.00  0.00    -0.286 OA
HETATM    8  C   UNL     1     -41.294  55.921 -50.119  1.00  0.00     0.084 C 
ENDROOT
BRANCH   5   9
HETATM    9  C   UNL     1     -43.004  55.873 -53.672  1.00  0.00     0.294 C 
HETATM   10  N   UNL     1     -44.367  56.054 -53.542  1.00  0.00    -0.261 N 
HETATM   11  H   UNL     1     -44.819  56.143 -52.625  1.00  0.00     0.190 HD
HETATM   12  O   UNL     1     -42.396  56.043 -54.724  1.00  0.00    -0.264 OA
BRANCH  10  13
HETATM   13  N   UNL     1     -45.061  56.583 -54.641  1.00  0.00    -0.262 N 
HETATM   14  C   UNL     1     -45.145  57.951 -54.791  1.00  0.00     0.286 C 
HETATM   15  O   UNL     1     -44.707  58.727 -53.942  1.00  0.00    -0.264 OA
HETATM   16  H   UNL     1     -45.308  55.932 -55.382  1.00  0.00     0.190 HD
BRANCH  14  17
HETATM   17  C   UNL     1     -45.775  58.407 -56.010  1.00  0.00     0.102 A 
HETATM   18  N   UNL     1     -46.805  57.695 -56.593  1.00  0.00    -0.361 N 
HETATM   19  H   UNL     1     -47.174  56.831 -56.214  1.00  0.00     0.165 HD
HETATM   20  C   UNL     1     -47.231  58.321 -57.732  1.00  0.00     0.088 A 
HETATM   21  C   UNL     1     -46.474  59.455 -57.898  1.00  0.00     0.019 A 
HETATM   22  C   UNL     1     -45.557  59.512 -56.818  1.00  0.00     0.036 A 
ENDBRANCH  14  17
ENDBRANCH  10  13
ENDBRANCH   5   9
BRANCH   3  23
HETATM   23  C   UNL     1     -40.499  52.529 -51.448  1.00  0.00     0.059 A 
HETATM   24  C   UNL     1     -40.269  51.970 -52.720  1.00  0.00     0.047 A 
HETATM   25  C   UNL     1     -39.833  50.644 -52.878  1.00  0.00     0.050 A 
HETATM   26  C   UNL     1     -39.620  49.861 -51.735  1.00  0.00     0.016 A 
HETATM   27  C   UNL     1     -39.867  50.385 -50.468  1.00  0.00     0.003 A 
HETATM   28  C   UNL     1     -40.312  51.704 -50.329  1.00  0.00     0.031 A 
BRANCH  25  29
HETATM   29  C   UNL     1     -39.570  50.073 -54.249  1.00  0.00     0.417 C 
HETATM   30  F   UNL     1     -38.538  49.187 -54.289  1.00  0.00    -0.166 F 
HETATM   31  F   UNL     1     -40.652  49.411 -54.746  1.00  0.00    -0.166 F 
HETATM   32  F   UNL     1     -39.271  51.035 -55.168  1.00  0.00    -0.166 F 
ENDBRANCH  25  29
ENDBRANCH   3  23
TORSDOF 5
ENDMDL
MODEL 3
REMARK VINA RESULT:      -8.9      3.451      3.895
REMARK  5 active torsions:
REMARK  status: ('A' for Active; 'I' for Inactive)
REMARK    1  A    between atoms: N_3  and  C_4 
REMARK    2  A    between atoms: C_6  and  C_7 
REMARK    3  A    between atoms: C_15  and  C_16 
REMARK       I    between atoms: C_16  and  N_17 
REMARK    4  A    between atoms: N_17  and  N_18 
REMARK       I    between atoms: N_18  and  C_19 
REMARK    5  A    between atoms: C_19  and  C_20 
ROOT
HETATM    1  C   UNL     1     -43.888  55.270 -50.327  1.00  0.00     0.070 C 
HETATM    2  C   UNL     1     -43.490  56.173 -51.472  1.00  0.00     0.036 C 
HETATM    3  N   UNL     1     -42.261  55.999 -52.127  1.00  0.00    -0.238 N 
HETATM    4  N   UNL     1     -41.715  56.960 -52.948  1.00  0.00    -0.158 NA
HETATM    5  C   UNL     1     -42.440  57.987 -53.288  1.00  0.00     0.196 C 
HETATM    6  C   UNL     1     -43.859  58.119 -52.811  1.00  0.00     0.209 C 
HETATM    7  O   UNL     1     -44.590  58.980 -53.277  1.00  0.00    -0.286 OA
HETATM    8  C   UNL     1     -44.310  57.193 -51.770  1.00  0.00     0.084 C 
ENDROOT
BRANCH   5   9
HETATM    9  C   UNL     1     -41.783  59.035 -54.173  1.00  0.00     0.294 C 
HETATM   10  N   UNL     1     -42.392  59.261 -55.392  1.00  0.00    -0.261 N 
HETATM   11  H   UNL     1     -43.347  58.941 -55.589  1.00  0.00     0.190 HD
HETATM   12  O   UNL     1     -40.777  59.630 -53.799  1.00  0.00    -0.264 OA
BRANCH  10  13
HETATM   13  N   UNL     1     -41.904  60.316 -56.178  1.00  0.00    -0.262 N 
HETATM   14  C   UNL     1     -41.708  60.116 -57.528  1.00  0.00     0.286 C 
HETATM   15  O   UNL     1     -41.863  59.014 -58.052  1.00  0.00    -0.264 OA
HETATM   16  H   UNL     1     -41.897  61.239 -55.751  1.00  0.00     0.190 HD
BRANCH  14  17
HETATM   17  C   UNL     1     -41.316  61.287 -58.280  1.00  0.00     0.102 A 
HETATM   18  N   UNL     1     -40.958  62.460 -57.644  1.00  0.00    -0.361 N 
HETATM   19  H   UNL     1     -40.948  62.571 -56.637  1.00  0.00     0.165 HD
HETATM   20  C   UNL     1     -40.632  63.419 -58.563  1.00  0.00     0.088 A 
HETATM   21  C   UNL     1     -40.778  62.871 -59.815  1.00  0.00     0.019 A 
HETATM   22  C   UNL     1     -41.208  61.531 -59.640  1.00  0.00     0.036 A 
ENDBRANCH  14  17
ENDBRANCH  10  13
ENDBRANCH   5   9
BRANCH   3  23
HETATM   23  C   UNL     1     -41.411  54.857 -51.980  1.00  0.00     0.059 A 
HETATM   24  C   UNL     1     -41.211  53.981 -53.064  1.00  0.00     0.047 A 
HETATM   25  C   UNL     1     -40.401  52.838 -52.952  1.00  0.00     0.050 A 
HETATM   26  C   UNL     1     -39.776  52.569 -51.728  1.00  0.00     0.016 A 
HETATM   27  C   UNL     1     -39.982  53.408 -50.634  1.00  0.00     0.003 A 
HETATM   28  C   UNL     1     -40.800  54.534 -50.759  1.00  0.00     0.031 A 
BRANCH  25  29
HETATM   29  C   UNL     1     -40.182  51.927 -54.134  1.00  0.00     0.417 C 
HETATM   30  F   UNL     1     -41.256  51.150 -54.439  1.00  0.00    -0.166 F 
HETATM   31  F   UNL     1     -39.887  52.620 -55.270  1.00  0.00    -0.166 F 
HETATM   32  F   UNL     1     -39.142  51.065 -53.946  1.00  0.00    -0.166 F 
ENDBRANCH  25  29
ENDBRANCH   3  23
TORSDOF 5
ENDMDL
MODEL 4
REMARK VINA RESULT:      -8.8      3.602      6.006
REMARK  5 active torsions:
REMARK  status: ('A' for Active; 'I' for Inactive)
REMARK    1  A    between atoms: N_3  and  C_4 
REMARK    2  A    between atoms: C_6  and  C_7 
REMARK    3  A    between atoms: C_15  and  C_16 
REMARK       I    between atoms: C_16  and  N_17 
REMARK    4  A    between atoms: N_17  and  N_18 
REMARK       I    between atoms: N_18  and  C_19 
REMARK    5  A    between atoms: C_19  and  C_20 
ROOT
HETATM    1  C   UNL     1     -40.386  54.085 -55.403  1.00  0.00     0.070 C 
HETATM    2  C   UNL     1     -40.748  55.132 -54.374  1.00  0.00     0.036 C 
HETATM    3  N   UNL     1     -40.903  54.784 -53.024  1.00  0.00    -0.238 N 
HETATM    4  N   UNL     1     -41.523  55.608 -52.110  1.00  0.00    -0.158 NA
HETATM    5  C   UNL     1     -41.808  56.831 -52.456  1.00  0.00     0.196 C 
HETATM    6  C   UNL     1     -41.452  57.349 -53.822  1.00  0.00     0.209 C 
HETATM    7  O   UNL     1     -41.551  58.540 -54.075  1.00  0.00    -0.286 OA
HETATM    8  C   UNL     1     -41.002  56.374 -54.816  1.00  0.00     0.084 C 
ENDROOT
BRANCH   5   9
HETATM    9  C   UNL     1     -42.519  57.693 -51.423  1.00  0.00     0.294 C 
HETATM   10  N   UNL     1     -41.784  58.744 -50.909  1.00  0.00    -0.261 N 
HETATM   11  H   UNL     1     -40.924  59.077 -51.359  1.00  0.00     0.190 HD
HETATM   12  O   UNL     1     -43.674  57.449 -51.091  1.00  0.00    -0.264 OA
BRANCH  10  13
HETATM   13  N   UNL     1     -42.444  59.646 -50.062  1.00  0.00    -0.262 N 
HETATM   14  C   UNL     1     -42.929  60.828 -50.581  1.00  0.00     0.286 C 
HETATM   15  O   UNL     1     -42.722  61.160 -51.748  1.00  0.00    -0.264 OA
HETATM   16  H   UNL     1     -42.704  59.302 -49.141  1.00  0.00     0.190 HD
BRANCH  14  17
HETATM   17  C   UNL     1     -43.696  61.643 -49.665  1.00  0.00     0.102 A 
HETATM   18  N   UNL     1     -44.384  61.078 -48.610  1.00  0.00    -0.361 N 
HETATM   19  H   UNL     1     -44.395  60.084 -48.415  1.00  0.00     0.165 HD
HETATM   20  C   UNL     1     -45.032  62.046 -47.892  1.00  0.00     0.088 A 
HETATM   21  C   UNL     1     -44.767  63.258 -48.483  1.00  0.00     0.019 A 
HETATM   22  C   UNL     1     -43.927  63.008 -49.598  1.00  0.00     0.036 A 
ENDBRANCH  14  17
ENDBRANCH  10  13
ENDBRANCH   5   9
BRANCH   3  23
HETATM   23  C   UNL     1     -40.503  53.535 -52.450  1.00  0.00     0.059 A 
HETATM   24  C   UNL     1     -40.287  52.415 -53.276  1.00  0.00     0.047 A 
HETATM   25  C   UNL     1     -39.915  51.167 -52.748  1.00  0.00     0.050 A 
HETATM   26  C   UNL     1     -39.753  51.040 -51.362  1.00  0.00     0.016 A 
HETATM   27  C   UNL     1     -39.988  52.128 -50.524  1.00  0.00     0.003 A 
HETATM   28  C   UNL     1     -40.369  53.360 -51.064  1.00  0.00     0.031 A 
BRANCH  25  29
HETATM   29  C   UNL     1     -39.665  49.987 -53.653  1.00  0.00     0.417 C 
HETATM   30  F   UNL     1     -39.404  48.828 -52.990  1.00  0.00    -0.166 F 
HETATM   31  F   UNL     1     -40.731  49.724 -54.461  1.00  0.00    -0.166 F 
HETATM   32  F   UNL     1     -38.606  50.183 -54.490  1.00  0.00    -0.166 F 
ENDBRANCH  25  29
ENDBRANCH   3  23
TORSDOF 5
ENDMDL
MODEL 5
REMARK VINA RESULT:      -8.7      1.811      2.411
REMARK  5 active torsions:
REMARK  status: ('A' for Active; 'I' for Inactive)
REMARK    1  A    between atoms: N_3  and  C_4 
REMARK    2  A    between atoms: C_6  and  C_7 
REMARK    3  A    between atoms: C_15  and  C_16 
REMARK       I    between atoms: C_16  and  N_17 
REMARK    4  A    between atoms: N_17  and  N_18 
REMARK       I    between atoms: N_18  and  C_19 
REMARK    5  A    between atoms: C_19  and  C_20 
ROOT
HETATM    1  C   UNL     1     -40.080  54.578 -49.951  1.00  0.00     0.070 C 
HETATM    2  C   UNL     1     -40.985  55.178 -51.003  1.00  0.00     0.036 C 
HETATM    3  N   UNL     1     -41.101  54.585 -52.269  1.00  0.00    -0.238 N 
HETATM    4  N   UNL     1     -41.651  55.240 -53.349  1.00  0.00    -0.158 NA
HETATM    5  C   UNL     1     -42.260  56.375 -53.154  1.00  0.00     0.196 C 
HETATM    6  C   UNL     1     -42.382  56.957 -51.774  1.00  0.00     0.209 C 
HETATM    7  O   UNL     1     -43.108  57.919 -51.572  1.00  0.00    -0.286 OA
HETATM    8  C   UNL     1     -41.593  56.338 -50.708  1.00  0.00     0.084 C 
ENDROOT
BRANCH   5   9
HETATM    9  C   UNL     1     -42.826  57.075 -54.381  1.00  0.00     0.294 C 
HETATM   10  N   UNL     1     -43.676  56.320 -55.166  1.00  0.00    -0.261 N 
HETATM   11  H   UNL     1     -44.097  55.447 -54.826  1.00  0.00     0.190 HD
HETATM   12  O   UNL     1     -42.531  58.239 -54.630  1.00  0.00    -0.264 OA
BRANCH  10  13
HETATM   13  N   UNL     1     -44.330  56.966 -56.225  1.00  0.00    -0.262 N 
HETATM   14  C   UNL     1     -43.870  56.785 -57.512  1.00  0.00     0.286 C 
HETATM   15  O   UNL     1     -42.848  56.144 -57.755  1.00  0.00    -0.264 OA
HETATM   16  H   UNL     1     -45.231  57.389 -56.017  1.00  0.00     0.190 HD
BRANCH  14  17
HETATM   17  C   UNL     1     -44.672  57.392 -58.551  1.00  0.00     0.102 A 
HETATM   18  N   UNL     1     -45.966  56.976 -58.792  1.00  0.00    -0.361 N 
HETATM   19  H   UNL     1     -46.425  56.238 -58.270  1.00  0.00     0.165 HD
HETATM   20  C   UNL     1     -46.514  57.695 -59.819  1.00  0.00     0.088 A 
HETATM   21  C   UNL     1     -45.570  58.592 -60.257  1.00  0.00     0.019 A 
HETATM   22  C   UNL     1     -44.410  58.404 -59.462  1.00  0.00     0.036 A 
ENDBRANCH  14  17
ENDBRANCH  10  13
ENDBRANCH   5   9
BRANCH   3  23
HETATM   23  C   UNL     1     -40.619  53.281 -52.609  1.00  0.00     0.059 A 
HETATM   24  C   UNL     1     -40.418  52.317 -51.602  1.00  0.00     0.047 A 
HETATM   25  C   UNL     1     -39.926  51.034 -51.893  1.00  0.00     0.050 A 
HETATM   26  C   UNL     1     -39.631  50.708 -53.223  1.00  0.00     0.016 A 
HETATM   27  C   UNL     1     -39.797  51.655 -54.232  1.00  0.00     0.003 A 
HETATM   28  C   UNL     1     -40.277  52.931 -53.924  1.00  0.00     0.031 A 
BRANCH  25  29
HETATM   29  C   UNL     1     -39.741  50.009 -50.801  1.00  0.00     0.417 C 
HETATM   30  F   UNL     1     -40.436  48.857 -51.003  1.00  0.00    -0.166 F 
HETATM   31  F   UNL     1     -38.437  49.640 -50.659  1.00  0.00    -0.166 F 
HETATM   32  F   UNL     1     -40.131  50.470 -49.579  1.00  0.00    -0.166 F 
ENDBRANCH  25  29
ENDBRANCH   3  23
TORSDOF 5
ENDMDL
MODEL 6
REMARK VINA RESULT:      -8.7      1.830      2.662
REMARK  5 active torsions:
REMARK  status: ('A' for Active; 'I' for Inactive)
REMARK    1  A    between atoms: N_3  and  C_4 
REMARK    2  A    between atoms: C_6  and  C_7 
REMARK    3  A    between atoms: C_15  and  C_16 
REMARK       I    between atoms: C_16  and  N_17 
REMARK    4  A    between atoms: N_17  and  N_18 
REMARK       I    between atoms: N_18  and  C_19 
REMARK    5  A    between atoms: C_19  and  C_20 
ROOT
HETATM    1  C   UNL     1     -40.388  57.540 -50.575  1.00  0.00     0.070 C 
HETATM    2  C   UNL     1     -41.575  57.488 -51.509  1.00  0.00     0.036 C 
HETATM    3  N   UNL     1     -41.866  56.322 -52.233  1.00  0.00    -0.238 N 
HETATM    4  N   UNL     1     -42.724  56.309 -53.310  1.00  0.00    -0.158 NA
HETATM    5  C   UNL     1     -43.442  57.368 -53.556  1.00  0.00     0.196 C 
HETATM    6  C   UNL     1     -43.355  58.580 -52.672  1.00  0.00     0.209 C 
HETATM    7  O   UNL     1     -44.159  59.493 -52.795  1.00  0.00    -0.286 OA
HETATM    8  C   UNL     1     -42.275  58.620 -51.685  1.00  0.00     0.084 C 
ENDROOT
BRANCH   5   9
HETATM    9  C   UNL     1     -44.354  57.317 -54.773  1.00  0.00     0.294 C 
HETATM   10  N   UNL     1     -43.730  57.452 -55.998  1.00  0.00    -0.261 N 
HETATM   11  H   UNL     1     -42.715  57.343 -56.106  1.00  0.00     0.190 HD
HETATM   12  O   UNL     1     -45.563  57.160 -54.644  1.00  0.00    -0.264 OA
BRANCH  10  13
HETATM   13  N   UNL     1     -44.510  57.270 -57.149  1.00  0.00    -0.262 N 
HETATM   14  C   UNL     1     -43.989  56.565 -58.213  1.00  0.00     0.286 C 
HETATM   15  O   UNL     1     -42.826  56.165 -58.222  1.00  0.00    -0.264 OA
HETATM   16  H   UNL     1     -45.498  57.503 -57.074  1.00  0.00     0.190 HD
BRANCH  14  17
HETATM   17  C   UNL     1     -44.902  56.325 -59.309  1.00  0.00     0.102 A 
HETATM   18  N   UNL     1     -46.259  56.532 -59.168  1.00  0.00    -0.361 N 
HETATM   19  H   UNL     1     -46.691  56.856 -58.310  1.00  0.00     0.165 HD
HETATM   20  C   UNL     1     -46.910  56.236 -60.334  1.00  0.00     0.088 A 
HETATM   21  C   UNL     1     -45.970  55.830 -61.250  1.00  0.00     0.019 A 
HETATM   22  C   UNL     1     -44.706  55.885 -60.609  1.00  0.00     0.036 A 
ENDBRANCH  14  17
ENDBRANCH  10  13
ENDBRANCH   5   9
BRANCH   3  23
HETATM   23  C   UNL     1     -41.276  55.040 -51.989  1.00  0.00     0.059 A 
HETATM   24  C   UNL     1     -40.974  54.185 -53.067  1.00  0.00     0.047 A 
HETATM   25  C   UNL     1     -40.414  52.912 -52.867  1.00  0.00     0.050 A 
HETATM   26  C   UNL     1     -40.149  52.487 -51.558  1.00  0.00     0.016 A 
HETATM   27  C   UNL     1     -40.464  53.307 -50.476  1.00  0.00     0.003 A 
HETATM   28  C   UNL     1     -41.031  54.566 -50.692  1.00  0.00     0.031 A 
BRANCH  25  29
HETATM   29  C   UNL     1     -40.077  52.022 -54.037  1.00  0.00     0.417 C 
HETATM   30  F   UNL     1     -38.942  51.292 -53.866  1.00  0.00    -0.166 F 
HETATM   31  F   UNL     1     -41.065  51.121 -54.300  1.00  0.00    -0.166 F 
HETATM   32  F   UNL     1     -39.898  52.722 -55.194  1.00  0.00    -0.166 F 
ENDBRANCH  25  29
ENDBRANCH   3  23
TORSDOF 5
ENDMDL
MODEL 7
REMARK VINA RESULT:      -8.7      4.396      7.196
REMARK  5 active torsions:
REMARK  status: ('A' for Active; 'I' for Inactive)
REMARK    1  A    between atoms: N_3  and  C_4 
REMARK    2  A    between atoms: C_6  and  C_7 
REMARK    3  A    between atoms: C_15  and  C_16 
REMARK       I    between atoms: C_16  and  N_17 
REMARK    4  A    between atoms: N_17  and  N_18 
REMARK       I    between atoms: N_18  and  C_19 
REMARK    5  A    between atoms: C_19  and  C_20 
ROOT
HETATM    1  C   UNL     1     -41.780  56.004 -55.237  1.00  0.00     0.070 C 
HETATM    2  C   UNL     1     -41.636  56.998 -54.107  1.00  0.00     0.036 C 
HETATM    3  N   UNL     1     -41.414  56.559 -52.793  1.00  0.00    -0.238 N 
HETATM    4  N   UNL     1     -41.583  57.377 -51.698  1.00  0.00    -0.158 NA
HETATM    5  C   UNL     1     -41.768  58.653 -51.886  1.00  0.00     0.196 C 
HETATM    6  C   UNL     1     -41.779  59.233 -53.272  1.00  0.00     0.209 C 
HETATM    7  O   UNL     1     -41.767  60.444 -53.434  1.00  0.00    -0.286 OA
HETATM    8  C   UNL     1     -41.819  58.296 -54.396  1.00  0.00     0.084 C 
ENDROOT
BRANCH   5   9
HETATM    9  C   UNL     1     -41.979  59.510 -50.647  1.00  0.00     0.294 C 
HETATM   10  N   UNL     1     -43.241  60.051 -50.497  1.00  0.00    -0.261 N 
HETATM   11  H   UNL     1     -44.046  59.708 -51.032  1.00  0.00     0.190 HD
HETATM   12  O   UNL     1     -41.067  59.689 -49.846  1.00  0.00    -0.264 OA
BRANCH  10  13
HETATM   13  N   UNL     1     -43.520  60.731 -49.302  1.00  0.00    -0.262 N 
HETATM   14  C   UNL     1     -44.812  60.749 -48.823  1.00  0.00     0.286 C 
HETATM   15  O   UNL     1     -45.749  60.264 -49.456  1.00  0.00    -0.264 OA
HETATM   16  H   UNL     1     -42.721  61.018 -48.742  1.00  0.00     0.190 HD
BRANCH  14  17
HETATM   17  C   UNL     1     -44.988  61.370 -47.528  1.00  0.00     0.102 A 
HETATM   18  N   UNL     1     -44.647  60.710 -46.365  1.00  0.00    -0.361 N 
HETATM   19  H   UNL     1     -44.262  59.772 -46.345  1.00  0.00     0.165 HD
HETATM   20  C   UNL     1     -44.906  61.497 -45.277  1.00  0.00     0.088 A 
HETATM   21  C   UNL     1     -45.423  62.687 -45.731  1.00  0.00     0.019 A 
HETATM   22  C   UNL     1     -45.476  62.610 -47.146  1.00  0.00     0.036 A 
ENDBRANCH  14  17
ENDBRANCH  10  13
ENDBRANCH   5   9
BRANCH   3  23
HETATM   23  C   UNL     1     -41.054  55.223 -52.426  1.00  0.00     0.059 A 
HETATM   24  C   UNL     1     -40.792  54.263 -53.424  1.00  0.00     0.047 A 
HETATM   25  C   UNL     1     -40.456  52.937 -53.104  1.00  0.00     0.050 A 
HETATM   26  C   UNL     1     -40.380  52.564 -51.756  1.00  0.00     0.016 A 
HETATM   27  C   UNL     1     -40.662  53.490 -50.753  1.00  0.00     0.003 A 
HETATM   28  C   UNL     1     -41.006  54.803 -51.089  1.00  0.00     0.031 A 
BRANCH  25  29
HETATM   29  C   UNL     1     -40.155  51.932 -54.188  1.00  0.00     0.417 C 
HETATM   30  F   UNL     1     -41.166  51.052 -54.420  1.00  0.00    -0.166 F 
HETATM   31  F   UNL     1     -39.897  52.530 -55.385  1.00  0.00    -0.166 F 
HETATM   32  F   UNL     1     -39.058  51.172 -53.909  1.00  0.00    -0.166 F 
ENDBRANCH  25  29
ENDBRANCH   3  23
TORSDOF 5
ENDMDL
MODEL 8
REMARK VINA RESULT:      -8.2      2.382      2.774
REMARK  5 active torsions:
REMARK  status: ('A' for Active; 'I' for Inactive)
REMARK    1  A    between atoms: N_3  and  C_4 
REMARK    2  A    between atoms: C_6  and  C_7 
REMARK    3  A    between atoms: C_15  and  C_16 
REMARK       I    between atoms: C_16  and  N_17 
REMARK    4  A    between atoms: N_17  and  N_18 
REMARK       I    between atoms: N_18  and  C_19 
REMARK    5  A    between atoms: C_19  and  C_20 
ROOT
HETATM    1  C   UNL     1     -40.692  54.237 -49.498  1.00  0.00     0.070 C 
HETATM    2  C   UNL     1     -41.083  55.192 -50.602  1.00  0.00     0.036 C 
HETATM    3  N   UNL     1     -40.870  54.857 -51.948  1.00  0.00    -0.238 N 
HETATM    4  N   UNL     1     -40.914  55.787 -52.962  1.00  0.00    -0.158 NA
HETATM    5  C   UNL     1     -41.355  56.985 -52.700  1.00  0.00     0.196 C 
HETATM    6  C   UNL     1     -41.828  57.347 -51.320  1.00  0.00     0.209 C 
HETATM    7  O   UNL     1     -42.409  58.404 -51.125  1.00  0.00    -0.286 OA
HETATM    8  C   UNL     1     -41.552  56.397 -50.241  1.00  0.00     0.084 C 
ENDROOT
BRANCH   5   9
HETATM    9  C   UNL     1     -41.357  57.986 -53.846  1.00  0.00     0.294 C 
HETATM   10  N   UNL     1     -42.173  57.674 -54.916  1.00  0.00    -0.261 N 
HETATM   11  H   UNL     1     -42.910  56.963 -54.847  1.00  0.00     0.190 HD
HETATM   12  O   UNL     1     -40.669  59.000 -53.793  1.00  0.00    -0.264 OA
BRANCH  10  13
HETATM   13  N   UNL     1     -42.314  58.635 -55.928  1.00  0.00    -0.262 N 
HETATM   14  C   UNL     1     -42.500  58.220 -57.230  1.00  0.00     0.286 C 
HETATM   15  O   UNL     1     -42.458  57.032 -57.547  1.00  0.00    -0.264 OA
HETATM   16  H   UNL     1     -42.463  59.596 -55.630  1.00  0.00     0.190 HD
BRANCH  14  17
HETATM   17  C   UNL     1     -42.753  59.273 -58.189  1.00  0.00     0.102 A 
HETATM   18  N   UNL     1     -43.721  60.230 -57.962  1.00  0.00    -0.361 N 
HETATM   19  H   UNL     1     -44.302  60.255 -57.132  1.00  0.00     0.165 HD
HETATM   20  C   UNL     1     -43.774  61.111 -59.007  1.00  0.00     0.088 A 
HETATM   21  C   UNL     1     -42.830  60.728 -59.929  1.00  0.00     0.019 A 
HETATM   22  C   UNL     1     -42.186  59.573 -59.418  1.00  0.00     0.036 A 
ENDBRANCH  14  17
ENDBRANCH  10  13
ENDBRANCH   5   9
BRANCH   3  23
HETATM   23  C   UNL     1     -40.527  53.549 -52.420  1.00  0.00     0.059 A 
HETATM   24  C   UNL     1     -40.292  52.506 -51.503  1.00  0.00     0.047 A 
HETATM   25  C   UNL     1     -39.933  51.216 -51.928  1.00  0.00     0.050 A 
HETATM   26  C   UNL     1     -39.809  50.964 -53.300  1.00  0.00     0.016 A 
HETATM   27  C   UNL     1     -40.011  51.989 -54.223  1.00  0.00     0.003 A 
HETATM   28  C   UNL     1     -40.357  53.270 -53.784  1.00  0.00     0.031 A 
BRANCH  25  29
HETATM   29  C   UNL     1     -39.709  50.107 -50.929  1.00  0.00     0.417 C 
HETATM   30  F   UNL     1     -40.181  50.383 -49.683  1.00  0.00    -0.166 F 
HETATM   31  F   UNL     1     -40.311  48.945 -51.308  1.00  0.00    -0.166 F 
HETATM   32  F   UNL     1     -38.389  49.805 -50.768  1.00  0.00    -0.166 F 
ENDBRANCH  25  29
ENDBRANCH   3  23
TORSDOF 5
ENDMDL
MODEL 9
REMARK VINA RESULT:      -8.2      1.431      1.765
REMARK  5 active torsions:
REMARK  status: ('A' for Active; 'I' for Inactive)
REMARK    1  A    between atoms: N_3  and  C_4 
REMARK    2  A    between atoms: C_6  and  C_7 
REMARK    3  A    between atoms: C_15  and  C_16 
REMARK       I    between atoms: C_16  and  N_17 
REMARK    4  A    between atoms: N_17  and  N_18 
REMARK       I    between atoms: N_18  and  C_19 
REMARK    5  A    between atoms: C_19  and  C_20 
ROOT
HETATM    1  C   UNL     1     -39.940  54.568 -49.274  1.00  0.00     0.070 C 
HETATM    2  C   UNL     1     -40.842  54.957 -50.423  1.00  0.00     0.036 C 
HETATM    3  N   UNL     1     -40.973  54.123 -51.544  1.00  0.00    -0.238 N 
HETATM    4  N   UNL     1     -41.520  54.555 -52.732  1.00  0.00    -0.158 NA
HETATM    5  C   UNL     1     -42.113  55.714 -52.769  1.00  0.00     0.196 C 
HETATM    6  C   UNL     1     -42.220  56.564 -51.534  1.00  0.00     0.209 C 
HETATM    7  O   UNL     1     -42.933  57.556 -51.528  1.00  0.00    -0.286 OA
HETATM    8  C   UNL     1     -41.434  56.161 -50.367  1.00  0.00     0.084 C 
ENDROOT
BRANCH   5   9
HETATM    9  C   UNL     1     -42.676  56.159 -54.110  1.00  0.00     0.294 C 
HETATM   10  N   UNL     1     -41.801  56.838 -54.934  1.00  0.00    -0.261 N 
HETATM   11  H   UNL     1     -40.786  56.828 -54.776  1.00  0.00     0.190 HD
HETATM   12  O   UNL     1     -43.839  55.913 -54.414  1.00  0.00    -0.264 OA
BRANCH  10  13
HETATM   13  N   UNL     1     -42.234  57.143 -56.233  1.00  0.00    -0.262 N 
HETATM   14  C   UNL     1     -42.122  58.438 -56.695  1.00  0.00     0.286 C 
HETATM   15  O   UNL     1     -41.737  59.356 -55.972  1.00  0.00    -0.264 OA
HETATM   16  H   UNL     1     -42.435  56.356 -56.845  1.00  0.00     0.190 HD
BRANCH  14  17
HETATM   17  C   UNL     1     -42.482  58.637 -58.081  1.00  0.00     0.102 A 
HETATM   18  N   UNL     1     -43.424  59.578 -58.448  1.00  0.00    -0.361 N 
HETATM   19  H   UNL     1     -43.910  60.172 -57.786  1.00  0.00     0.165 HD
HETATM   20  C   UNL     1     -43.595  59.577 -59.805  1.00  0.00     0.088 A 
HETATM   21  C   UNL     1     -42.756  58.626 -60.335  1.00  0.00     0.019 A 
HETATM   22  C   UNL     1     -42.055  58.033 -59.254  1.00  0.00     0.036 A 
ENDBRANCH  14  17
ENDBRANCH  10  13
ENDBRANCH   5   9
BRANCH   3  23
HETATM   23  C   UNL     1     -40.509  52.770 -51.615  1.00  0.00     0.059 A 
HETATM   24  C   UNL     1     -40.309  52.156 -52.867  1.00  0.00     0.047 A 
HETATM   25  C   UNL     1     -39.876  50.824 -52.977  1.00  0.00     0.050 A 
HETATM   26  C   UNL     1     -39.636  50.092 -51.807  1.00  0.00     0.016 A 
HETATM   27  C   UNL     1     -39.853  50.671 -50.558  1.00  0.00     0.003 A 
HETATM   28  C   UNL     1     -40.296  51.994 -50.466  1.00  0.00     0.031 A 
BRANCH  25  29
HETATM   29  C   UNL     1     -39.645  50.195 -54.328  1.00  0.00     0.417 C 
HETATM   30  F   UNL     1     -38.545  49.397 -54.384  1.00  0.00    -0.166 F 
HETATM   31  F   UNL     1     -40.693  49.416 -54.718  1.00  0.00    -0.166 F 
HETATM   32  F   UNL     1     -39.484  51.120 -55.317  1.00  0.00    -0.166 F 
ENDBRANCH  25  29
ENDBRANCH   3  23
TORSDOF 5
ENDMDL
MODEL 10
REMARK VINA RESULT:      -8.1      6.174      7.271
REMARK  5 active torsions:
REMARK  status: ('A' for Active; 'I' for Inactive)
REMARK    1  A    between atoms: N_3  and  C_4 
REMARK    2  A    between atoms: C_6  and  C_7 
REMARK    3  A    between atoms: C_15  and  C_16 
REMARK       I    between atoms: C_16  and  N_17 
REMARK    4  A    between atoms: N_17  and  N_18 
REMARK       I    between atoms: N_18  and  C_19 
REMARK    5  A    between atoms: C_19  and  C_20 
ROOT
HETATM    1  C   UNL     1     -40.546  58.375 -53.118  1.00  0.00     0.070 C 
HETATM    2  C   UNL     1     -41.851  58.862 -52.532  1.00  0.00     0.036 C 
HETATM    3  N   UNL     1     -42.803  57.950 -52.049  1.00  0.00    -0.238 N 
HETATM    4  N   UNL     1     -44.110  58.304 -51.798  1.00  0.00    -0.158 NA
HETATM    5  C   UNL     1     -44.439  59.564 -51.822  1.00  0.00     0.196 C 
HETATM    6  C   UNL     1     -43.409  60.623 -52.101  1.00  0.00     0.209 C 
HETATM    7  O   UNL     1     -43.679  61.804 -51.941  1.00  0.00    -0.286 OA
HETATM    8  C   UNL     1     -42.097  60.181 -52.577  1.00  0.00     0.084 C 
ENDROOT
BRANCH   5   9
HETATM    9  C   UNL     1     -45.900  59.903 -51.567  1.00  0.00     0.294 C 
HETATM   10  N   UNL     1     -46.429  60.911 -52.348  1.00  0.00    -0.261 N 
HETATM   11  H   UNL     1     -45.963  61.238 -53.203  1.00  0.00     0.190 HD
HETATM   12  O   UNL     1     -46.544  59.297 -50.716  1.00  0.00    -0.264 OA
BRANCH  10  13
HETATM   13  N   UNL     1     -47.806  61.159 -52.246  1.00  0.00    -0.262 N 
HETATM   14  C   UNL     1     -48.371  62.154 -53.014  1.00  0.00     0.286 C 
HETATM   15  O   UNL     1     -47.691  62.894 -53.724  1.00  0.00    -0.264 OA
HETATM   16  H   UNL     1     -48.360  60.465 -51.749  1.00  0.00     0.190 HD
BRANCH  14  17
HETATM   17  C   UNL     1     -49.811  62.263 -52.932  1.00  0.00     0.102 A 
HETATM   18  N   UNL     1     -50.634  61.478 -53.715  1.00  0.00    -0.361 N 
HETATM   19  H   UNL     1     -50.290  60.794 -54.379  1.00  0.00     0.165 HD
HETATM   20  C   UNL     1     -51.947  61.764 -53.461  1.00  0.00     0.088 A 
HETATM   21  C   UNL     1     -51.986  62.747 -52.501  1.00  0.00     0.019 A 
HETATM   22  C   UNL     1     -50.645  63.063 -52.167  1.00  0.00     0.036 A 
ENDBRANCH  14  17
ENDBRANCH  10  13
ENDBRANCH   5   9
BRANCH   3  23
HETATM   23  C   UNL     1     -42.560  56.558 -51.822  1.00  0.00     0.059 A 
HETATM   24  C   UNL     1     -41.761  56.148 -50.736  1.00  0.00     0.047 A 
HETATM   25  C   UNL     1     -41.482  54.793 -50.492  1.00  0.00     0.050 A 
HETATM   26  C   UNL     1     -42.017  53.827 -51.354  1.00  0.00     0.016 A 
HETATM   27  C   UNL     1     -42.787  54.211 -52.450  1.00  0.00     0.003 A 
HETATM   28  C   UNL     1     -43.046  55.565 -52.685  1.00  0.00     0.031 A 
BRANCH  25  29
HETATM   29  C   UNL     1     -40.645  54.376 -49.309  1.00  0.00     0.417 C 
HETATM   30  F   UNL     1     -39.319  54.649 -49.448  1.00  0.00    -0.166 F 
HETATM   31  F   UNL     1     -41.035  54.994 -48.160  1.00  0.00    -0.166 F 
HETATM   32  F   UNL     1     -40.725  53.039 -49.056  1.00  0.00    -0.166 F 
ENDBRANCH  25  29
ENDBRANCH   3  23
TORSDOF 5
ENDMDL
