MODEL 1
REMARK VINA RESULT:      -8.1      0.000      0.000
REMARK  3 active torsions:
REMARK  status: ('A' for Active; 'I' for Inactive)
REMARK    1  A    between atoms: C_2  and  C_3 
REMARK    2  A    between atoms: C_4  and  N_5 
REMARK    3  A    between atoms: C_18  and  C_19 
ROOT
HETATM    1  N   UNL     1     -42.257  55.485 -51.659  1.00  0.00    -0.320 N 
HETATM    2  C   UNL     1     -43.587  55.599 -51.182  1.00  0.00     0.141 C 
HETATM    3  N   UNL     1     -44.268  54.581 -50.740  1.00  0.00    -0.380 N 
HETATM    4  H   UNL     1     -45.220  54.712 -50.430  1.00  0.00     0.158 HD
HETATM    5  H   UNL     1     -43.838  53.666 -50.736  1.00  0.00     0.158 HD
HETATM    6  S   UNL     1     -44.216  57.189 -51.308  1.00  0.00    -0.086 SA
HETATM    7  C   UNL     1     -42.837  57.708 -52.422  1.00  0.00     0.093 C 
HETATM    8  C   UNL     1     -41.652  56.767 -52.080  1.00  0.00     0.121 C 
HETATM    9  C   UNL     1     -42.415  59.159 -52.267  1.00  0.00     0.158 C 
HETATM   10  S   UNL     1     -40.855  59.139 -51.412  1.00  0.00     0.147 S 
HETATM   11  O   UNL     1     -40.957  59.939 -50.213  1.00  0.00    -0.228 OA
HETATM   12  O   UNL     1     -39.806  59.329 -52.392  1.00  0.00    -0.228 OA
HETATM   13  C   UNL     1     -40.864  57.429 -50.958  1.00  0.00     0.167 C 
ENDROOT
BRANCH   1  14
HETATM   14  C   UNL     1     -41.422  54.351 -51.650  1.00  0.00     0.049 A 
HETATM   15  C   UNL     1     -41.190  53.636 -52.861  1.00  0.00    -0.031 A 
HETATM   16  C   UNL     1     -40.313  52.539 -52.850  1.00  0.00     0.009 A 
HETATM   17  C   UNL     1     -39.735  52.096 -51.667  1.00  0.00     0.001 A 
HETATM   18  C   UNL     1     -40.010  52.751 -50.473  1.00  0.00     0.009 A 
HETATM   19  C   UNL     1     -40.830  53.893 -50.439  1.00  0.00    -0.031 A 
BRANCH  15  20
HETATM   20  C   UNL     1     -41.854  54.031 -54.170  1.00  0.00     0.036 C 
HETATM   21  C   UNL     1     -40.903  54.425 -55.298  1.00  0.00     0.010 C 
ENDBRANCH  15  20
BRANCH  19  22
HETATM   22  C   UNL     1     -41.089  54.564 -49.099  1.00  0.00     0.036 C 
HETATM   23  C   UNL     1     -40.314  54.000 -47.911  1.00  0.00     0.010 C 
ENDBRANCH  19  22
ENDBRANCH   1  14
TORSDOF 3
ENDMDL
MODEL 2
REMARK VINA RESULT:      -8.0      0.169      2.978
REMARK  3 active torsions:
REMARK  status: ('A' for Active; 'I' for Inactive)
REMARK    1  A    between atoms: C_2  and  C_3 
REMARK    2  A    between atoms: C_4  and  N_5 
REMARK    3  A    between atoms: C_18  and  C_19 
ROOT
HETATM    1  N   UNL     1     -42.227  55.410 -51.655  1.00  0.00    -0.320 N 
HETATM    2  C   UNL     1     -43.565  55.532 -51.206  1.00  0.00     0.141 C 
HETATM    3  N   UNL     1     -44.266  54.515 -50.791  1.00  0.00    -0.380 N 
HETATM    4  H   UNL     1     -45.223  54.653 -50.500  1.00  0.00     0.158 HD
HETATM    5  H   UNL     1     -43.846  53.596 -50.790  1.00  0.00     0.158 HD
HETATM    6  S   UNL     1     -44.175  57.129 -51.325  1.00  0.00    -0.086 SA
HETATM    7  C   UNL     1     -42.767  57.648 -52.402  1.00  0.00     0.093 C 
HETATM    8  C   UNL     1     -41.600  56.691 -52.046  1.00  0.00     0.121 C 
HETATM    9  C   UNL     1     -42.333  59.092 -52.220  1.00  0.00     0.158 C 
HETATM   10  S   UNL     1     -40.793  59.046 -51.332  1.00  0.00     0.147 S 
HETATM   11  O   UNL     1     -40.913  59.832 -50.125  1.00  0.00    -0.228 OA
HETATM   12  O   UNL     1     -39.721  59.237 -52.286  1.00  0.00    -0.228 OA
HETATM   13  C   UNL     1     -40.830  57.330 -50.900  1.00  0.00     0.167 C 
ENDROOT
BRANCH   1  14
HETATM   14  C   UNL     1     -41.404  54.267 -51.643  1.00  0.00     0.049 A 
HETATM   15  C   UNL     1     -40.880  53.787 -50.408  1.00  0.00    -0.031 A 
HETATM   16  C   UNL     1     -40.105  52.615 -50.403  1.00  0.00     0.009 A 
HETATM   17  C   UNL     1     -39.780  51.967 -51.587  1.00  0.00     0.001 A 
HETATM   18  C   UNL     1     -40.236  52.468 -52.801  1.00  0.00     0.009 A 
HETATM   19  C   UNL     1     -41.067  53.601 -52.856  1.00  0.00    -0.031 A 
BRANCH  15  20
HETATM   20  C   UNL     1     -41.142  54.499 -49.090  1.00  0.00     0.036 C 
HETATM   21  C   UNL     1     -40.301  54.023 -47.908  1.00  0.00     0.010 C 
ENDBRANCH  15  20
BRANCH  19  22
HETATM   22  C   UNL     1     -41.533  54.096 -54.216  1.00  0.00     0.036 C 
HETATM   23  C   UNL     1     -40.438  54.307 -55.258  1.00  0.00     0.010 C 
ENDBRANCH  19  22
ENDBRANCH   1  14
TORSDOF 3
ENDMDL
MODEL 3
REMARK VINA RESULT:      -6.4      1.525      3.445
REMARK  3 active torsions:
REMARK  status: ('A' for Active; 'I' for Inactive)
REMARK    1  A    between atoms: C_2  and  C_3 
REMARK    2  A    between atoms: C_4  and  N_5 
REMARK    3  A    between atoms: C_18  and  C_19 
ROOT
HETATM    1  N   UNL     1     -42.084  56.396 -53.119  1.00  0.00    -0.320 N 
HETATM    2  C   UNL     1     -43.473  56.634 -52.976  1.00  0.00     0.141 C 
HETATM    3  N   UNL     1     -44.373  55.720 -53.206  1.00  0.00    -0.380 N 
HETATM    4  H   UNL     1     -45.352  55.948 -53.108  1.00  0.00     0.158 HD
HETATM    5  H   UNL     1     -44.076  54.802 -53.504  1.00  0.00     0.158 HD
HETATM    6  S   UNL     1     -43.840  58.249 -52.534  1.00  0.00    -0.086 SA
HETATM    7  C   UNL     1     -42.127  58.809 -52.937  1.00  0.00     0.093 C 
HETATM    8  C   UNL     1     -41.232  57.554 -52.772  1.00  0.00     0.121 C 
HETATM    9  C   UNL     1     -41.611  59.938 -52.061  1.00  0.00     0.158 C 
HETATM   10  S   UNL     1     -40.421  59.213 -50.956  1.00  0.00     0.147 S 
HETATM   11  O   UNL     1     -40.808  59.485 -49.590  1.00  0.00    -0.228 OA
HETATM   12  O   UNL     1     -39.098  59.508 -51.468  1.00  0.00    -0.228 OA
HETATM   13  C   UNL     1     -40.773  57.518 -51.321  1.00  0.00     0.167 C 
ENDROOT
BRANCH   1  14
HETATM   14  C   UNL     1     -41.433  55.181 -53.412  1.00  0.00     0.049 A 
HETATM   15  C   UNL     1     -41.032  54.321 -52.350  1.00  0.00    -0.031 A 
HETATM   16  C   UNL     1     -40.432  53.088 -52.657  1.00  0.00     0.009 A 
HETATM   17  C   UNL     1     -40.155  52.735 -53.971  1.00  0.00     0.001 A 
HETATM   18  C   UNL     1     -40.488  53.600 -55.007  1.00  0.00     0.009 A 
HETATM   19  C   UNL     1     -41.147  54.817 -54.758  1.00  0.00    -0.031 A 
BRANCH  15  20
HETATM   20  C   UNL     1     -41.241  54.691 -50.890  1.00  0.00     0.036 C 
HETATM   21  C   UNL     1     -42.569  54.246 -50.283  1.00  0.00     0.010 C 
ENDBRANCH  15  20
BRANCH  19  22
HETATM   22  C   UNL     1     -41.484  55.716 -55.937  1.00  0.00     0.036 C 
HETATM   23  C   UNL     1     -42.769  55.379 -56.687  1.00  0.00     0.010 C 
ENDBRANCH  19  22
ENDBRANCH   1  14
TORSDOF 3
ENDMDL
MODEL 4
REMARK VINA RESULT:      -6.3      2.667      4.724
REMARK  3 active torsions:
REMARK  status: ('A' for Active; 'I' for Inactive)
REMARK    1  A    between atoms: C_2  and  C_3 
REMARK    2  A    between atoms: C_4  and  N_5 
REMARK    3  A    between atoms: C_18  and  C_19 
ROOT
HETATM    1  N   UNL     1     -42.371  57.742 -52.219  1.00  0.00    -0.320 N 
HETATM    2  C   UNL     1     -41.584  58.802 -52.733  1.00  0.00     0.141 C 
HETATM    3  N   UNL     1     -40.540  58.605 -53.486  1.00  0.00    -0.380 N 
HETATM    4  H   UNL     1     -40.001  59.396 -53.810  1.00  0.00     0.158 HD
HETATM    5  H   UNL     1     -40.269  57.659 -53.714  1.00  0.00     0.158 HD
HETATM    6  S   UNL     1     -42.110  60.349 -52.213  1.00  0.00    -0.086 SA
HETATM    7  C   UNL     1     -43.187  59.607 -50.909  1.00  0.00     0.093 C 
HETATM    8  C   UNL     1     -43.534  58.184 -51.418  1.00  0.00     0.121 C 
HETATM    9  C   UNL     1     -44.461  60.386 -50.626  1.00  0.00     0.158 C 
HETATM   10  S   UNL     1     -45.791  59.450 -51.345  1.00  0.00     0.147 S 
HETATM   11  O   UNL     1     -46.513  60.285 -52.279  1.00  0.00    -0.228 OA
HETATM   12  O   UNL     1     -46.448  58.717 -50.283  1.00  0.00    -0.228 OA
HETATM   13  C   UNL     1     -44.798  58.303 -52.256  1.00  0.00     0.167 C 
ENDROOT
BRANCH   1  14
HETATM   14  C   UNL     1     -42.258  56.364 -52.486  1.00  0.00     0.049 A 
HETATM   15  C   UNL     1     -41.702  55.498 -51.501  1.00  0.00    -0.031 A 
HETATM   16  C   UNL     1     -41.644  54.118 -51.759  1.00  0.00     0.009 A 
HETATM   17  C   UNL     1     -42.047  53.600 -52.983  1.00  0.00     0.001 A 
HETATM   18  C   UNL     1     -42.531  54.450 -53.970  1.00  0.00     0.009 A 
HETATM   19  C   UNL     1     -42.669  55.831 -53.740  1.00  0.00    -0.031 A 
BRANCH  15  20
HETATM   20  C   UNL     1     -41.176  56.018 -50.173  1.00  0.00     0.036 C 
HETATM   21  C   UNL     1     -41.085  54.986 -49.052  1.00  0.00     0.010 C 
ENDBRANCH  15  20
BRANCH  19  22
HETATM   22  C   UNL     1     -43.207  56.705 -54.863  1.00  0.00     0.036 C 
HETATM   23  C   UNL     1     -42.363  56.751 -56.134  1.00  0.00     0.010 C 
ENDBRANCH  19  22
ENDBRANCH   1  14
TORSDOF 3
ENDMDL
MODEL 5
REMARK VINA RESULT:      -6.2      2.655      3.688
REMARK  3 active torsions:
REMARK  status: ('A' for Active; 'I' for Inactive)
REMARK    1  A    between atoms: C_2  and  C_3 
REMARK    2  A    between atoms: C_4  and  N_5 
REMARK    3  A    between atoms: C_18  and  C_19 
ROOT
HETATM    1  N   UNL     1     -42.364  57.732 -52.195  1.00  0.00    -0.320 N 
HETATM    2  C   UNL     1     -41.597  58.781 -52.760  1.00  0.00     0.141 C 
HETATM    3  N   UNL     1     -40.568  58.567 -53.529  1.00  0.00    -0.380 N 
HETATM    4  H   UNL     1     -40.042  59.351 -53.890  1.00  0.00     0.158 HD
HETATM    5  H   UNL     1     -40.295  57.616 -53.732  1.00  0.00     0.158 HD
HETATM    6  S   UNL     1     -42.126  60.339 -52.279  1.00  0.00    -0.086 SA
HETATM    7  C   UNL     1     -43.169  59.632 -50.929  1.00  0.00     0.093 C 
HETATM    8  C   UNL     1     -43.514  58.190 -51.384  1.00  0.00     0.121 C 
HETATM    9  C   UNL     1     -44.442  60.409 -50.644  1.00  0.00     0.158 C 
HETATM   10  S   UNL     1     -45.780  59.440 -51.304  1.00  0.00     0.147 S 
HETATM   11  O   UNL     1     -46.528  60.239 -52.249  1.00  0.00    -0.228 OA
HETATM   12  O   UNL     1     -46.408  58.738 -50.205  1.00  0.00    -0.228 OA
HETATM   13  C   UNL     1     -44.797  58.272 -52.198  1.00  0.00     0.167 C 
ENDROOT
BRANCH   1  14
HETATM   14  C   UNL     1     -42.246  56.347 -52.420  1.00  0.00     0.049 A 
HETATM   15  C   UNL     1     -42.681  55.793 -53.658  1.00  0.00    -0.031 A 
HETATM   16  C   UNL     1     -42.508  54.418 -53.891  1.00  0.00     0.009 A 
HETATM   17  C   UNL     1     -41.994  53.584 -52.906  1.00  0.00     0.001 A 
HETATM   18  C   UNL     1     -41.627  54.110 -51.673  1.00  0.00     0.009 A 
HETATM   19  C   UNL     1     -41.720  55.489 -51.412  1.00  0.00    -0.031 A 
BRANCH  15  20
HETATM   20  C   UNL     1     -43.319  56.645 -54.743  1.00  0.00     0.036 C 
HETATM   21  C   UNL     1     -42.520  56.770 -56.037  1.00  0.00     0.010 C 
ENDBRANCH  15  20
BRANCH  19  22
HETATM   22  C   UNL     1     -41.301  56.000 -50.042  1.00  0.00     0.036 C 
HETATM   23  C   UNL     1     -41.089  54.934 -48.970  1.00  0.00     0.010 C 
ENDBRANCH  19  22
ENDBRANCH   1  14
TORSDOF 3
ENDMDL
MODEL 6
REMARK VINA RESULT:      -6.1      1.864      2.271
REMARK  3 active torsions:
REMARK  status: ('A' for Active; 'I' for Inactive)
REMARK    1  A    between atoms: C_2  and  C_3 
REMARK    2  A    between atoms: C_4  and  N_5 
REMARK    3  A    between atoms: C_18  and  C_19 
ROOT
HETATM    1  N   UNL     1     -43.233  56.474 -52.530  1.00  0.00    -0.320 N 
HETATM    2  C   UNL     1     -44.297  56.758 -51.638  1.00  0.00     0.141 C 
HETATM    3  N   UNL     1     -44.649  55.951 -50.679  1.00  0.00    -0.380 N 
HETATM    4  H   UNL     1     -45.428  56.192 -50.083  1.00  0.00     0.158 HD
HETATM    5  H   UNL     1     -44.150  55.080 -50.562  1.00  0.00     0.158 HD
HETATM    6  S   UNL     1     -45.100  58.231 -51.992  1.00  0.00    -0.086 SA
HETATM    7  C   UNL     1     -44.296  58.338 -53.651  1.00  0.00     0.093 C 
HETATM    8  C   UNL     1     -42.973  57.540 -53.522  1.00  0.00     0.121 C 
HETATM    9  C   UNL     1     -44.010  59.753 -54.123  1.00  0.00     0.158 C 
HETATM   10  S   UNL     1     -42.253  59.987 -53.973  1.00  0.00     0.147 S 
HETATM   11  O   UNL     1     -41.993  61.135 -53.134  1.00  0.00    -0.228 OA
HETATM   12  O   UNL     1     -41.667  59.831 -55.288  1.00  0.00    -0.228 OA
HETATM   13  C   UNL     1     -41.905  58.517 -53.051  1.00  0.00     0.167 C 
ENDROOT
BRANCH   1  14
HETATM   14  C   UNL     1     -42.334  55.391 -52.497  1.00  0.00     0.049 A 
HETATM   15  C   UNL     1     -42.365  54.416 -53.535  1.00  0.00    -0.031 A 
HETATM   16  C   UNL     1     -41.428  53.369 -53.519  1.00  0.00     0.009 A 
HETATM   17  C   UNL     1     -40.529  53.229 -52.470  1.00  0.00     0.001 A 
HETATM   18  C   UNL     1     -40.538  54.142 -51.422  1.00  0.00     0.009 A 
HETATM   19  C   UNL     1     -41.412  55.244 -51.422  1.00  0.00    -0.031 A 
BRANCH  15  20
HETATM   20  C   UNL     1     -43.376  54.477 -54.669  1.00  0.00     0.036 C 
HETATM   21  C   UNL     1     -42.799  54.783 -56.049  1.00  0.00     0.010 C 
ENDBRANCH  15  20
BRANCH  19  22
HETATM   22  C   UNL     1     -41.370  56.206 -50.245  1.00  0.00     0.036 C 
HETATM   23  C   UNL     1     -40.467  57.425 -50.414  1.00  0.00     0.010 C 
ENDBRANCH  19  22
ENDBRANCH   1  14
TORSDOF 3
ENDMDL
MODEL 7
REMARK VINA RESULT:      -5.9      3.859      5.492
REMARK  3 active torsions:
REMARK  status: ('A' for Active; 'I' for Inactive)
REMARK    1  A    between atoms: C_2  and  C_3 
REMARK    2  A    between atoms: C_4  and  N_5 
REMARK    3  A    between atoms: C_18  and  C_19 
ROOT
HETATM    1  N   UNL     1     -42.510  57.585 -54.295  1.00  0.00    -0.320 N 
HETATM    2  C   UNL     1     -41.685  58.732 -54.194  1.00  0.00     0.141 C 
HETATM    3  N   UNL     1     -40.895  58.947 -53.181  1.00  0.00    -0.380 N 
HETATM    4  H   UNL     1     -40.342  59.792 -53.148  1.00  0.00     0.158 HD
HETATM    5  H   UNL     1     -40.867  58.274 -52.428  1.00  0.00     0.158 HD
HETATM    6  S   UNL     1     -41.882  59.823 -55.502  1.00  0.00    -0.086 SA
HETATM    7  C   UNL     1     -43.426  58.974 -56.053  1.00  0.00     0.093 C 
HETATM    8  C   UNL     1     -43.300  57.514 -55.543  1.00  0.00     0.121 C 
HETATM    9  C   UNL     1     -43.649  58.985 -57.556  1.00  0.00     0.158 C 
HETATM   10  S   UNL     1     -43.308  57.335 -58.127  1.00  0.00     0.147 S 
HETATM   11  O   UNL     1     -42.284  57.385 -59.146  1.00  0.00    -0.228 OA
HETATM   12  O   UNL     1     -44.573  56.659 -58.321  1.00  0.00    -0.228 OA
HETATM   13  C   UNL     1     -42.592  56.719 -56.630  1.00  0.00     0.167 C 
ENDROOT
BRANCH   1  14
HETATM   14  C   UNL     1     -42.561  56.470 -53.436  1.00  0.00     0.049 A 
HETATM   15  C   UNL     1     -43.564  56.401 -52.427  1.00  0.00    -0.031 A 
HETATM   16  C   UNL     1     -43.637  55.259 -51.612  1.00  0.00     0.009 A 
HETATM   17  C   UNL     1     -42.703  54.239 -51.724  1.00  0.00     0.001 A 
HETATM   18  C   UNL     1     -41.684  54.330 -52.665  1.00  0.00     0.009 A 
HETATM   19  C   UNL     1     -41.603  55.422 -53.548  1.00  0.00    -0.031 A 
BRANCH  15  20
HETATM   20  C   UNL     1     -44.566  57.523 -52.210  1.00  0.00     0.036 C 
HETATM   21  C   UNL     1     -44.126  58.621 -51.245  1.00  0.00     0.010 C 
ENDBRANCH  15  20
BRANCH  19  22
HETATM   22  C   UNL     1     -40.463  55.460 -54.555  1.00  0.00     0.036 C 
HETATM   23  C   UNL     1     -40.067  54.118 -55.163  1.00  0.00     0.010 C 
ENDBRANCH  19  22
ENDBRANCH   1  14
TORSDOF 3
ENDMDL
MODEL 8
REMARK VINA RESULT:      -5.9      6.536      8.298
REMARK  3 active torsions:
REMARK  status: ('A' for Active; 'I' for Inactive)
REMARK    1  A    between atoms: C_2  and  C_3 
REMARK    2  A    between atoms: C_4  and  N_5 
REMARK    3  A    between atoms: C_18  and  C_19 
ROOT
HETATM    1  N   UNL     1     -44.750  58.286 -58.232  1.00  0.00    -0.320 N 
HETATM    2  C   UNL     1     -45.247  58.564 -56.935  1.00  0.00     0.141 C 
HETATM    3  N   UNL     1     -45.951  57.708 -56.251  1.00  0.00    -0.380 N 
HETATM    4  H   UNL     1     -46.299  57.963 -55.338  1.00  0.00     0.158 HD
HETATM    5  H   UNL     1     -46.159  56.807 -56.656  1.00  0.00     0.158 HD
HETATM    6  S   UNL     1     -44.881  60.149 -56.396  1.00  0.00    -0.086 SA
HETATM    7  C   UNL     1     -44.389  60.676 -58.097  1.00  0.00     0.093 C 
HETATM    8  C   UNL     1     -43.942  59.378 -58.819  1.00  0.00     0.121 C 
HETATM    9  C   UNL     1     -43.275  61.708 -58.140  1.00  0.00     0.158 C 
HETATM   10  S   UNL     1     -41.815  60.849 -58.682  1.00  0.00     0.147 S 
HETATM   11  O   UNL     1     -40.767  61.021 -57.702  1.00  0.00    -0.228 OA
HETATM   12  O   UNL     1     -41.625  61.135 -60.089  1.00  0.00    -0.228 OA
HETATM   13  C   UNL     1     -42.455  59.204 -58.549  1.00  0.00     0.167 C 
ENDROOT
BRANCH   1  14
HETATM   14  C   UNL     1     -44.816  57.076 -58.951  1.00  0.00     0.049 A 
HETATM   15  C   UNL     1     -45.810  56.907 -59.957  1.00  0.00    -0.031 A 
HETATM   16  C   UNL     1     -45.832  55.717 -60.703  1.00  0.00     0.009 A 
HETATM   17  C   UNL     1     -44.954  54.679 -60.422  1.00  0.00     0.001 A 
HETATM   18  C   UNL     1     -44.024  54.815 -59.398  1.00  0.00     0.009 A 
HETATM   19  C   UNL     1     -43.918  56.010 -58.663  1.00  0.00    -0.031 A 
BRANCH  15  20
HETATM   20  C   UNL     1     -46.845  57.980 -60.257  1.00  0.00     0.036 C 
HETATM   21  C   UNL     1     -47.794  57.673 -61.413  1.00  0.00     0.010 C 
ENDBRANCH  15  20
BRANCH  19  22
HETATM   22  C   UNL     1     -42.877  56.094 -57.557  1.00  0.00     0.036 C 
HETATM   23  C   UNL     1     -42.994  55.047 -56.453  1.00  0.00     0.010 C 
ENDBRANCH  19  22
ENDBRANCH   1  14
TORSDOF 3
ENDMDL
MODEL 9
REMARK VINA RESULT:      -5.8      4.931      7.528
REMARK  3 active torsions:
REMARK  status: ('A' for Active; 'I' for Inactive)
REMARK    1  A    between atoms: C_2  and  C_3 
REMARK    2  A    between atoms: C_4  and  N_5 
REMARK    3  A    between atoms: C_18  and  C_19 
ROOT
HETATM    1  N   UNL     1     -43.149  57.269 -56.538  1.00  0.00    -0.320 N 
HETATM    2  C   UNL     1     -44.406  57.352 -55.891  1.00  0.00     0.141 C 
HETATM    3  N   UNL     1     -45.450  57.900 -56.444  1.00  0.00    -0.380 N 
HETATM    4  H   UNL     1     -46.319  57.952 -55.932  1.00  0.00     0.158 HD
HETATM    5  H   UNL     1     -45.367  58.289 -57.373  1.00  0.00     0.158 HD
HETATM    6  S   UNL     1     -44.390  56.718 -54.299  1.00  0.00    -0.086 SA
HETATM    7  C   UNL     1     -42.544  56.689 -54.267  1.00  0.00     0.093 C 
HETATM    8  C   UNL     1     -42.107  56.575 -55.750  1.00  0.00     0.121 C 
HETATM    9  C   UNL     1     -41.945  55.551 -53.457  1.00  0.00     0.158 C 
HETATM   10  S   UNL     1     -41.300  54.383 -54.632  1.00  0.00     0.147 S 
HETATM   11  O   UNL     1     -41.899  53.088 -54.397  1.00  0.00    -0.228 OA
HETATM   12  O   UNL     1     -39.868  54.578 -54.716  1.00  0.00    -0.228 OA
HETATM   13  C   UNL     1     -42.026  55.092 -56.082  1.00  0.00     0.167 C 
ENDROOT
BRANCH   1  14
HETATM   14  C   UNL     1     -42.821  57.638 -57.857  1.00  0.00     0.049 A 
HETATM   15  C   UNL     1     -42.258  58.921 -58.112  1.00  0.00    -0.031 A 
HETATM   16  C   UNL     1     -41.886  59.256 -59.425  1.00  0.00     0.009 A 
HETATM   17  C   UNL     1     -42.131  58.389 -60.482  1.00  0.00     0.001 A 
HETATM   18  C   UNL     1     -42.738  57.161 -60.246  1.00  0.00     0.009 A 
HETATM   19  C   UNL     1     -43.072  56.751 -58.943  1.00  0.00    -0.031 A 
BRANCH  15  20
HETATM   20  C   UNL     1     -42.037  59.939 -57.006  1.00  0.00     0.036 C 
HETATM   21  C   UNL     1     -42.928  61.178 -57.064  1.00  0.00     0.010 C 
ENDBRANCH  15  20
BRANCH  19  22
HETATM   22  C   UNL     1     -43.733  55.395 -58.754  1.00  0.00     0.036 C 
HETATM   23  C   UNL     1     -44.574  54.895 -59.925  1.00  0.00     0.010 C 
ENDBRANCH  19  22
ENDBRANCH   1  14
TORSDOF 3
ENDMDL
MODEL 10
REMARK VINA RESULT:      -5.7      3.694      4.955
REMARK  3 active torsions:
REMARK  status: ('A' for Active; 'I' for Inactive)
REMARK    1  A    between atoms: C_2  and  C_3 
REMARK    2  A    between atoms: C_4  and  N_5 
REMARK    3  A    between atoms: C_18  and  C_19 
ROOT
HETATM    1  N   UNL     1     -42.421  57.529 -54.059  1.00  0.00    -0.320 N 
HETATM    2  C   UNL     1     -41.601  58.678 -53.932  1.00  0.00     0.141 C 
HETATM    3  N   UNL     1     -40.798  58.863 -52.923  1.00  0.00    -0.380 N 
HETATM    4  H   UNL     1     -40.249  59.709 -52.870  1.00  0.00     0.158 HD
HETATM    5  H   UNL     1     -40.755  58.165 -52.194  1.00  0.00     0.158 HD
HETATM    6  S   UNL     1     -41.822  59.810 -55.199  1.00  0.00    -0.086 SA
HETATM    7  C   UNL     1     -43.370  58.971 -55.757  1.00  0.00     0.093 C 
HETATM    8  C   UNL     1     -43.229  57.496 -55.298  1.00  0.00     0.121 C 
HETATM    9  C   UNL     1     -43.615  59.031 -57.255  1.00  0.00     0.158 C 
HETATM   10  S   UNL     1     -43.273  57.403 -57.885  1.00  0.00     0.147 S 
HETATM   11  O   UNL     1     -42.264  57.493 -58.917  1.00  0.00    -0.228 OA
HETATM   12  O   UNL     1     -44.537  56.726 -58.084  1.00  0.00    -0.228 OA
HETATM   13  C   UNL     1     -42.532  56.742 -56.421  1.00  0.00     0.167 C 
ENDROOT
BRANCH   1  14
HETATM   14  C   UNL     1     -42.453  56.386 -53.238  1.00  0.00     0.049 A 
HETATM   15  C   UNL     1     -41.484  55.358 -53.420  1.00  0.00    -0.031 A 
HETATM   16  C   UNL     1     -41.494  54.248 -52.559  1.00  0.00     0.009 A 
HETATM   17  C   UNL     1     -42.478  54.102 -51.590  1.00  0.00     0.001 A 
HETATM   18  C   UNL     1     -43.464  55.072 -51.451  1.00  0.00     0.009 A 
HETATM   19  C   UNL     1     -43.462  56.233 -52.244  1.00  0.00    -0.031 A 
BRANCH  15  20
HETATM   20  C   UNL     1     -40.429  55.428 -54.513  1.00  0.00     0.036 C 
HETATM   21  C   UNL     1     -40.100  54.103 -55.196  1.00  0.00     0.010 C 
ENDBRANCH  15  20
BRANCH  19  22
HETATM   22  C   UNL     1     -44.569  57.256 -52.040  1.00  0.00     0.036 C 
HETATM   23  C   UNL     1     -44.186  58.502 -51.246  1.00  0.00     0.010 C 
ENDBRANCH  19  22
ENDBRANCH   1  14
TORSDOF 3
ENDMDL
