MODEL 1
REMARK VINA RESULT:      -8.9      0.000      0.000
REMARK  7 active torsions:
REMARK  status: ('A' for Active; 'I' for Inactive)
REMARK    1  A    between atoms: C_7  and  C_8 
REMARK    2  A    between atoms: C_11  and  N_12 
REMARK       I    between atoms: N_12  and  C_13 
REMARK    3  A    between atoms: C_13  and  C_14 
REMARK    4  A    between atoms: C_14  and  N_15 
REMARK    5  A    between atoms: N_15  and  C_16 
REMARK    6  A    between atoms: C_17  and  O_18 
REMARK    7  A    between atoms: C_22  and  N_23 
REMARK       I    between atoms: N_23  and  C_24 
ROOT
HETATM    1  N   UNL     1     -44.411  59.951 -50.449  1.00  0.00    -0.326 N 
HETATM    2  C   UNL     1     -44.665  61.175 -51.037  1.00  0.00     0.239 C 
HETATM    3  O   UNL     1     -44.382  61.477 -52.195  1.00  0.00    -0.271 OA
HETATM    4  H   UNL     1     -44.861  59.798 -49.562  1.00  0.00     0.169 HD
ENDROOT
BRANCH   2   5
HETATM    5  C   UNL     1     -45.305  62.215 -50.076  1.00  0.00     0.148 C 
HETATM    6  C   UNL     1     -44.357  63.355 -49.722  1.00  0.00     0.036 C 
BRANCH   5   7
HETATM    7  N   UNL     1     -45.994  61.653 -48.886  1.00  0.00    -0.278 NA
HETATM    8  H   UNL     1     -45.539  60.766 -48.635  1.00  0.00     0.128 HD
BRANCH   7   9
HETATM    9  C   UNL     1     -46.185  62.348 -47.683  1.00  0.00     0.044 C 
HETATM   10  C   UNL     1     -47.310  63.194 -47.557  1.00  0.00     0.089 C 
HETATM   11  C   UNL     1     -47.577  63.840 -46.351  1.00  0.00     0.041 C 
HETATM   12  C   UNL     1     -46.721  63.670 -45.260  1.00  0.00     0.032 C 
HETATM   13  C   UNL     1     -45.570  62.894 -45.378  1.00  0.00     0.036 C 
HETATM   14  C   UNL     1     -45.284  62.288 -46.612  1.00  0.00     0.055 C 
BRANCH  10  15
HETATM   15  O   UNL     1     -48.115  63.274 -48.671  1.00  0.00    -0.354 OA
HETATM   16  C   UNL     1     -48.455  64.593 -49.086  1.00  0.00     0.210 C 
ENDBRANCH  10  15
BRANCH  13  17
HETATM   17  N   UNL     1     -44.685  62.630 -44.310  1.00  0.00    -0.327 N 
HETATM   18  C   UNL     1     -43.928  63.552 -43.606  1.00  0.00     0.218 C 
HETATM   19  C   UNL     1     -43.209  62.929 -42.435  1.00  0.00     0.117 C 
HETATM   20  O   UNL     1     -43.853  64.757 -43.815  1.00  0.00    -0.274 OA
HETATM   21  H   UNL     1     -44.647  61.673 -43.986  1.00  0.00     0.169 HD
ENDBRANCH  13  17
ENDBRANCH   7   9
ENDBRANCH   5   7
ENDBRANCH   2   5
BRANCH   1  22
HETATM   22  C   UNL     1     -43.687  58.856 -50.943  1.00  0.00     0.034 A 
HETATM   23  C   UNL     1     -42.300  58.814 -51.065  1.00  0.00     0.030 A 
HETATM   24  C   UNL     1     -41.663  57.643 -51.510  1.00  0.00     0.016 A 
HETATM   25  C   UNL     1     -42.398  56.494 -51.842  1.00  0.00    -0.000 A 
HETATM   26  C   UNL     1     -43.795  56.560 -51.725  1.00  0.00     0.016 A 
HETATM   27  C   UNL     1     -44.430  57.722 -51.284  1.00  0.00     0.030 A 
BRANCH  25  28
HETATM   28  C   UNL     1     -41.797  55.219 -52.287  1.00  0.00     0.109 A 
HETATM   29  N   UNL     1     -41.046  54.468 -51.504  1.00  0.00    -0.240 NA
HETATM   30  C   UNL     1     -40.642  53.324 -52.164  1.00  0.00     0.075 A 
HETATM   31  C   UNL     1     -41.094  53.202 -53.476  1.00  0.00     0.036 A 
HETATM   32  C   UNL     1     -39.836  52.303 -51.624  1.00  0.00     0.033 A 
HETATM   33  C   UNL     1     -40.772  52.089 -54.272  1.00  0.00     0.028 A 
HETATM   34  S   UNL     1     -42.048  54.581 -53.865  1.00  0.00    -0.067 SA
HETATM   35  C   UNL     1     -39.971  51.076 -53.719  1.00  0.00    -0.061 A 
HETATM   36  C   UNL     1     -39.605  49.865 -54.531  1.00  0.00     0.048 C 
HETATM   37  C   UNL     1     -39.508  51.190 -52.407  1.00  0.00     0.009 A 
ENDBRANCH  25  28
ENDBRANCH   1  22
TORSDOF 7
ENDMDL
MODEL 2
REMARK VINA RESULT:      -8.5      2.005      2.585
REMARK  7 active torsions:
REMARK  status: ('A' for Active; 'I' for Inactive)
REMARK    1  A    between atoms: C_7  and  C_8 
REMARK    2  A    between atoms: C_11  and  N_12 
REMARK       I    between atoms: N_12  and  C_13 
REMARK    3  A    between atoms: C_13  and  C_14 
REMARK    4  A    between atoms: C_14  and  N_15 
REMARK    5  A    between atoms: N_15  and  C_16 
REMARK    6  A    between atoms: C_17  and  O_18 
REMARK    7  A    between atoms: C_22  and  N_23 
REMARK       I    between atoms: N_23  and  C_24 
ROOT
HETATM    1  N   UNL     1     -45.054  60.179 -52.674  1.00  0.00    -0.326 N 
HETATM    2  C   UNL     1     -46.195  60.429 -51.938  1.00  0.00     0.239 C 
HETATM    3  O   UNL     1     -46.645  59.698 -51.057  1.00  0.00    -0.271 OA
HETATM    4  H   UNL     1     -44.719  60.951 -53.225  1.00  0.00     0.169 HD
ENDROOT
BRANCH   2   5
HETATM    5  C   UNL     1     -46.944  61.725 -52.356  1.00  0.00     0.148 C 
HETATM    6  C   UNL     1     -46.945  61.948 -53.864  1.00  0.00     0.036 C 
BRANCH   5   7
HETATM    7  N   UNL     1     -46.584  62.950 -51.596  1.00  0.00    -0.278 NA
HETATM    8  H   UNL     1     -46.846  63.770 -52.158  1.00  0.00     0.128 HD
BRANCH   7   9
HETATM    9  C   UNL     1     -47.010  63.222 -50.288  1.00  0.00     0.044 C 
HETATM   10  C   UNL     1     -48.224  63.918 -50.099  1.00  0.00     0.089 C 
HETATM   11  C   UNL     1     -48.721  64.138 -48.815  1.00  0.00     0.041 C 
HETATM   12  C   UNL     1     -48.008  63.686 -47.701  1.00  0.00     0.032 C 
HETATM   13  C   UNL     1     -46.777  63.055 -47.858  1.00  0.00     0.036 C 
HETATM   14  C   UNL     1     -46.263  62.883 -49.152  1.00  0.00     0.055 C 
BRANCH  10  15
HETATM   15  O   UNL     1     -48.874  64.295 -51.254  1.00  0.00    -0.354 OA
HETATM   16  C   UNL     1     -50.039  63.541 -51.573  1.00  0.00     0.210 C 
ENDBRANCH  10  15
BRANCH  13  17
HETATM   17  N   UNL     1     -46.023  62.524 -46.789  1.00  0.00    -0.327 N 
HETATM   18  C   UNL     1     -45.807  61.186 -46.502  1.00  0.00     0.218 C 
HETATM   19  C   UNL     1     -44.831  60.991 -45.369  1.00  0.00     0.117 C 
HETATM   20  O   UNL     1     -46.272  60.221 -47.098  1.00  0.00    -0.274 OA
HETATM   21  H   UNL     1     -45.539  63.194 -46.206  1.00  0.00     0.169 HD
ENDBRANCH  13  17
ENDBRANCH   7   9
ENDBRANCH   5   7
ENDBRANCH   2   5
BRANCH   1  22
HETATM   22  C   UNL     1     -44.244  59.035 -52.705  1.00  0.00     0.034 A 
HETATM   23  C   UNL     1     -43.447  58.599 -51.648  1.00  0.00     0.030 A 
HETATM   24  C   UNL     1     -42.722  57.400 -51.754  1.00  0.00     0.016 A 
HETATM   25  C   UNL     1     -42.776  56.616 -52.917  1.00  0.00    -0.000 A 
HETATM   26  C   UNL     1     -43.573  57.078 -53.975  1.00  0.00     0.016 A 
HETATM   27  C   UNL     1     -44.294  58.268 -53.872  1.00  0.00     0.030 A 
BRANCH  25  28
HETATM   28  C   UNL     1     -42.066  55.332 -53.090  1.00  0.00     0.109 A 
HETATM   29  N   UNL     1     -41.293  54.807 -52.158  1.00  0.00    -0.240 NA
HETATM   30  C   UNL     1     -40.780  53.593 -52.572  1.00  0.00     0.075 A 
HETATM   31  C   UNL     1     -41.170  53.186 -53.845  1.00  0.00     0.036 A 
HETATM   32  C   UNL     1     -39.923  52.763 -51.824  1.00  0.00     0.033 A 
HETATM   33  C   UNL     1     -40.736  51.970 -54.401  1.00  0.00     0.028 A 
HETATM   34  S   UNL     1     -42.207  54.384 -54.519  1.00  0.00    -0.067 SA
HETATM   35  C   UNL     1     -39.886  51.149 -53.642  1.00  0.00    -0.061 A 
HETATM   36  C   UNL     1     -39.399  49.838 -54.193  1.00  0.00     0.048 C 
HETATM   37  C   UNL     1     -39.485  51.550 -52.366  1.00  0.00     0.009 A 
ENDBRANCH  25  28
ENDBRANCH   1  22
TORSDOF 7
ENDMDL
MODEL 3
REMARK VINA RESULT:      -8.5      7.550     10.121
REMARK  7 active torsions:
REMARK  status: ('A' for Active; 'I' for Inactive)
REMARK    1  A    between atoms: C_7  and  C_8 
REMARK    2  A    between atoms: C_11  and  N_12 
REMARK       I    between atoms: N_12  and  C_13 
REMARK    3  A    between atoms: C_13  and  C_14 
REMARK    4  A    between atoms: C_14  and  N_15 
REMARK    5  A    between atoms: N_15  and  C_16 
REMARK    6  A    between atoms: C_17  and  O_18 
REMARK    7  A    between atoms: C_22  and  N_23 
REMARK       I    between atoms: N_23  and  C_24 
ROOT
HETATM    1  N   UNL     1     -43.526  59.059 -57.038  1.00  0.00    -0.326 N 
HETATM    2  C   UNL     1     -44.737  59.690 -56.831  1.00  0.00     0.239 C 
HETATM    3  O   UNL     1     -45.459  59.532 -55.847  1.00  0.00    -0.271 OA
HETATM    4  H   UNL     1     -42.974  59.426 -57.795  1.00  0.00     0.169 HD
ENDROOT
BRANCH   2   5
HETATM    5  C   UNL     1     -45.179  60.608 -58.004  1.00  0.00     0.148 C 
HETATM    6  C   UNL     1     -44.913  62.084 -57.732  1.00  0.00     0.036 C 
BRANCH   5   7
HETATM    7  N   UNL     1     -46.544  60.361 -58.535  1.00  0.00    -0.278 NA
HETATM    8  H   UNL     1     -46.865  61.212 -59.016  1.00  0.00     0.128 HD
BRANCH   7   9
HETATM    9  C   UNL     1     -46.884  59.288 -59.373  1.00  0.00     0.044 C 
HETATM   10  C   UNL     1     -47.681  59.541 -60.512  1.00  0.00     0.089 C 
HETATM   11  C   UNL     1     -47.973  58.517 -61.411  1.00  0.00     0.041 C 
HETATM   12  C   UNL     1     -47.494  57.224 -61.181  1.00  0.00     0.032 C 
HETATM   13  C   UNL     1     -46.762  56.935 -60.032  1.00  0.00     0.036 C 
HETATM   14  C   UNL     1     -46.515  57.963 -59.109  1.00  0.00     0.055 C 
BRANCH  10  15
HETATM   15  O   UNL     1     -48.078  60.849 -60.675  1.00  0.00    -0.354 OA
HETATM   16  C   UNL     1     -49.393  61.150 -60.219  1.00  0.00     0.210 C 
ENDBRANCH  10  15
BRANCH  13  17
HETATM   17  N   UNL     1     -46.199  55.670 -59.754  1.00  0.00    -0.327 N 
HETATM   18  C   UNL     1     -44.967  55.194 -60.170  1.00  0.00     0.218 C 
HETATM   19  C   UNL     1     -44.634  53.855 -59.563  1.00  0.00     0.117 C 
HETATM   20  O   UNL     1     -44.163  55.768 -60.895  1.00  0.00    -0.274 OA
HETATM   21  H   UNL     1     -46.729  55.072 -59.134  1.00  0.00     0.169 HD
ENDBRANCH  13  17
ENDBRANCH   7   9
ENDBRANCH   5   7
ENDBRANCH   2   5
BRANCH   1  22
HETATM   22  C   UNL     1     -42.913  58.037 -56.299  1.00  0.00     0.034 A 
HETATM   23  C   UNL     1     -42.273  58.219 -55.075  1.00  0.00     0.030 A 
HETATM   24  C   UNL     1     -41.746  57.118 -54.379  1.00  0.00     0.016 A 
HETATM   25  C   UNL     1     -41.847  55.815 -54.894  1.00  0.00    -0.000 A 
HETATM   26  C   UNL     1     -42.483  55.654 -56.133  1.00  0.00     0.016 A 
HETATM   27  C   UNL     1     -43.006  56.746 -56.826  1.00  0.00     0.030 A 
BRANCH  25  28
HETATM   28  C   UNL     1     -41.345  54.607 -54.207  1.00  0.00     0.109 A 
HETATM   29  N   UNL     1     -41.043  53.492 -54.844  1.00  0.00    -0.240 NA
HETATM   30  C   UNL     1     -40.572  52.536 -53.964  1.00  0.00     0.075 A 
HETATM   31  C   UNL     1     -40.515  52.933 -52.630  1.00  0.00     0.036 A 
HETATM   32  C   UNL     1     -40.156  51.236 -54.307  1.00  0.00     0.033 A 
HETATM   33  C   UNL     1     -40.051  52.073 -51.620  1.00  0.00     0.028 A 
HETATM   34  S   UNL     1     -41.079  54.554 -52.508  1.00  0.00    -0.067 SA
HETATM   35  C   UNL     1     -39.633  50.780 -51.976  1.00  0.00    -0.061 A 
HETATM   36  C   UNL     1     -39.125  49.827 -50.931  1.00  0.00     0.048 C 
HETATM   37  C   UNL     1     -39.690  50.371 -53.310  1.00  0.00     0.009 A 
ENDBRANCH  25  28
ENDBRANCH   1  22
TORSDOF 7
ENDMDL
MODEL 4
REMARK VINA RESULT:      -8.5      7.091     10.072
REMARK  7 active torsions:
REMARK  status: ('A' for Active; 'I' for Inactive)
REMARK    1  A    between atoms: C_7  and  C_8 
REMARK    2  A    between atoms: C_11  and  N_12 
REMARK       I    between atoms: N_12  and  C_13 
REMARK    3  A    between atoms: C_13  and  C_14 
REMARK    4  A    between atoms: C_14  and  N_15 
REMARK    5  A    between atoms: N_15  and  C_16 
REMARK    6  A    between atoms: C_17  and  O_18 
REMARK    7  A    between atoms: C_22  and  N_23 
REMARK       I    between atoms: N_23  and  C_24 
ROOT
HETATM    1  N   UNL     1     -42.841  59.488 -56.090  1.00  0.00    -0.326 N 
HETATM    2  C   UNL     1     -44.152  59.916 -56.173  1.00  0.00     0.239 C 
HETATM    3  O   UNL     1     -45.098  59.424 -55.561  1.00  0.00    -0.271 OA
HETATM    4  H   UNL     1     -42.161  60.101 -56.506  1.00  0.00     0.169 HD
ENDROOT
BRANCH   2   5
HETATM    5  C   UNL     1     -44.373  61.075 -57.185  1.00  0.00     0.148 C 
HETATM    6  C   UNL     1     -45.443  62.061 -56.730  1.00  0.00     0.036 C 
BRANCH   5   7
HETATM    7  N   UNL     1     -44.536  60.667 -58.604  1.00  0.00    -0.278 NA
HETATM    8  H   UNL     1     -44.382  61.492 -59.199  1.00  0.00     0.128 HD
BRANCH   7   9
HETATM    9  C   UNL     1     -43.835  59.613 -59.209  1.00  0.00     0.044 C 
HETATM   10  C   UNL     1     -42.677  59.911 -59.961  1.00  0.00     0.089 C 
HETATM   11  C   UNL     1     -41.910  58.885 -60.511  1.00  0.00     0.041 C 
HETATM   12  C   UNL     1     -42.293  57.552 -60.338  1.00  0.00     0.032 C 
HETATM   13  C   UNL     1     -43.465  57.237 -59.656  1.00  0.00     0.036 C 
HETATM   14  C   UNL     1     -44.257  58.279 -59.149  1.00  0.00     0.055 C 
BRANCH  10  15
HETATM   15  O   UNL     1     -42.358  61.247 -60.050  1.00  0.00    -0.354 OA
HETATM   16  C   UNL     1     -41.213  61.653 -59.308  1.00  0.00     0.210 C 
ENDBRANCH  10  15
BRANCH  13  17
HETATM   17  N   UNL     1     -43.892  55.917 -59.393  1.00  0.00    -0.327 N 
HETATM   18  C   UNL     1     -44.663  55.109 -60.212  1.00  0.00     0.218 C 
HETATM   19  C   UNL     1     -44.801  53.707 -59.672  1.00  0.00     0.117 C 
HETATM   20  O   UNL     1     -45.154  55.412 -61.293  1.00  0.00    -0.274 OA
HETATM   21  H   UNL     1     -43.546  55.496 -58.541  1.00  0.00     0.169 HD
ENDBRANCH  13  17
ENDBRANCH   7   9
ENDBRANCH   5   7
ENDBRANCH   2   5
BRANCH   1  22
HETATM   22  C   UNL     1     -42.308  58.367 -55.438  1.00  0.00     0.034 A 
HETATM   23  C   UNL     1     -41.663  58.400 -54.204  1.00  0.00     0.030 A 
HETATM   24  C   UNL     1     -41.221  57.209 -53.601  1.00  0.00     0.016 A 
HETATM   25  C   UNL     1     -41.413  55.964 -54.222  1.00  0.00    -0.000 A 
HETATM   26  C   UNL     1     -42.053  55.952 -55.471  1.00  0.00     0.016 A 
HETATM   27  C   UNL     1     -42.492  57.134 -56.070  1.00  0.00     0.030 A 
BRANCH  25  28
HETATM   28  C   UNL     1     -41.004  54.670 -53.638  1.00  0.00     0.109 A 
HETATM   29  N   UNL     1     -40.714  53.612 -54.370  1.00  0.00    -0.240 NA
HETATM   30  C   UNL     1     -40.336  52.551 -53.570  1.00  0.00     0.075 A 
HETATM   31  C   UNL     1     -40.339  52.807 -52.201  1.00  0.00     0.036 A 
HETATM   32  C   UNL     1     -39.957  51.272 -54.022  1.00  0.00     0.033 A 
HETATM   33  C   UNL     1     -39.971  51.828 -51.261  1.00  0.00     0.028 A 
HETATM   34  S   UNL     1     -40.839  54.434 -51.942  1.00  0.00    -0.067 SA
HETATM   35  C   UNL     1     -39.590  50.559 -51.726  1.00  0.00    -0.061 A 
HETATM   36  C   UNL     1     -39.183  49.483 -50.760  1.00  0.00     0.048 C 
HETATM   37  C   UNL     1     -39.587  50.290 -53.097  1.00  0.00     0.009 A 
ENDBRANCH  25  28
ENDBRANCH   1  22
TORSDOF 7
ENDMDL
MODEL 5
REMARK VINA RESULT:      -8.5      1.891      4.287
REMARK  7 active torsions:
REMARK  status: ('A' for Active; 'I' for Inactive)
REMARK    1  A    between atoms: C_7  and  C_8 
REMARK    2  A    between atoms: C_11  and  N_12 
REMARK       I    between atoms: N_12  and  C_13 
REMARK    3  A    between atoms: C_13  and  C_14 
REMARK    4  A    between atoms: C_14  and  N_15 
REMARK    5  A    between atoms: N_15  and  C_16 
REMARK    6  A    between atoms: C_17  and  O_18 
REMARK    7  A    between atoms: C_22  and  N_23 
REMARK       I    between atoms: N_23  and  C_24 
ROOT
HETATM    1  N   UNL     1     -43.566  60.407 -50.929  1.00  0.00    -0.326 N 
HETATM    2  C   UNL     1     -43.517  61.655 -51.518  1.00  0.00     0.239 C 
HETATM    3  O   UNL     1     -42.951  61.916 -52.579  1.00  0.00    -0.271 OA
HETATM    4  H   UNL     1     -44.214  60.317 -50.165  1.00  0.00     0.169 HD
ENDROOT
BRANCH   2   5
HETATM    5  C   UNL     1     -44.202  62.773 -50.685  1.00  0.00     0.148 C 
HETATM    6  C   UNL     1     -43.206  63.757 -50.083  1.00  0.00     0.036 C 
BRANCH   5   7
HETATM    7  N   UNL     1     -45.219  62.314 -49.704  1.00  0.00    -0.278 NA
HETATM    8  H   UNL     1     -44.808  62.363 -48.763  1.00  0.00     0.128 HD
BRANCH   7   9
HETATM    9  C   UNL     1     -46.510  62.851 -49.595  1.00  0.00     0.044 C 
HETATM   10  C   UNL     1     -47.094  62.960 -48.313  1.00  0.00     0.089 C 
HETATM   11  C   UNL     1     -48.342  63.560 -48.153  1.00  0.00     0.041 C 
HETATM   12  C   UNL     1     -49.035  64.042 -49.267  1.00  0.00     0.032 C 
HETATM   13  C   UNL     1     -48.510  63.887 -50.548  1.00  0.00     0.036 C 
HETATM   14  C   UNL     1     -47.276  63.237 -50.702  1.00  0.00     0.055 C 
BRANCH  10  15
HETATM   15  O   UNL     1     -46.324  62.490 -47.272  1.00  0.00    -0.354 OA
HETATM   16  C   UNL     1     -45.987  63.454 -46.279  1.00  0.00     0.210 C 
ENDBRANCH  10  15
BRANCH  13  17
HETATM   17  N   UNL     1     -49.123  64.392 -51.716  1.00  0.00    -0.327 N 
HETATM   18  C   UNL     1     -49.976  63.715 -52.572  1.00  0.00     0.218 C 
HETATM   19  C   UNL     1     -50.554  64.614 -53.636  1.00  0.00     0.117 C 
HETATM   20  O   UNL     1     -50.315  62.540 -52.496  1.00  0.00    -0.274 OA
HETATM   21  H   UNL     1     -48.968  65.372 -51.914  1.00  0.00     0.169 HD
ENDBRANCH  13  17
ENDBRANCH   7   9
ENDBRANCH   5   7
ENDBRANCH   2   5
BRANCH   1  22
HETATM   22  C   UNL     1     -42.908  59.223 -51.290  1.00  0.00     0.034 A 
HETATM   23  C   UNL     1     -41.604  58.896 -50.921  1.00  0.00     0.030 A 
HETATM   24  C   UNL     1     -41.056  57.652 -51.278  1.00  0.00     0.016 A 
HETATM   25  C   UNL     1     -41.799  56.713 -52.011  1.00  0.00    -0.000 A 
HETATM   26  C   UNL     1     -43.104  57.064 -52.385  1.00  0.00     0.016 A 
HETATM   27  C   UNL     1     -43.650  58.299 -52.032  1.00  0.00     0.030 A 
BRANCH  25  28
HETATM   28  C   UNL     1     -41.302  55.376 -52.396  1.00  0.00     0.109 A 
HETATM   29  N   UNL     1     -40.784  54.525 -51.530  1.00  0.00    -0.240 NA
HETATM   30  C   UNL     1     -40.429  53.345 -52.154  1.00  0.00     0.075 A 
HETATM   31  C   UNL     1     -40.682  53.296 -53.523  1.00  0.00     0.036 A 
HETATM   32  C   UNL     1     -39.854  52.223 -51.527  1.00  0.00     0.033 A 
HETATM   33  C   UNL     1     -40.381  52.159 -54.293  1.00  0.00     0.028 A 
HETATM   34  S   UNL     1     -41.380  54.791 -54.013  1.00  0.00    -0.067 SA
HETATM   35  C   UNL     1     -39.813  51.045 -53.655  1.00  0.00    -0.061 A 
HETATM   36  C   UNL     1     -39.480  49.805 -54.436  1.00  0.00     0.048 C 
HETATM   37  C   UNL     1     -39.552  51.084 -52.283  1.00  0.00     0.009 A 
ENDBRANCH  25  28
ENDBRANCH   1  22
TORSDOF 7
ENDMDL
MODEL 6
REMARK VINA RESULT:      -8.4      7.428     11.105
REMARK  7 active torsions:
REMARK  status: ('A' for Active; 'I' for Inactive)
REMARK    1  A    between atoms: C_7  and  C_8 
REMARK    2  A    between atoms: C_11  and  N_12 
REMARK       I    between atoms: N_12  and  C_13 
REMARK    3  A    between atoms: C_13  and  C_14 
REMARK    4  A    between atoms: C_14  and  N_15 
REMARK    5  A    between atoms: N_15  and  C_16 
REMARK    6  A    between atoms: C_17  and  O_18 
REMARK    7  A    between atoms: C_22  and  N_23 
REMARK       I    between atoms: N_23  and  C_24 
ROOT
HETATM    1  N   UNL     1     -42.267  55.609 -56.617  1.00  0.00    -0.326 N 
HETATM    2  C   UNL     1     -42.434  54.655 -55.632  1.00  0.00     0.239 C 
HETATM    3  O   UNL     1     -43.417  53.925 -55.513  1.00  0.00    -0.271 OA
HETATM    4  H   UNL     1     -41.341  55.995 -56.690  1.00  0.00     0.169 HD
ENDROOT
BRANCH   2   5
HETATM    5  C   UNL     1     -41.273  54.604 -54.601  1.00  0.00     0.148 C 
HETATM    6  C   UNL     1     -39.963  54.117 -55.209  1.00  0.00     0.036 C 
BRANCH   5   7
HETATM    7  N   UNL     1     -41.587  53.938 -53.311  1.00  0.00    -0.278 NA
HETATM    8  H   UNL     1     -41.192  52.989 -53.329  1.00  0.00     0.128 HD
BRANCH   7   9
HETATM    9  C   UNL     1     -41.270  54.468 -52.051  1.00  0.00     0.044 C 
HETATM   10  C   UNL     1     -40.541  53.669 -51.142  1.00  0.00     0.089 C 
HETATM   11  C   UNL     1     -40.138  54.187 -49.912  1.00  0.00     0.041 C 
HETATM   12  C   UNL     1     -40.472  55.498 -49.560  1.00  0.00     0.032 C 
HETATM   13  C   UNL     1     -41.246  56.283 -50.411  1.00  0.00     0.036 C 
HETATM   14  C   UNL     1     -41.688  55.735 -51.625  1.00  0.00     0.055 C 
BRANCH  10  15
HETATM   15  O   UNL     1     -40.228  52.404 -51.587  1.00  0.00    -0.354 OA
HETATM   16  C   UNL     1     -40.183  51.397 -50.582  1.00  0.00     0.210 C 
ENDBRANCH  10  15
BRANCH  13  17
HETATM   17  N   UNL     1     -41.579  57.631 -50.152  1.00  0.00    -0.327 N 
HETATM   18  C   UNL     1     -40.874  58.756 -50.546  1.00  0.00     0.218 C 
HETATM   19  C   UNL     1     -41.605  60.035 -50.219  1.00  0.00     0.117 C 
HETATM   20  O   UNL     1     -39.808  58.783 -51.149  1.00  0.00    -0.274 OA
HETATM   21  H   UNL     1     -42.460  57.791 -49.681  1.00  0.00     0.169 HD
ENDBRANCH  13  17
ENDBRANCH   7   9
ENDBRANCH   5   7
ENDBRANCH   2   5
BRANCH   1  22
HETATM   22  C   UNL     1     -43.174  56.060 -57.586  1.00  0.00     0.034 A 
HETATM   23  C   UNL     1     -43.475  55.383 -58.766  1.00  0.00     0.030 A 
HETATM   24  C   UNL     1     -44.451  55.887 -59.644  1.00  0.00     0.016 A 
HETATM   25  C   UNL     1     -45.141  57.076 -59.361  1.00  0.00    -0.000 A 
HETATM   26  C   UNL     1     -44.815  57.751 -58.175  1.00  0.00     0.016 A 
HETATM   27  C   UNL     1     -43.846  57.253 -57.302  1.00  0.00     0.030 A 
BRANCH  25  28
HETATM   28  C   UNL     1     -46.198  57.650 -60.219  1.00  0.00     0.109 A 
HETATM   29  N   UNL     1     -47.034  56.909 -60.922  1.00  0.00    -0.240 NA
HETATM   30  C   UNL     1     -47.934  57.701 -61.608  1.00  0.00     0.075 A 
HETATM   31  C   UNL     1     -47.780  59.073 -61.424  1.00  0.00     0.036 A 
HETATM   32  C   UNL     1     -48.964  57.239 -62.449  1.00  0.00     0.033 A 
HETATM   33  C   UNL     1     -48.625  60.006 -62.050  1.00  0.00     0.028 A 
HETATM   34  S   UNL     1     -46.456  59.345 -60.357  1.00  0.00    -0.067 SA
HETATM   35  C   UNL     1     -49.652  59.531 -62.882  1.00  0.00    -0.061 A 
HETATM   36  C   UNL     1     -50.583  60.489 -63.569  1.00  0.00     0.048 C 
HETATM   37  C   UNL     1     -49.813  58.157 -63.078  1.00  0.00     0.009 A 
ENDBRANCH  25  28
ENDBRANCH   1  22
TORSDOF 7
ENDMDL
MODEL 7
REMARK VINA RESULT:      -8.3     20.258     23.627
REMARK  7 active torsions:
REMARK  status: ('A' for Active; 'I' for Inactive)
REMARK    1  A    between atoms: C_7  and  C_8 
REMARK    2  A    between atoms: C_11  and  N_12 
REMARK       I    between atoms: N_12  and  C_13 
REMARK    3  A    between atoms: C_13  and  C_14 
REMARK    4  A    between atoms: C_14  and  N_15 
REMARK    5  A    between atoms: N_15  and  C_16 
REMARK    6  A    between atoms: C_17  and  O_18 
REMARK    7  A    between atoms: C_22  and  N_23 
REMARK       I    between atoms: N_23  and  C_24 
ROOT
HETATM    1  N   UNL     1     -32.949  39.401 -53.014  1.00  0.00    -0.326 N 
HETATM    2  C   UNL     1     -32.140  39.109 -54.094  1.00  0.00     0.239 C 
HETATM    3  O   UNL     1     -31.146  38.384 -54.058  1.00  0.00    -0.271 OA
HETATM    4  H   UNL     1     -33.818  39.856 -53.238  1.00  0.00     0.169 HD
ENDROOT
BRANCH   2   5
HETATM    5  C   UNL     1     -32.549  39.836 -55.404  1.00  0.00     0.148 C 
HETATM    6  C   UNL     1     -31.440  39.841 -56.449  1.00  0.00     0.036 C 
BRANCH   5   7
HETATM    7  N   UNL     1     -33.178  41.171 -55.230  1.00  0.00    -0.278 NA
HETATM    8  H   UNL     1     -32.591  41.871 -55.702  1.00  0.00     0.128 HD
BRANCH   7   9
HETATM    9  C   UNL     1     -34.503  41.472 -55.581  1.00  0.00     0.044 C 
HETATM   10  C   UNL     1     -35.487  41.487 -54.568  1.00  0.00     0.089 C 
HETATM   11  C   UNL     1     -36.798  41.859 -54.862  1.00  0.00     0.041 C 
HETATM   12  C   UNL     1     -37.153  42.200 -56.170  1.00  0.00     0.032 C 
HETATM   13  C   UNL     1     -36.216  42.129 -57.198  1.00  0.00     0.036 C 
HETATM   14  C   UNL     1     -34.911  41.707 -56.900  1.00  0.00     0.055 C 
BRANCH  10  15
HETATM   15  O   UNL     1     -35.039  41.170 -53.304  1.00  0.00    -0.354 OA
HETATM   16  C   UNL     1     -35.414  42.082 -52.277  1.00  0.00     0.210 C 
ENDBRANCH  10  15
BRANCH  13  17
HETATM   17  N   UNL     1     -36.481  42.508 -58.532  1.00  0.00    -0.327 N 
HETATM   18  C   UNL     1     -37.283  41.844 -59.446  1.00  0.00     0.218 C 
HETATM   19  C   UNL     1     -37.453  42.616 -60.730  1.00  0.00     0.117 C 
HETATM   20  O   UNL     1     -37.869  40.781 -59.275  1.00  0.00    -0.274 OA
HETATM   21  H   UNL     1     -36.091  43.392 -58.833  1.00  0.00     0.169 HD
ENDBRANCH  13  17
ENDBRANCH   7   9
ENDBRANCH   5   7
ENDBRANCH   2   5
BRANCH   1  22
HETATM   22  C   UNL     1     -32.779  39.084 -51.658  1.00  0.00     0.034 A 
HETATM   23  C   UNL     1     -33.030  37.833 -51.099  1.00  0.00     0.030 A 
HETATM   24  C   UNL     1     -32.764  37.597 -49.739  1.00  0.00     0.016 A 
HETATM   25  C   UNL     1     -32.246  38.607 -48.913  1.00  0.00    -0.000 A 
HETATM   26  C   UNL     1     -32.012  39.864 -49.490  1.00  0.00     0.016 A 
HETATM   27  C   UNL     1     -32.276  40.100 -50.840  1.00  0.00     0.030 A 
BRANCH  25  28
HETATM   28  C   UNL     1     -31.913  38.425 -47.484  1.00  0.00     0.109 A 
HETATM   29  N   UNL     1     -30.928  39.070 -46.889  1.00  0.00    -0.240 NA
HETATM   30  C   UNL     1     -30.860  38.733 -45.551  1.00  0.00     0.075 A 
HETATM   31  C   UNL     1     -31.813  37.814 -45.119  1.00  0.00     0.036 A 
HETATM   32  C   UNL     1     -29.931  39.238 -44.621  1.00  0.00     0.033 A 
HETATM   33  C   UNL     1     -31.874  37.379 -43.784  1.00  0.00     0.028 A 
HETATM   34  S   UNL     1     -32.805  37.374 -46.455  1.00  0.00    -0.067 SA
HETATM   35  C   UNL     1     -30.945  37.895 -42.865  1.00  0.00    -0.061 A 
HETATM   36  C   UNL     1     -30.975  37.464 -41.426  1.00  0.00     0.048 C 
HETATM   37  C   UNL     1     -29.982  38.815 -43.288  1.00  0.00     0.009 A 
ENDBRANCH  25  28
ENDBRANCH   1  22
TORSDOF 7
ENDMDL
MODEL 8
REMARK VINA RESULT:      -8.3     20.487     23.826
REMARK  7 active torsions:
REMARK  status: ('A' for Active; 'I' for Inactive)
REMARK    1  A    between atoms: C_7  and  C_8 
REMARK    2  A    between atoms: C_11  and  N_12 
REMARK       I    between atoms: N_12  and  C_13 
REMARK    3  A    between atoms: C_13  and  C_14 
REMARK    4  A    between atoms: C_14  and  N_15 
REMARK    5  A    between atoms: N_15  and  C_16 
REMARK    6  A    between atoms: C_17  and  O_18 
REMARK    7  A    between atoms: C_22  and  N_23 
REMARK       I    between atoms: N_23  and  C_24 
ROOT
HETATM    1  N   UNL     1     -34.248  39.450 -53.789  1.00  0.00    -0.326 N 
HETATM    2  C   UNL     1     -35.459  38.911 -54.178  1.00  0.00     0.239 C 
HETATM    3  O   UNL     1     -36.337  38.516 -53.412  1.00  0.00    -0.271 OA
HETATM    4  H   UNL     1     -33.718  39.890 -54.522  1.00  0.00     0.169 HD
ENDROOT
BRANCH   2   5
HETATM    5  C   UNL     1     -35.623  38.773 -55.717  1.00  0.00     0.148 C 
HETATM    6  C   UNL     1     -34.427  39.316 -56.490  1.00  0.00     0.036 C 
BRANCH   5   7
HETATM    7  N   UNL     1     -36.921  39.238 -56.270  1.00  0.00    -0.278 NA
HETATM    8  H   UNL     1     -37.437  39.724 -55.525  1.00  0.00     0.128 HD
BRANCH   7   9
HETATM    9  C   UNL     1     -37.051  40.034 -57.418  1.00  0.00     0.044 C 
HETATM   10  C   UNL     1     -37.214  41.428 -57.263  1.00  0.00     0.089 C 
HETATM   11  C   UNL     1     -37.268  42.262 -58.379  1.00  0.00     0.041 C 
HETATM   12  C   UNL     1     -37.179  41.719 -59.664  1.00  0.00     0.032 C 
HETATM   13  C   UNL     1     -37.084  40.341 -59.845  1.00  0.00     0.036 C 
HETATM   14  C   UNL     1     -37.081  39.508 -58.716  1.00  0.00     0.055 C 
BRANCH  10  15
HETATM   15  O   UNL     1     -37.257  41.877 -55.961  1.00  0.00    -0.354 OA
HETATM   16  C   UNL     1     -36.052  42.462 -55.477  1.00  0.00     0.210 C 
ENDBRANCH  10  15
BRANCH  13  17
HETATM   17  N   UNL     1     -36.938  39.721 -61.105  1.00  0.00    -0.327 N 
HETATM   18  C   UNL     1     -37.853  38.902 -61.744  1.00  0.00     0.218 C 
HETATM   19  C   UNL     1     -37.419  38.537 -63.142  1.00  0.00     0.117 C 
HETATM   20  O   UNL     1     -38.937  38.529 -61.310  1.00  0.00    -0.274 OA
HETATM   21  H   UNL     1     -36.098  39.949 -61.621  1.00  0.00     0.169 HD
ENDBRANCH  13  17
ENDBRANCH   7   9
ENDBRANCH   5   7
ENDBRANCH   2   5
BRANCH   1  22
HETATM   22  C   UNL     1     -33.685  39.550 -52.509  1.00  0.00     0.034 A 
HETATM   23  C   UNL     1     -33.986  40.549 -51.586  1.00  0.00     0.030 A 
HETATM   24  C   UNL     1     -33.416  40.524 -50.302  1.00  0.00     0.016 A 
HETATM   25  C   UNL     1     -32.534  39.502 -49.916  1.00  0.00    -0.000 A 
HETATM   26  C   UNL     1     -32.233  38.512 -50.863  1.00  0.00     0.016 A 
HETATM   27  C   UNL     1     -32.797  38.536 -52.140  1.00  0.00     0.030 A 
BRANCH  25  28
HETATM   28  C   UNL     1     -31.921  39.393 -48.576  1.00  0.00     0.109 A 
HETATM   29  N   UNL     1     -31.150  40.331 -48.061  1.00  0.00    -0.240 NA
HETATM   30  C   UNL     1     -30.737  39.983 -46.789  1.00  0.00     0.075 A 
HETATM   31  C   UNL     1     -31.204  38.755 -46.328  1.00  0.00     0.036 A 
HETATM   32  C   UNL     1     -29.910  40.755 -45.951  1.00  0.00     0.033 A 
HETATM   33  C   UNL     1     -30.876  38.268 -45.050  1.00  0.00     0.028 A 
HETATM   34  S   UNL     1     -32.182  38.037 -47.549  1.00  0.00    -0.067 SA
HETATM   35  C   UNL     1     -30.054  39.051 -44.223  1.00  0.00    -0.061 A 
HETATM   36  C   UNL     1     -29.681  38.575 -42.847  1.00  0.00     0.048 C 
HETATM   37  C   UNL     1     -29.577  40.282 -44.677  1.00  0.00     0.009 A 
ENDBRANCH  25  28
ENDBRANCH   1  22
TORSDOF 7
ENDMDL
MODEL 9
REMARK VINA RESULT:      -8.2     20.397     23.887
REMARK  7 active torsions:
REMARK  status: ('A' for Active; 'I' for Inactive)
REMARK    1  A    between atoms: C_7  and  C_8 
REMARK    2  A    between atoms: C_11  and  N_12 
REMARK       I    between atoms: N_12  and  C_13 
REMARK    3  A    between atoms: C_13  and  C_14 
REMARK    4  A    between atoms: C_14  and  N_15 
REMARK    5  A    between atoms: N_15  and  C_16 
REMARK    6  A    between atoms: C_17  and  O_18 
REMARK    7  A    between atoms: C_22  and  N_23 
REMARK       I    between atoms: N_23  and  C_24 
ROOT
HETATM    1  N   UNL     1     -34.470  40.890 -53.464  1.00  0.00    -0.326 N 
HETATM    2  C   UNL     1     -35.353  41.931 -53.674  1.00  0.00     0.239 C 
HETATM    3  O   UNL     1     -35.591  42.832 -52.871  1.00  0.00    -0.271 OA
HETATM    4  H   UNL     1     -34.250  40.341 -54.277  1.00  0.00     0.169 HD
ENDROOT
BRANCH   2   5
HETATM    5  C   UNL     1     -36.107  41.853 -55.030  1.00  0.00     0.148 C 
HETATM    6  C   UNL     1     -37.221  40.813 -55.029  1.00  0.00     0.036 C 
BRANCH   5   7
HETATM    7  N   UNL     1     -35.250  41.772 -56.240  1.00  0.00    -0.278 NA
HETATM    8  H   UNL     1     -34.282  41.992 -55.969  1.00  0.00     0.128 HD
BRANCH   7   9
HETATM    9  C   UNL     1     -35.174  40.652 -57.081  1.00  0.00     0.044 C 
HETATM   10  C   UNL     1     -34.143  39.710 -56.867  1.00  0.00     0.089 C 
HETATM   11  C   UNL     1     -34.080  38.545 -57.630  1.00  0.00     0.041 C 
HETATM   12  C   UNL     1     -35.029  38.309 -58.628  1.00  0.00     0.032 C 
HETATM   13  C   UNL     1     -36.016  39.253 -58.902  1.00  0.00     0.036 C 
HETATM   14  C   UNL     1     -36.040  40.445 -58.162  1.00  0.00     0.055 C 
BRANCH  10  15
HETATM   15  O   UNL     1     -33.274  40.009 -55.840  1.00  0.00    -0.354 OA
HETATM   16  C   UNL     1     -31.894  40.009 -56.189  1.00  0.00     0.210 C 
ENDBRANCH  10  15
BRANCH  13  17
HETATM   17  N   UNL     1     -37.041  39.066 -59.856  1.00  0.00    -0.327 N 
HETATM   18  C   UNL     1     -36.887  38.842 -61.215  1.00  0.00     0.218 C 
HETATM   19  C   UNL     1     -38.197  38.542 -61.899  1.00  0.00     0.117 C 
HETATM   20  O   UNL     1     -35.835  38.814 -61.841  1.00  0.00    -0.274 OA
HETATM   21  H   UNL     1     -37.986  39.032 -59.497  1.00  0.00     0.169 HD
ENDBRANCH  13  17
ENDBRANCH   7   9
ENDBRANCH   5   7
ENDBRANCH   2   5
BRANCH   1  22
HETATM   22  C   UNL     1     -33.768  40.535 -52.302  1.00  0.00     0.034 A 
HETATM   23  C   UNL     1     -32.380  40.515 -52.191  1.00  0.00     0.030 A 
HETATM   24  C   UNL     1     -31.771  40.208 -50.961  1.00  0.00     0.016 A 
HETATM   25  C   UNL     1     -32.538  39.914 -49.822  1.00  0.00    -0.000 A 
HETATM   26  C   UNL     1     -33.934  39.927 -49.958  1.00  0.00     0.016 A 
HETATM   27  C   UNL     1     -34.540  40.231 -51.177  1.00  0.00     0.030 A 
BRANCH  25  28
HETATM   28  C   UNL     1     -31.971  39.613 -48.492  1.00  0.00     0.109 A 
HETATM   29  N   UNL     1     -31.054  40.366 -47.914  1.00  0.00    -0.240 NA
HETATM   30  C   UNL     1     -30.726  39.870 -46.667  1.00  0.00     0.075 A 
HETATM   31  C   UNL     1     -31.407  38.716 -46.288  1.00  0.00     0.036 A 
HETATM   32  C   UNL     1     -29.787  40.430 -45.780  1.00  0.00     0.033 A 
HETATM   33  C   UNL     1     -31.186  38.099 -45.044  1.00  0.00     0.028 A 
HETATM   34  S   UNL     1     -32.480  38.262 -47.555  1.00  0.00    -0.067 SA
HETATM   35  C   UNL     1     -30.251  38.670 -44.166  1.00  0.00    -0.061 A 
HETATM   36  C   UNL     1     -29.985  38.049 -42.824  1.00  0.00     0.048 C 
HETATM   37  C   UNL     1     -29.559  39.825 -44.538  1.00  0.00     0.009 A 
ENDBRANCH  25  28
ENDBRANCH   1  22
TORSDOF 7
ENDMDL
MODEL 10
REMARK VINA RESULT:      -8.2      2.167      2.315
REMARK  7 active torsions:
REMARK  status: ('A' for Active; 'I' for Inactive)
REMARK    1  A    between atoms: C_7  and  C_8 
REMARK    2  A    between atoms: C_11  and  N_12 
REMARK       I    between atoms: N_12  and  C_13 
REMARK    3  A    between atoms: C_13  and  C_14 
REMARK    4  A    between atoms: C_14  and  N_15 
REMARK    5  A    between atoms: N_15  and  C_16 
REMARK    6  A    between atoms: C_17  and  O_18 
REMARK    7  A    between atoms: C_22  and  N_23 
REMARK       I    between atoms: N_23  and  C_24 
ROOT
HETATM    1  N   UNL     1     -43.492  60.692 -51.800  1.00  0.00    -0.326 N 
HETATM    2  C   UNL     1     -43.060  61.640 -50.893  1.00  0.00     0.239 C 
HETATM    3  O   UNL     1     -41.982  61.614 -50.301  1.00  0.00    -0.271 OA
HETATM    4  H   UNL     1     -44.308  60.944 -52.331  1.00  0.00     0.169 HD
ENDROOT
BRANCH   2   5
HETATM    5  C   UNL     1     -44.098  62.761 -50.611  1.00  0.00     0.148 C 
HETATM    6  C   UNL     1     -43.591  63.801 -49.619  1.00  0.00     0.036 C 
BRANCH   5   7
HETATM    7  N   UNL     1     -45.476  62.299 -50.301  1.00  0.00    -0.278 NA
HETATM    8  H   UNL     1     -45.534  61.292 -50.501  1.00  0.00     0.128 HD
BRANCH   7   9
HETATM    9  C   UNL     1     -46.114  62.489 -49.066  1.00  0.00     0.044 C 
HETATM   10  C   UNL     1     -46.985  63.592 -48.914  1.00  0.00     0.089 C 
HETATM   11  C   UNL     1     -47.698  63.770 -47.730  1.00  0.00     0.041 C 
HETATM   12  C   UNL     1     -47.541  62.868 -46.674  1.00  0.00     0.032 C 
HETATM   13  C   UNL     1     -46.640  61.811 -46.776  1.00  0.00     0.036 C 
HETATM   14  C   UNL     1     -45.891  61.668 -47.954  1.00  0.00     0.055 C 
BRANCH  10  15
HETATM   15  O   UNL     1     -47.103  64.407 -50.017  1.00  0.00    -0.354 OA
HETATM   16  C   UNL     1     -48.303  64.251 -50.767  1.00  0.00     0.210 C 
ENDBRANCH  10  15
BRANCH  13  17
HETATM   17  N   UNL     1     -46.464  60.828 -45.777  1.00  0.00    -0.327 N 
HETATM   18  C   UNL     1     -46.573  59.455 -45.927  1.00  0.00     0.218 C 
HETATM   19  C   UNL     1     -46.174  58.708 -44.679  1.00  0.00     0.117 C 
HETATM   20  O   UNL     1     -46.889  58.849 -46.943  1.00  0.00    -0.274 OA
HETATM   21  H   UNL     1     -46.166  61.161 -44.869  1.00  0.00     0.169 HD
ENDBRANCH  13  17
ENDBRANCH   7   9
ENDBRANCH   5   7
ENDBRANCH   2   5
BRANCH   1  22
HETATM   22  C   UNL     1     -42.914  59.463 -52.151  1.00  0.00     0.034 A 
HETATM   23  C   UNL     1     -41.715  59.321 -52.845  1.00  0.00     0.030 A 
HETATM   24  C   UNL     1     -41.185  58.042 -53.091  1.00  0.00     0.016 A 
HETATM   25  C   UNL     1     -41.843  56.883 -52.650  1.00  0.00    -0.000 A 
HETATM   26  C   UNL     1     -43.056  57.046 -51.964  1.00  0.00     0.016 A 
HETATM   27  C   UNL     1     -43.584  58.314 -51.719  1.00  0.00     0.030 A 
BRANCH  25  28
HETATM   28  C   UNL     1     -41.333  55.510 -52.844  1.00  0.00     0.109 A 
HETATM   29  N   UNL     1     -40.845  54.780 -51.860  1.00  0.00    -0.240 NA
HETATM   30  C   UNL     1     -40.468  53.531 -52.316  1.00  0.00     0.075 A 
HETATM   31  C   UNL     1     -40.674  53.307 -53.675  1.00  0.00     0.036 A 
HETATM   32  C   UNL     1     -39.914  52.501 -51.533  1.00  0.00     0.033 A 
HETATM   33  C   UNL     1     -40.347  52.083 -54.284  1.00  0.00     0.028 A 
HETATM   34  S   UNL     1     -41.356  54.725 -54.375  1.00  0.00    -0.067 SA
HETATM   35  C   UNL     1     -39.801  51.062 -53.490  1.00  0.00    -0.061 A 
HETATM   36  C   UNL     1     -39.441  49.734 -54.095  1.00  0.00     0.048 C 
HETATM   37  C   UNL     1     -39.586  51.276 -52.126  1.00  0.00     0.009 A 
ENDBRANCH  25  28
ENDBRANCH   1  22
TORSDOF 7
ENDMDL
