MODEL 1
REMARK VINA RESULT:      -8.0      0.000      0.000
REMARK  3 active torsions:
REMARK  status: ('A' for Active; 'I' for Inactive)
REMARK    1  A    between atoms: C_7  and  C_8 
REMARK       I    between atoms: C_8  and  N_9 
REMARK    2  A    between atoms: C_19  and  C_20 
REMARK    3  A    between atoms: C_22  and  O_23 
ROOT
HETATM    1  C   UNL     1     -37.977  40.660 -57.049  1.00  0.00     0.258 C 
HETATM    2  N   UNL     1     -36.835  40.969 -56.309  1.00  0.00    -0.340 N 
HETATM    3  C   UNL     1     -35.440  40.764 -56.680  1.00  0.00     0.123 C 
HETATM    4  C   UNL     1     -34.622  41.453 -55.549  1.00  0.00     0.221 C 
HETATM    5  N   UNL     1     -33.611  40.456 -54.971  1.00  0.00    -0.064 N 
HETATM    6  H   UNL     1     -33.079  40.910 -54.216  1.00  0.00     0.280 HD
HETATM    7  C   UNL     1     -34.200  39.169 -54.409  1.00  0.00     0.236 C 
HETATM    8  C   UNL     1     -35.148  38.579 -55.443  1.00  0.00     0.034 C 
HETATM    9  C   UNL     1     -34.973  39.292 -56.795  1.00  0.00     0.014 C 
HETATM   10  C   UNL     1     -33.466  39.291 -57.145  1.00  0.00     0.034 C 
HETATM   11  C   UNL     1     -32.652  40.055 -56.089  1.00  0.00     0.236 C 
HETATM   12  C   UNL     1     -35.641  42.121 -54.582  1.00  0.00     0.070 C 
HETATM   13  C   UNL     1     -36.951  42.083 -55.380  1.00  0.00     0.138 C 
HETATM   14  O   UNL     1     -39.099  40.803 -56.578  1.00  0.00    -0.267 OA
ENDROOT
BRANCH   1  15
HETATM   15  C   UNL     1     -37.784  40.303 -58.429  1.00  0.00     0.089 C 
HETATM   16  C   UNL     1     -37.768  38.994 -58.981  1.00  0.00     0.076 C 
HETATM   17  C   UNL     1     -37.902  37.700 -58.270  1.00  0.00     0.074 C 
HETATM   18  N   UNL     1     -37.592  39.030 -60.305  1.00  0.00    -0.132 NA
HETATM   19  O   UNL     1     -37.367  40.358 -60.616  1.00  0.00    -0.217 OA
HETATM   20  C   UNL     1     -37.442  41.112 -59.487  1.00  0.00     0.092 C 
HETATM   21  C   UNL     1     -37.162  42.549 -59.658  1.00  0.00     0.080 C 
ENDBRANCH   1  15
BRANCH  12  22
HETATM   22  C   UNL     1     -35.738  41.625 -53.155  1.00  0.00    -0.048 A 
HETATM   23  C   UNL     1     -36.825  40.865 -52.681  1.00  0.00     0.044 A 
HETATM   24  C   UNL     1     -36.852  40.433 -51.358  1.00  0.00     0.066 A 
HETATM   25  C   UNL     1     -35.817  40.737 -50.485  1.00  0.00     0.036 A 
HETATM   26  C   UNL     1     -34.746  41.506 -50.931  1.00  0.00     0.003 A 
HETATM   27  C   UNL     1     -34.707  41.952 -52.254  1.00  0.00     0.008 A 
BRANCH  24  28
HETATM   28  O   UNL     1     -37.885  39.686 -50.881  1.00  0.00    -0.361 OA
HETATM   29  H   UNL     1     -37.582  39.141 -50.135  1.00  0.00     0.217 HD
ENDBRANCH  24  28
ENDBRANCH  12  22
TORSDOF 3
ENDMDL
MODEL 2
REMARK VINA RESULT:      -7.4     16.969     18.796
REMARK  3 active torsions:
REMARK  status: ('A' for Active; 'I' for Inactive)
REMARK    1  A    between atoms: C_7  and  C_8 
REMARK       I    between atoms: C_8  and  N_9 
REMARK    2  A    between atoms: C_19  and  C_20 
REMARK    3  A    between atoms: C_22  and  O_23 
ROOT
HETATM    1  C   UNL     1     -42.902  54.759 -51.469  1.00  0.00     0.258 C 
HETATM    2  N   UNL     1     -43.036  55.990 -52.113  1.00  0.00    -0.340 N 
HETATM    3  C   UNL     1     -42.014  56.746 -52.828  1.00  0.00     0.123 C 
HETATM    4  C   UNL     1     -42.782  57.937 -53.473  1.00  0.00     0.221 C 
HETATM    5  N   UNL     1     -42.105  59.254 -53.074  1.00  0.00    -0.064 N 
HETATM    6  H   UNL     1     -42.620  60.041 -53.494  1.00  0.00     0.280 HD
HETATM    7  C   UNL     1     -42.002  59.517 -51.578  1.00  0.00     0.236 C 
HETATM    8  C   UNL     1     -41.418  58.280 -50.909  1.00  0.00     0.034 C 
HETATM    9  C   UNL     1     -40.859  57.315 -51.969  1.00  0.00     0.014 C 
HETATM   10  C   UNL     1     -39.919  58.119 -52.899  1.00  0.00     0.034 C 
HETATM   11  C   UNL     1     -40.681  59.239 -53.623  1.00  0.00     0.236 C 
HETATM   12  C   UNL     1     -44.291  57.749 -53.146  1.00  0.00     0.070 C 
HETATM   13  C   UNL     1     -44.355  56.301 -52.639  1.00  0.00     0.138 C 
HETATM   14  O   UNL     1     -43.824  54.274 -50.824  1.00  0.00    -0.267 OA
ENDROOT
BRANCH   1  15
HETATM   15  C   UNL     1     -41.690  54.023 -51.711  1.00  0.00     0.089 C 
HETATM   16  C   UNL     1     -40.585  53.878 -50.830  1.00  0.00     0.076 C 
HETATM   17  C   UNL     1     -40.402  54.478 -49.486  1.00  0.00     0.074 C 
HETATM   18  N   UNL     1     -39.637  53.103 -51.366  1.00  0.00    -0.132 NA
HETATM   19  O   UNL     1     -40.060  52.834 -52.655  1.00  0.00    -0.217 OA
HETATM   20  C   UNL     1     -41.268  53.419 -52.872  1.00  0.00     0.092 C 
HETATM   21  C   UNL     1     -41.817  53.266 -54.232  1.00  0.00     0.080 C 
ENDBRANCH   1  15
BRANCH  12  22
HETATM   22  C   UNL     1     -44.990  58.771 -52.276  1.00  0.00    -0.048 A 
HETATM   23  C   UNL     1     -45.164  58.604 -50.889  1.00  0.00     0.044 A 
HETATM   24  C   UNL     1     -45.810  59.586 -50.142  1.00  0.00     0.066 A 
HETATM   25  C   UNL     1     -46.293  60.740 -50.743  1.00  0.00     0.036 A 
HETATM   26  C   UNL     1     -46.149  60.910 -52.117  1.00  0.00     0.003 A 
HETATM   27  C   UNL     1     -45.507  59.933 -52.880  1.00  0.00     0.008 A 
BRANCH  24  28
HETATM   28  O   UNL     1     -45.978  59.454 -48.798  1.00  0.00    -0.361 OA
HETATM   29  H   UNL     1     -45.167  59.099 -48.397  1.00  0.00     0.217 HD
ENDBRANCH  24  28
ENDBRANCH  12  22
TORSDOF 3
ENDMDL
MODEL 3
REMARK VINA RESULT:      -7.3      1.054      2.050
REMARK  3 active torsions:
REMARK  status: ('A' for Active; 'I' for Inactive)
REMARK    1  A    between atoms: C_7  and  C_8 
REMARK       I    between atoms: C_8  and  N_9 
REMARK    2  A    between atoms: C_19  and  C_20 
REMARK    3  A    between atoms: C_22  and  O_23 
ROOT
HETATM    1  C   UNL     1     -37.828  40.555 -57.072  1.00  0.00     0.258 C 
HETATM    2  N   UNL     1     -36.644  40.744 -56.359  1.00  0.00    -0.340 N 
HETATM    3  C   UNL     1     -35.287  40.384 -56.758  1.00  0.00     0.123 C 
HETATM    4  C   UNL     1     -34.375  40.989 -55.651  1.00  0.00     0.221 C 
HETATM    5  N   UNL     1     -33.466  39.891 -55.085  1.00  0.00    -0.064 N 
HETATM    6  H   UNL     1     -32.871  40.291 -54.346  1.00  0.00     0.280 HD
HETATM    7  C   UNL     1     -34.179  38.681 -54.497  1.00  0.00     0.236 C 
HETATM    8  C   UNL     1     -35.208  38.190 -55.506  1.00  0.00     0.034 C 
HETATM    9  C   UNL     1     -34.986  38.870 -56.868  1.00  0.00     0.014 C 
HETATM   10  C   UNL     1     -33.496  38.702 -57.249  1.00  0.00     0.034 C 
HETATM   11  C   UNL     1     -32.581  39.380 -56.219  1.00  0.00     0.236 C 
HETATM   12  C   UNL     1     -35.293  41.772 -54.669  1.00  0.00     0.070 C 
HETATM   13  C   UNL     1     -36.617  41.870 -55.440  1.00  0.00     0.138 C 
HETATM   14  O   UNL     1     -38.918  40.823 -56.579  1.00  0.00    -0.267 OA
ENDROOT
BRANCH   1  15
HETATM   15  C   UNL     1     -37.706  40.169 -58.452  1.00  0.00     0.089 C 
HETATM   16  C   UNL     1     -37.410  41.013 -59.555  1.00  0.00     0.076 C 
HETATM   17  C   UNL     1     -37.200  42.481 -59.553  1.00  0.00     0.074 C 
HETATM   18  N   UNL     1     -37.345  40.317 -60.694  1.00  0.00    -0.132 NA
HETATM   19  O   UNL     1     -37.721  39.027 -60.365  1.00  0.00    -0.217 OA
HETATM   20  C   UNL     1     -37.975  38.951 -59.031  1.00  0.00     0.092 C 
HETATM   21  C   UNL     1     -38.448  37.642 -58.545  1.00  0.00     0.080 C 
ENDBRANCH   1  15
BRANCH  12  22
HETATM   22  C   UNL     1     -35.413  41.300 -53.236  1.00  0.00    -0.048 A 
HETATM   23  C   UNL     1     -34.323  41.276 -52.345  1.00  0.00     0.044 A 
HETATM   24  C   UNL     1     -34.499  40.836 -51.036  1.00  0.00     0.066 A 
HETATM   25  C   UNL     1     -35.742  40.416 -50.584  1.00  0.00     0.036 A 
HETATM   26  C   UNL     1     -36.825  40.413 -51.458  1.00  0.00     0.003 A 
HETATM   27  C   UNL     1     -36.663  40.846 -52.775  1.00  0.00     0.008 A 
BRANCH  24  28
HETATM   28  O   UNL     1     -33.464  40.817 -50.152  1.00  0.00    -0.361 OA
HETATM   29  H   UNL     1     -33.063  41.700 -50.094  1.00  0.00     0.217 HD
ENDBRANCH  24  28
ENDBRANCH  12  22
TORSDOF 3
ENDMDL
MODEL 4
REMARK VINA RESULT:      -7.3     16.315     18.052
REMARK  3 active torsions:
REMARK  status: ('A' for Active; 'I' for Inactive)
REMARK    1  A    between atoms: C_7  and  C_8 
REMARK       I    between atoms: C_8  and  N_9 
REMARK    2  A    between atoms: C_19  and  C_20 
REMARK    3  A    between atoms: C_22  and  O_23 
ROOT
HETATM    1  C   UNL     1     -43.459  57.011 -56.642  1.00  0.00     0.258 C 
HETATM    2  N   UNL     1     -43.409  56.697 -55.283  1.00  0.00    -0.340 N 
HETATM    3  C   UNL     1     -43.553  57.600 -54.147  1.00  0.00     0.123 C 
HETATM    4  C   UNL     1     -43.582  56.667 -52.901  1.00  0.00     0.221 C 
HETATM    5  N   UNL     1     -42.517  57.126 -51.897  1.00  0.00    -0.064 N 
HETATM    6  H   UNL     1     -42.531  56.501 -51.078  1.00  0.00     0.280 HD
HETATM    7  C   UNL     1     -41.088  57.165 -52.422  1.00  0.00     0.236 C 
HETATM    8  C   UNL     1     -41.079  57.923 -53.742  1.00  0.00     0.034 C 
HETATM    9  C   UNL     1     -42.423  58.640 -53.954  1.00  0.00     0.014 C 
HETATM   10  C   UNL     1     -42.735  59.459 -52.678  1.00  0.00     0.034 C 
HETATM   11  C   UNL     1     -42.867  58.543 -51.452  1.00  0.00     0.236 C 
HETATM   12  C   UNL     1     -43.532  55.201 -53.417  1.00  0.00     0.070 C 
HETATM   13  C   UNL     1     -43.827  55.353 -54.916  1.00  0.00     0.138 C 
HETATM   14  O   UNL     1     -43.231  56.164 -57.499  1.00  0.00    -0.267 OA
ENDROOT
BRANCH   1  15
HETATM   15  C   UNL     1     -43.925  58.325 -56.993  1.00  0.00     0.089 C 
HETATM   16  C   UNL     1     -45.274  58.750 -57.119  1.00  0.00     0.076 C 
HETATM   17  C   UNL     1     -46.507  57.941 -56.961  1.00  0.00     0.074 C 
HETATM   18  N   UNL     1     -45.346  60.048 -57.432  1.00  0.00    -0.132 NA
HETATM   19  O   UNL     1     -44.040  60.455 -57.636  1.00  0.00    -0.217 OA
HETATM   20  C   UNL     1     -43.195  59.413 -57.412  1.00  0.00     0.092 C 
HETATM   21  C   UNL     1     -41.766  59.685 -57.653  1.00  0.00     0.080 C 
ENDBRANCH   1  15
BRANCH  12  22
HETATM   22  C   UNL     1     -42.335  54.339 -53.077  1.00  0.00    -0.048 A 
HETATM   23  C   UNL     1     -42.059  53.894 -51.770  1.00  0.00     0.044 A 
HETATM   24  C   UNL     1     -40.944  53.097 -51.524  1.00  0.00     0.066 A 
HETATM   25  C   UNL     1     -40.089  52.727 -52.552  1.00  0.00     0.036 A 
HETATM   26  C   UNL     1     -40.335  53.177 -53.845  1.00  0.00     0.003 A 
HETATM   27  C   UNL     1     -41.446  53.981 -54.108  1.00  0.00     0.008 A 
BRANCH  24  28
HETATM   28  O   UNL     1     -40.664  52.644 -50.271  1.00  0.00    -0.361 OA
HETATM   29  H   UNL     1     -41.429  52.789 -49.689  1.00  0.00     0.217 HD
ENDBRANCH  24  28
ENDBRANCH  12  22
TORSDOF 3
ENDMDL
MODEL 5
REMARK VINA RESULT:      -7.3     16.430     18.734
REMARK  3 active torsions:
REMARK  status: ('A' for Active; 'I' for Inactive)
REMARK    1  A    between atoms: C_7  and  C_8 
REMARK       I    between atoms: C_8  and  N_9 
REMARK    2  A    between atoms: C_19  and  C_20 
REMARK    3  A    between atoms: C_22  and  O_23 
ROOT
HETATM    1  C   UNL     1     -42.796  54.603 -54.380  1.00  0.00     0.258 C 
HETATM    2  N   UNL     1     -42.621  55.958 -54.663  1.00  0.00    -0.340 N 
HETATM    3  C   UNL     1     -41.962  56.971 -53.846  1.00  0.00     0.123 C 
HETATM    4  C   UNL     1     -41.923  58.242 -54.744  1.00  0.00     0.221 C 
HETATM    5  N   UNL     1     -42.545  59.420 -53.986  1.00  0.00    -0.064 N 
HETATM    6  H   UNL     1     -42.527  60.257 -54.585  1.00  0.00     0.280 HD
HETATM    7  C   UNL     1     -43.980  59.219 -53.517  1.00  0.00     0.236 C 
HETATM    8  C   UNL     1     -44.070  57.884 -52.791  1.00  0.00     0.034 C 
HETATM    9  C   UNL     1     -42.661  57.334 -52.513  1.00  0.00     0.014 C 
HETATM   10  C   UNL     1     -41.837  58.450 -51.827  1.00  0.00     0.034 C 
HETATM   11  C   UNL     1     -41.702  59.678 -52.739  1.00  0.00     0.236 C 
HETATM   12  C   UNL     1     -42.517  57.851 -56.127  1.00  0.00     0.070 C 
HETATM   13  C   UNL     1     -42.544  56.318 -56.070  1.00  0.00     0.138 C 
HETATM   14  O   UNL     1     -43.452  53.878 -55.118  1.00  0.00    -0.267 OA
ENDROOT
BRANCH   1  15
HETATM   15  C   UNL     1     -42.058  54.069 -53.267  1.00  0.00     0.089 C 
HETATM   16  C   UNL     1     -40.774  53.463 -53.302  1.00  0.00     0.076 C 
HETATM   17  C   UNL     1     -39.917  53.204 -54.485  1.00  0.00     0.074 C 
HETATM   18  N   UNL     1     -40.374  53.103 -52.079  1.00  0.00    -0.132 NA
HETATM   19  O   UNL     1     -41.448  53.357 -51.246  1.00  0.00    -0.217 OA
HETATM   20  C   UNL     1     -42.468  53.897 -51.966  1.00  0.00     0.092 C 
HETATM   21  C   UNL     1     -43.708  54.166 -51.215  1.00  0.00     0.080 C 
ENDBRANCH   1  15
BRANCH  12  22
HETATM   22  C   UNL     1     -43.803  58.505 -56.587  1.00  0.00    -0.048 A 
HETATM   23  C   UNL     1     -45.048  57.848 -56.557  1.00  0.00     0.044 A 
HETATM   24  C   UNL     1     -46.197  58.507 -56.989  1.00  0.00     0.066 A 
HETATM   25  C   UNL     1     -46.140  59.813 -57.454  1.00  0.00     0.036 A 
HETATM   26  C   UNL     1     -44.914  60.469 -57.511  1.00  0.00     0.003 A 
HETATM   27  C   UNL     1     -43.752  59.820 -57.086  1.00  0.00     0.008 A 
BRANCH  24  28
HETATM   28  O   UNL     1     -47.414  57.898 -56.957  1.00  0.00    -0.361 OA
HETATM   29  H   UNL     1     -47.300  56.939 -56.845  1.00  0.00     0.217 HD
ENDBRANCH  24  28
ENDBRANCH  12  22
TORSDOF 3
ENDMDL
MODEL 6
REMARK VINA RESULT:      -7.2     17.369     19.187
REMARK  3 active torsions:
REMARK  status: ('A' for Active; 'I' for Inactive)
REMARK    1  A    between atoms: C_7  and  C_8 
REMARK       I    between atoms: C_8  and  N_9 
REMARK    2  A    between atoms: C_19  and  C_20 
REMARK    3  A    between atoms: C_22  and  O_23 
ROOT
HETATM    1  C   UNL     1     -42.942  55.189 -51.154  1.00  0.00     0.258 C 
HETATM    2  N   UNL     1     -43.147  56.372 -51.867  1.00  0.00    -0.340 N 
HETATM    3  C   UNL     1     -42.206  57.074 -52.733  1.00  0.00     0.123 C 
HETATM    4  C   UNL     1     -43.040  58.218 -53.380  1.00  0.00     0.221 C 
HETATM    5  N   UNL     1     -42.334  59.559 -53.145  1.00  0.00    -0.064 N 
HETATM    6  H   UNL     1     -42.893  60.315 -53.565  1.00  0.00     0.280 HD
HETATM    7  C   UNL     1     -42.083  59.926 -51.689  1.00  0.00     0.236 C 
HETATM    8  C   UNL     1     -41.428  58.738 -50.997  1.00  0.00     0.034 C 
HETATM    9  C   UNL     1     -40.973  57.700 -52.037  1.00  0.00     0.014 C 
HETATM   10  C   UNL     1     -40.135  58.434 -53.111  1.00  0.00     0.034 C 
HETATM   11  C   UNL     1     -40.972  59.502 -53.831  1.00  0.00     0.236 C 
HETATM   12  C   UNL     1     -44.508  58.056 -52.890  1.00  0.00     0.070 C 
HETATM   13  C   UNL     1     -44.514  56.648 -52.279  1.00  0.00     0.138 C 
HETATM   14  O   UNL     1     -43.793  54.753 -50.388  1.00  0.00    -0.267 OA
ENDROOT
BRANCH   1  15
HETATM   15  C   UNL     1     -41.757  54.436 -51.465  1.00  0.00     0.089 C 
HETATM   16  C   UNL     1     -41.481  53.730 -52.666  1.00  0.00     0.076 C 
HETATM   17  C   UNL     1     -42.354  53.568 -53.854  1.00  0.00     0.074 C 
HETATM   18  N   UNL     1     -40.271  53.163 -52.627  1.00  0.00    -0.132 NA
HETATM   19  O   UNL     1     -39.794  53.390 -51.349  1.00  0.00    -0.217 OA
HETATM   20  C   UNL     1     -40.702  54.117 -50.643  1.00  0.00     0.092 C 
HETATM   21  C   UNL     1     -40.352  54.384 -49.236  1.00  0.00     0.080 C 
ENDBRANCH   1  15
BRANCH  12  22
HETATM   22  C   UNL     1     -45.121  59.139 -52.028  1.00  0.00    -0.048 A 
HETATM   23  C   UNL     1     -45.172  59.062 -50.624  1.00  0.00     0.044 A 
HETATM   24  C   UNL     1     -45.745  60.095 -49.887  1.00  0.00     0.066 A 
HETATM   25  C   UNL     1     -46.272  61.214 -50.515  1.00  0.00     0.036 A 
HETATM   26  C   UNL     1     -46.251  61.296 -51.904  1.00  0.00     0.003 A 
HETATM   27  C   UNL     1     -45.685  60.265 -52.658  1.00  0.00     0.008 A 
BRANCH  24  28
HETATM   28  O   UNL     1     -45.793  60.050 -48.527  1.00  0.00    -0.361 OA
HETATM   29  H   UNL     1     -46.050  59.159 -48.236  1.00  0.00     0.217 HD
ENDBRANCH  24  28
ENDBRANCH  12  22
TORSDOF 3
ENDMDL
MODEL 7
REMARK VINA RESULT:      -7.1     17.308     19.282
REMARK  3 active torsions:
REMARK  status: ('A' for Active; 'I' for Inactive)
REMARK    1  A    between atoms: C_7  and  C_8 
REMARK       I    between atoms: C_8  and  N_9 
REMARK    2  A    between atoms: C_19  and  C_20 
REMARK    3  A    between atoms: C_22  and  O_23 
ROOT
HETATM    1  C   UNL     1     -42.686  55.545 -54.095  1.00  0.00     0.258 C 
HETATM    2  N   UNL     1     -42.278  56.870 -53.937  1.00  0.00    -0.340 N 
HETATM    3  C   UNL     1     -41.353  57.415 -52.950  1.00  0.00     0.123 C 
HETATM    4  C   UNL     1     -41.155  58.901 -53.369  1.00  0.00     0.221 C 
HETATM    5  N   UNL     1     -41.454  59.812 -52.172  1.00  0.00    -0.064 N 
HETATM    6  H   UNL     1     -41.332  60.794 -52.454  1.00  0.00     0.280 HD
HETATM    7  C   UNL     1     -42.845  59.674 -51.569  1.00  0.00     0.236 C 
HETATM    8  C   UNL     1     -43.122  58.197 -51.323  1.00  0.00     0.034 C 
HETATM    9  C   UNL     1     -41.828  57.380 -51.477  1.00  0.00     0.014 C 
HETATM   10  C   UNL     1     -40.736  58.043 -50.604  1.00  0.00     0.034 C 
HETATM   11  C   UNL     1     -40.455  59.481 -51.066  1.00  0.00     0.236 C 
HETATM   12  C   UNL     1     -41.952  59.122 -54.686  1.00  0.00     0.070 C 
HETATM   13  C   UNL     1     -42.274  57.691 -55.138  1.00  0.00     0.138 C 
HETATM   14  O   UNL     1     -43.543  55.236 -54.914  1.00  0.00    -0.267 OA
ENDROOT
BRANCH   1  15
HETATM   15  C   UNL     1     -41.959  54.546 -53.359  1.00  0.00     0.089 C 
HETATM   16  C   UNL     1     -40.779  53.869 -53.769  1.00  0.00     0.076 C 
HETATM   17  C   UNL     1     -40.050  53.998 -55.054  1.00  0.00     0.074 C 
HETATM   18  N   UNL     1     -40.354  53.022 -52.827  1.00  0.00    -0.132 NA
HETATM   19  O   UNL     1     -41.322  53.047 -51.839  1.00  0.00    -0.217 OA
HETATM   20  C   UNL     1     -42.301  53.928 -52.179  1.00  0.00     0.092 C 
HETATM   21  C   UNL     1     -43.436  54.015 -51.243  1.00  0.00     0.080 C 
ENDBRANCH   1  15
BRANCH  12  22
HETATM   22  C   UNL     1     -43.124  60.080 -54.687  1.00  0.00    -0.048 A 
HETATM   23  C   UNL     1     -42.970  61.478 -54.739  1.00  0.00     0.044 A 
HETATM   24  C   UNL     1     -44.089  62.306 -54.744  1.00  0.00     0.066 A 
HETATM   25  C   UNL     1     -45.371  61.775 -54.699  1.00  0.00     0.036 A 
HETATM   26  C   UNL     1     -45.541  60.396 -54.625  1.00  0.00     0.003 A 
HETATM   27  C   UNL     1     -44.428  59.553 -54.614  1.00  0.00     0.008 A 
BRANCH  24  28
HETATM   28  O   UNL     1     -43.965  63.660 -54.808  1.00  0.00    -0.361 OA
HETATM   29  H   UNL     1     -43.276  63.958 -54.192  1.00  0.00     0.217 HD
ENDBRANCH  24  28
ENDBRANCH  12  22
TORSDOF 3
ENDMDL
MODEL 8
REMARK VINA RESULT:      -6.9      2.155      6.481
REMARK  3 active torsions:
REMARK  status: ('A' for Active; 'I' for Inactive)
REMARK    1  A    between atoms: C_7  and  C_8 
REMARK       I    between atoms: C_8  and  N_9 
REMARK    2  A    between atoms: C_19  and  C_20 
REMARK    3  A    between atoms: C_22  and  O_23 
ROOT
HETATM    1  C   UNL     1     -35.359  41.262 -52.860  1.00  0.00     0.258 C 
HETATM    2  N   UNL     1     -35.766  40.414 -53.891  1.00  0.00    -0.340 N 
HETATM    3  C   UNL     1     -35.337  39.044 -54.151  1.00  0.00     0.123 C 
HETATM    4  C   UNL     1     -36.247  38.558 -55.316  1.00  0.00     0.221 C 
HETATM    5  N   UNL     1     -35.372  38.024 -56.457  1.00  0.00    -0.064 N 
HETATM    6  H   UNL     1     -35.976  37.712 -57.230  1.00  0.00     0.280 HD
HETATM    7  C   UNL     1     -34.361  39.008 -57.029  1.00  0.00     0.236 C 
HETATM    8  C   UNL     1     -33.585  39.629 -55.876  1.00  0.00     0.034 C 
HETATM    9  C   UNL     1     -33.860  38.859 -54.573  1.00  0.00     0.014 C 
HETATM   10  C   UNL     1     -33.622  37.355 -54.847  1.00  0.00     0.034 C 
HETATM   11  C   UNL     1     -34.581  36.831 -55.927  1.00  0.00     0.236 C 
HETATM   12  C   UNL     1     -37.255  39.701 -55.626  1.00  0.00     0.070 C 
HETATM   13  C   UNL     1     -37.105  40.631 -54.414  1.00  0.00     0.138 C 
HETATM   14  O   UNL     1     -35.733  42.428 -52.811  1.00  0.00    -0.267 OA
ENDROOT
BRANCH   1  15
HETATM   15  C   UNL     1     -34.604  40.672 -51.789  1.00  0.00     0.089 C 
HETATM   16  C   UNL     1     -35.113  40.121 -50.583  1.00  0.00     0.076 C 
HETATM   17  C   UNL     1     -36.524  40.061 -50.129  1.00  0.00     0.074 C 
HETATM   18  N   UNL     1     -34.131  39.632 -49.820  1.00  0.00    -0.132 NA
HETATM   19  O   UNL     1     -32.955  39.970 -50.465  1.00  0.00    -0.217 OA
HETATM   20  C   UNL     1     -33.239  40.627 -51.621  1.00  0.00     0.092 C 
HETATM   21  C   UNL     1     -32.075  41.105 -52.388  1.00  0.00     0.080 C 
ENDBRANCH   1  15
BRANCH  12  22
HETATM   22  C   UNL     1     -37.202  40.385 -56.976  1.00  0.00    -0.048 A 
HETATM   23  C   UNL     1     -37.573  39.743 -58.173  1.00  0.00     0.044 A 
HETATM   24  C   UNL     1     -37.508  40.429 -59.383  1.00  0.00     0.066 A 
HETATM   25  C   UNL     1     -37.082  41.749 -59.435  1.00  0.00     0.036 A 
HETATM   26  C   UNL     1     -36.691  42.391 -58.264  1.00  0.00     0.003 A 
HETATM   27  C   UNL     1     -36.745  41.714 -57.043  1.00  0.00     0.008 A 
BRANCH  24  28
HETATM   28  O   UNL     1     -37.874  39.835 -60.552  1.00  0.00    -0.361 OA
HETATM   29  H   UNL     1     -37.448  38.965 -60.627  1.00  0.00     0.217 HD
ENDBRANCH  24  28
ENDBRANCH  12  22
TORSDOF 3
ENDMDL
MODEL 9
REMARK VINA RESULT:      -6.8     17.333     19.836
REMARK  3 active torsions:
REMARK  status: ('A' for Active; 'I' for Inactive)
REMARK    1  A    between atoms: C_7  and  C_8 
REMARK       I    between atoms: C_8  and  N_9 
REMARK    2  A    between atoms: C_19  and  C_20 
REMARK    3  A    between atoms: C_22  and  O_23 
ROOT
HETATM    1  C   UNL     1     -42.586  59.987 -54.039  1.00  0.00     0.258 C 
HETATM    2  N   UNL     1     -43.176  58.908 -54.699  1.00  0.00    -0.340 N 
HETATM    3  C   UNL     1     -43.538  57.607 -54.150  1.00  0.00     0.123 C 
HETATM    4  C   UNL     1     -44.306  56.891 -55.299  1.00  0.00     0.221 C 
HETATM    5  N   UNL     1     -43.666  55.523 -55.565  1.00  0.00    -0.064 N 
HETATM    6  H   UNL     1     -44.170  55.056 -56.332  1.00  0.00     0.280 HD
HETATM    7  C   UNL     1     -42.189  55.546 -55.931  1.00  0.00     0.236 C 
HETATM    8  C   UNL     1     -41.451  56.400 -54.909  1.00  0.00     0.034 C 
HETATM    9  C   UNL     1     -42.363  56.701 -53.708  1.00  0.00     0.014 C 
HETATM   10  C   UNL     1     -42.951  55.361 -53.206  1.00  0.00     0.034 C 
HETATM   11  C   UNL     1     -43.798  54.685 -54.296  1.00  0.00     0.236 C 
HETATM   12  C   UNL     1     -44.422  57.898 -56.478  1.00  0.00     0.070 C 
HETATM   13  C   UNL     1     -44.030  59.234 -55.830  1.00  0.00     0.138 C 
HETATM   14  O   UNL     1     -42.249  60.998 -54.646  1.00  0.00    -0.267 OA
ENDROOT
BRANCH   1  15
HETATM   15  C   UNL     1     -42.520  59.918 -52.605  1.00  0.00     0.089 C 
HETATM   16  C   UNL     1     -41.410  59.516 -51.815  1.00  0.00     0.076 C 
HETATM   17  C   UNL     1     -40.085  59.037 -52.278  1.00  0.00     0.074 C 
HETATM   18  N   UNL     1     -41.688  59.597 -50.511  1.00  0.00    -0.132 NA
HETATM   19  O   UNL     1     -43.026  59.937 -50.435  1.00  0.00    -0.217 OA
HETATM   20  C   UNL     1     -43.532  60.089 -51.688  1.00  0.00     0.092 C 
HETATM   21  C   UNL     1     -44.972  60.393 -51.764  1.00  0.00     0.080 C 
ENDBRANCH   1  15
BRANCH  12  22
HETATM   22  C   UNL     1     -43.727  57.585 -57.786  1.00  0.00    -0.048 A 
HETATM   23  C   UNL     1     -44.261  56.702 -58.744  1.00  0.00     0.044 A 
HETATM   24  C   UNL     1     -43.575  56.461 -59.932  1.00  0.00     0.066 A 
HETATM   25  C   UNL     1     -42.362  57.081 -60.195  1.00  0.00     0.036 A 
HETATM   26  C   UNL     1     -41.810  57.940 -59.250  1.00  0.00     0.003 A 
HETATM   27  C   UNL     1     -42.482  58.188 -58.051  1.00  0.00     0.008 A 
BRANCH  24  28
HETATM   28  O   UNL     1     -44.078  55.622 -60.879  1.00  0.00    -0.361 OA
HETATM   29  H   UNL     1     -43.371  55.353 -61.489  1.00  0.00     0.217 HD
ENDBRANCH  24  28
ENDBRANCH  12  22
TORSDOF 3
ENDMDL
MODEL 10
REMARK VINA RESULT:      -6.8     17.433     19.934
REMARK  3 active torsions:
REMARK  status: ('A' for Active; 'I' for Inactive)
REMARK    1  A    between atoms: C_7  and  C_8 
REMARK       I    between atoms: C_8  and  N_9 
REMARK    2  A    between atoms: C_19  and  C_20 
REMARK    3  A    between atoms: C_22  and  O_23 
ROOT
HETATM    1  C   UNL     1     -42.622  60.035 -54.025  1.00  0.00     0.258 C 
HETATM    2  N   UNL     1     -43.202  58.950 -54.683  1.00  0.00    -0.340 N 
HETATM    3  C   UNL     1     -43.560  57.649 -54.129  1.00  0.00     0.123 C 
HETATM    4  C   UNL     1     -44.318  56.923 -55.278  1.00  0.00     0.221 C 
HETATM    5  N   UNL     1     -43.669  55.558 -55.535  1.00  0.00    -0.064 N 
HETATM    6  H   UNL     1     -44.165  55.084 -56.302  1.00  0.00     0.280 HD
HETATM    7  C   UNL     1     -42.189  55.588 -55.893  1.00  0.00     0.236 C 
HETATM    8  C   UNL     1     -41.461  56.451 -54.871  1.00  0.00     0.034 C 
HETATM    9  C   UNL     1     -42.382  56.752 -53.676  1.00  0.00     0.014 C 
HETATM   10  C   UNL     1     -42.965  55.411 -53.171  1.00  0.00     0.034 C 
HETATM   11  C   UNL     1     -43.802  54.725 -54.262  1.00  0.00     0.236 C 
HETATM   12  C   UNL     1     -44.433  57.924 -56.463  1.00  0.00     0.070 C 
HETATM   13  C   UNL     1     -44.053  59.265 -55.820  1.00  0.00     0.138 C 
HETATM   14  O   UNL     1     -42.289  61.045 -54.634  1.00  0.00    -0.267 OA
ENDROOT
BRANCH   1  15
HETATM   15  C   UNL     1     -42.564  59.974 -52.589  1.00  0.00     0.089 C 
HETATM   16  C   UNL     1     -43.541  60.444 -51.671  1.00  0.00     0.076 C 
HETATM   17  C   UNL     1     -44.817  61.138 -51.969  1.00  0.00     0.074 C 
HETATM   18  N   UNL     1     -43.176  60.200 -50.409  1.00  0.00    -0.132 NA
HETATM   19  O   UNL     1     -41.898  59.678 -50.484  1.00  0.00    -0.217 OA
HETATM   20  C   UNL     1     -41.519  59.582 -51.787  1.00  0.00     0.092 C 
HETATM   21  C   UNL     1     -40.147  59.095 -52.019  1.00  0.00     0.080 C 
ENDBRANCH   1  15
BRANCH  12  22
HETATM   22  C   UNL     1     -43.730  57.609 -57.766  1.00  0.00    -0.048 A 
HETATM   23  C   UNL     1     -44.250  56.713 -58.719  1.00  0.00     0.044 A 
HETATM   24  C   UNL     1     -43.557  56.471 -59.903  1.00  0.00     0.066 A 
HETATM   25  C   UNL     1     -42.349  57.102 -60.166  1.00  0.00     0.036 A 
HETATM   26  C   UNL     1     -41.810  57.973 -59.224  1.00  0.00     0.003 A 
HETATM   27  C   UNL     1     -42.490  58.222 -58.030  1.00  0.00     0.008 A 
BRANCH  24  28
HETATM   28  O   UNL     1     -44.046  55.620 -60.846  1.00  0.00    -0.361 OA
HETATM   29  H   UNL     1     -44.648  54.979 -60.431  1.00  0.00     0.217 HD
ENDBRANCH  24  28
ENDBRANCH  12  22
TORSDOF 3
ENDMDL
