MODEL 1
REMARK VINA RESULT:      -8.3      0.000      0.000
REMARK  6 active torsions:
REMARK  status: ('A' for Active; 'I' for Inactive)
REMARK    1  A    between atoms: O_2  and  C_3 
REMARK    2  A    between atoms: C_4  and  C_5 
REMARK    3  A    between atoms: C_5  and  N_6 
REMARK    4  A    between atoms: N_6  and  C_7 
REMARK    5  A    between atoms: C_9  and  N_10 
REMARK    6  A    between atoms: N_10  and  C_11 
ROOT
HETATM    1  C   UNL     1     -42.384  53.932 -54.368  1.00  0.00     0.181 A 
HETATM    2  N   UNL     1     -42.754  54.648 -55.434  1.00  0.00    -0.207 NA
HETATM    3  C   UNL     1     -43.393  55.811 -55.224  1.00  0.00     0.119 A 
HETATM    4  C   UNL     1     -43.672  56.273 -53.919  1.00  0.00     0.031 A 
HETATM    5  C   UNL     1     -43.255  55.455 -52.849  1.00  0.00     0.048 A 
HETATM    6  N   UNL     1     -42.610  54.311 -53.114  1.00  0.00    -0.330 N 
HETATM    7  H   UNL     1     -42.229  53.730 -52.378  1.00  0.00     0.168 HD
HETATM    8  C   UNL     1     -44.313  57.495 -53.609  1.00  0.00     0.017 A 
HETATM    9  C   UNL     1     -44.545  57.871 -52.284  1.00  0.00     0.001 A 
HETATM   10  C   UNL     1     -44.138  57.043 -51.242  1.00  0.00     0.002 A 
HETATM   11  C   UNL     1     -43.489  55.840 -51.519  1.00  0.00     0.030 A 
ENDROOT
BRANCH   1  12
HETATM   12  N   UNL     1     -41.641  52.797 -54.617  1.00  0.00    -0.258 NA
HETATM   13  H   UNL     1     -42.142  52.028 -54.168  1.00  0.00     0.130 HD
BRANCH  12  14
HETATM   14  C   UNL     1     -40.229  52.799 -54.244  1.00  0.00     0.136 C 
BRANCH  14  15
HETATM   15  C   UNL     1     -39.938  51.752 -53.189  1.00  0.00    -0.012 A 
HETATM   16  C   UNL     1     -39.986  52.110 -51.826  1.00  0.00     0.075 A 
HETATM   17  C   UNL     1     -39.782  51.138 -50.839  1.00  0.00     0.037 A 
HETATM   18  C   UNL     1     -39.558  49.808 -51.194  1.00  0.00     0.003 A 
HETATM   19  C   UNL     1     -39.536  49.438 -52.533  1.00  0.00     0.001 A 
HETATM   20  C   UNL     1     -39.729  50.401 -53.523  1.00  0.00     0.011 A 
BRANCH  16  21
HETATM   21  O   UNL     1     -40.220  53.436 -51.563  1.00  0.00    -0.355 OA
HETATM   22  C   UNL     1     -40.060  53.846 -50.205  1.00  0.00     0.210 C 
ENDBRANCH  16  21
ENDBRANCH  14  15
ENDBRANCH  12  14
ENDBRANCH   1  12
BRANCH   3  23
HETATM   23  N   UNL     1     -43.715  56.609 -56.330  1.00  0.00    -0.272 NA
HETATM   24  H   UNL     1     -44.662  56.413 -56.650  1.00  0.00     0.129 HD
BRANCH  23  25
HETATM   25  C   UNL     1     -42.770  56.634 -57.448  1.00  0.00     0.061 C 
HETATM   26  C   UNL     1     -43.430  56.074 -58.707  1.00  0.00     0.020 C 
HETATM   27  C   UNL     1     -42.529  56.582 -59.820  1.00  0.00     0.002 C 
HETATM   28  C   UNL     1     -42.117  57.981 -59.379  1.00  0.00     0.002 C 
HETATM   29  C   UNL     1     -42.393  58.055 -57.877  1.00  0.00     0.020 C 
ENDBRANCH  23  25
ENDBRANCH   3  23
TORSDOF 6
ENDMDL
MODEL 2
REMARK VINA RESULT:      -7.8      2.127      3.370
REMARK  6 active torsions:
REMARK  status: ('A' for Active; 'I' for Inactive)
REMARK    1  A    between atoms: O_2  and  C_3 
REMARK    2  A    between atoms: C_4  and  C_5 
REMARK    3  A    between atoms: C_5  and  N_6 
REMARK    4  A    between atoms: N_6  and  C_7 
REMARK    5  A    between atoms: C_9  and  N_10 
REMARK    6  A    between atoms: N_10  and  C_11 
ROOT
HETATM    1  C   UNL     1     -41.759  55.035 -50.929  1.00  0.00     0.181 A 
HETATM    2  N   UNL     1     -42.884  55.183 -51.635  1.00  0.00    -0.207 NA
HETATM    3  C   UNL     1     -43.292  56.431 -51.920  1.00  0.00     0.119 A 
HETATM    4  C   UNL     1     -42.562  57.561 -51.490  1.00  0.00     0.031 A 
HETATM    5  C   UNL     1     -41.390  57.318 -50.744  1.00  0.00     0.048 A 
HETATM    6  N   UNL     1     -41.022  56.053 -50.499  1.00  0.00    -0.330 N 
HETATM    7  H   UNL     1     -40.151  55.832 -50.032  1.00  0.00     0.168 HD
HETATM    8  C   UNL     1     -42.904  58.904 -51.770  1.00  0.00     0.017 A 
HETATM    9  C   UNL     1     -42.117  59.960 -51.303  1.00  0.00     0.001 A 
HETATM   10  C   UNL     1     -40.972  59.700 -50.556  1.00  0.00     0.002 A 
HETATM   11  C   UNL     1     -40.602  58.383 -50.280  1.00  0.00     0.030 A 
ENDROOT
BRANCH   1  12
HETATM   12  N   UNL     1     -41.316  53.742 -50.744  1.00  0.00    -0.258 NA
HETATM   13  H   UNL     1     -41.433  53.543 -49.749  1.00  0.00     0.130 HD
BRANCH  12  14
HETATM   14  C   UNL     1     -39.969  53.400 -51.197  1.00  0.00     0.136 C 
BRANCH  14  15
HETATM   15  C   UNL     1     -39.984  52.182 -52.096  1.00  0.00    -0.012 A 
HETATM   16  C   UNL     1     -40.312  52.331 -53.459  1.00  0.00     0.075 A 
HETATM   17  C   UNL     1     -40.267  51.225 -54.315  1.00  0.00     0.037 A 
HETATM   18  C   UNL     1     -39.872  49.976 -53.835  1.00  0.00     0.003 A 
HETATM   19  C   UNL     1     -39.520  49.822 -52.500  1.00  0.00     0.001 A 
HETATM   20  C   UNL     1     -39.570  50.917 -51.638  1.00  0.00     0.011 A 
BRANCH  16  21
HETATM   21  O   UNL     1     -40.680  53.593 -53.852  1.00  0.00    -0.355 OA
HETATM   22  C   UNL     1     -40.108  54.066 -55.071  1.00  0.00     0.210 C 
ENDBRANCH  16  21
ENDBRANCH  14  15
ENDBRANCH  12  14
ENDBRANCH   1  12
BRANCH   3  23
HETATM   23  N   UNL     1     -44.426  56.599 -52.727  1.00  0.00    -0.272 NA
HETATM   24  H   UNL     1     -45.187  56.005 -52.403  1.00  0.00     0.129 HD
BRANCH  23  25
HETATM   25  C   UNL     1     -44.249  56.496 -54.176  1.00  0.00     0.061 C 
HETATM   26  C   UNL     1     -44.888  57.697 -54.871  1.00  0.00     0.020 C 
HETATM   27  C   UNL     1     -44.240  57.683 -56.245  1.00  0.00     0.002 C 
HETATM   28  C   UNL     1     -42.799  57.255 -55.992  1.00  0.00     0.002 C 
HETATM   29  C   UNL     1     -42.783  56.607 -54.606  1.00  0.00     0.020 C 
ENDBRANCH  23  25
ENDBRANCH   3  23
TORSDOF 6
ENDMDL
MODEL 3
REMARK VINA RESULT:      -7.7      2.434      7.338
REMARK  6 active torsions:
REMARK  status: ('A' for Active; 'I' for Inactive)
REMARK    1  A    between atoms: O_2  and  C_3 
REMARK    2  A    between atoms: C_4  and  C_5 
REMARK    3  A    between atoms: C_5  and  N_6 
REMARK    4  A    between atoms: N_6  and  C_7 
REMARK    5  A    between atoms: C_9  and  N_10 
REMARK    6  A    between atoms: N_10  and  C_11 
ROOT
HETATM    1  C   UNL     1     -42.993  55.422 -55.945  1.00  0.00     0.181 A 
HETATM    2  N   UNL     1     -41.921  54.904 -55.337  1.00  0.00    -0.207 NA
HETATM    3  C   UNL     1     -41.711  55.216 -54.048  1.00  0.00     0.119 A 
HETATM    4  C   UNL     1     -42.591  56.068 -53.344  1.00  0.00     0.031 A 
HETATM    5  C   UNL     1     -43.695  56.578 -54.059  1.00  0.00     0.048 A 
HETATM    6  N   UNL     1     -43.863  56.224 -55.340  1.00  0.00    -0.330 N 
HETATM    7  H   UNL     1     -44.679  56.507 -55.869  1.00  0.00     0.168 HD
HETATM    8  C   UNL     1     -42.461  56.424 -51.982  1.00  0.00     0.017 A 
HETATM    9  C   UNL     1     -43.385  57.274 -51.368  1.00  0.00     0.001 A 
HETATM   10  C   UNL     1     -44.460  57.778 -52.095  1.00  0.00     0.002 A 
HETATM   11  C   UNL     1     -44.621  57.429 -53.436  1.00  0.00     0.030 A 
ENDROOT
BRANCH   1  12
HETATM   12  N   UNL     1     -43.233  54.998 -57.235  1.00  0.00    -0.258 NA
HETATM   13  H   UNL     1     -42.640  54.178 -57.378  1.00  0.00     0.130 HD
BRANCH  12  14
HETATM   14  C   UNL     1     -43.074  55.962 -58.321  1.00  0.00     0.136 C 
BRANCH  14  15
HETATM   15  C   UNL     1     -44.322  56.041 -59.174  1.00  0.00    -0.012 A 
HETATM   16  C   UNL     1     -45.317  56.989 -58.859  1.00  0.00     0.075 A 
HETATM   17  C   UNL     1     -46.446  57.116 -59.677  1.00  0.00     0.037 A 
HETATM   18  C   UNL     1     -46.582  56.329 -60.821  1.00  0.00     0.003 A 
HETATM   19  C   UNL     1     -45.595  55.411 -61.156  1.00  0.00     0.001 A 
HETATM   20  C   UNL     1     -44.471  55.271 -60.343  1.00  0.00     0.011 A 
BRANCH  16  21
HETATM   21  O   UNL     1     -45.103  57.729 -57.724  1.00  0.00    -0.355 OA
HETATM   22  C   UNL     1     -44.808  59.111 -57.919  1.00  0.00     0.210 C 
ENDBRANCH  16  21
ENDBRANCH  14  15
ENDBRANCH  12  14
ENDBRANCH   1  12
BRANCH   3  23
HETATM   23  N   UNL     1     -40.636  54.617 -53.378  1.00  0.00    -0.272 NA
HETATM   24  H   UNL     1     -39.758  54.828 -53.849  1.00  0.00     0.129 HD
BRANCH  23  25
HETATM   25  C   UNL     1     -40.743  53.192 -53.062  1.00  0.00     0.061 C 
HETATM   26  C   UNL     1     -39.973  52.366 -54.090  1.00  0.00     0.020 C 
HETATM   27  C   UNL     1     -39.794  51.028 -53.391  1.00  0.00     0.002 C 
HETATM   28  C   UNL     1     -39.553  51.383 -51.928  1.00  0.00     0.002 C 
HETATM   29  C   UNL     1     -40.046  52.820 -51.749  1.00  0.00     0.020 C 
ENDBRANCH  23  25
ENDBRANCH   3  23
TORSDOF 6
ENDMDL
MODEL 4
REMARK VINA RESULT:      -7.7      2.673      7.382
REMARK  6 active torsions:
REMARK  status: ('A' for Active; 'I' for Inactive)
REMARK    1  A    between atoms: O_2  and  C_3 
REMARK    2  A    between atoms: C_4  and  C_5 
REMARK    3  A    between atoms: C_5  and  N_6 
REMARK    4  A    between atoms: N_6  and  C_7 
REMARK    5  A    between atoms: C_9  and  N_10 
REMARK    6  A    between atoms: N_10  and  C_11 
ROOT
HETATM    1  C   UNL     1     -43.018  55.043 -55.009  1.00  0.00     0.181 A 
HETATM    2  N   UNL     1     -43.125  55.748 -53.878  1.00  0.00    -0.207 NA
HETATM    3  C   UNL     1     -42.415  55.343 -52.811  1.00  0.00     0.119 A 
HETATM    4  C   UNL     1     -41.578  54.207 -52.871  1.00  0.00     0.031 A 
HETATM    5  C   UNL     1     -41.527  53.516 -54.100  1.00  0.00     0.048 A 
HETATM    6  N   UNL     1     -42.246  53.970 -55.135  1.00  0.00    -0.330 N 
HETATM    7  H   UNL     1     -42.183  53.548 -56.054  1.00  0.00     0.168 HD
HETATM    8  C   UNL     1     -40.777  53.731 -51.808  1.00  0.00     0.017 A 
HETATM    9  C   UNL     1     -39.976  52.597 -51.962  1.00  0.00     0.001 A 
HETATM   10  C   UNL     1     -39.950  51.920 -53.177  1.00  0.00     0.002 A 
HETATM   11  C   UNL     1     -40.718  52.378 -54.248  1.00  0.00     0.030 A 
ENDROOT
BRANCH   1  12
HETATM   12  N   UNL     1     -43.679  55.546 -56.110  1.00  0.00    -0.258 NA
HETATM   13  H   UNL     1     -44.523  54.979 -56.216  1.00  0.00     0.130 HD
BRANCH  12  14
HETATM   14  C   UNL     1     -42.947  55.645 -57.371  1.00  0.00     0.136 C 
BRANCH  14  15
HETATM   15  C   UNL     1     -43.892  55.695 -58.552  1.00  0.00    -0.012 A 
HETATM   16  C   UNL     1     -44.544  56.905 -58.868  1.00  0.00     0.075 A 
HETATM   17  C   UNL     1     -45.370  56.982 -59.995  1.00  0.00     0.037 A 
HETATM   18  C   UNL     1     -45.533  55.875 -60.828  1.00  0.00     0.003 A 
HETATM   19  C   UNL     1     -44.875  54.685 -60.543  1.00  0.00     0.001 A 
HETATM   20  C   UNL     1     -44.057  54.596 -59.417  1.00  0.00     0.011 A 
BRANCH  16  21
HETATM   21  O   UNL     1     -44.323  57.948 -58.004  1.00  0.00    -0.355 OA
HETATM   22  C   UNL     1     -45.479  58.500 -57.375  1.00  0.00     0.210 C 
ENDBRANCH  16  21
ENDBRANCH  14  15
ENDBRANCH  12  14
ENDBRANCH   1  12
BRANCH   3  23
HETATM   23  N   UNL     1     -42.456  56.118 -51.644  1.00  0.00    -0.272 NA
HETATM   24  H   UNL     1     -43.410  56.187 -51.293  1.00  0.00     0.129 HD
BRANCH  23  25
HETATM   25  C   UNL     1     -41.804  57.428 -51.676  1.00  0.00     0.061 C 
HETATM   26  C   UNL     1     -42.832  58.533 -51.438  1.00  0.00     0.020 C 
HETATM   27  C   UNL     1     -41.971  59.723 -51.048  1.00  0.00     0.002 C 
HETATM   28  C   UNL     1     -40.846  59.131 -50.208  1.00  0.00     0.002 C 
HETATM   29  C   UNL     1     -40.824  57.633 -50.517  1.00  0.00     0.020 C 
ENDBRANCH  23  25
ENDBRANCH   3  23
TORSDOF 6
ENDMDL
MODEL 5
REMARK VINA RESULT:      -7.7      2.402      7.492
REMARK  6 active torsions:
REMARK  status: ('A' for Active; 'I' for Inactive)
REMARK    1  A    between atoms: O_2  and  C_3 
REMARK    2  A    between atoms: C_4  and  C_5 
REMARK    3  A    between atoms: C_5  and  N_6 
REMARK    4  A    between atoms: N_6  and  C_7 
REMARK    5  A    between atoms: C_9  and  N_10 
REMARK    6  A    between atoms: N_10  and  C_11 
ROOT
HETATM    1  C   UNL     1     -41.589  54.930 -55.108  1.00  0.00     0.181 A 
HETATM    2  N   UNL     1     -42.001  55.663 -54.068  1.00  0.00    -0.207 NA
HETATM    3  C   UNL     1     -41.720  55.220 -52.831  1.00  0.00     0.119 A 
HETATM    4  C   UNL     1     -41.012  54.015 -52.624  1.00  0.00     0.031 A 
HETATM    5  C   UNL     1     -40.620  53.298 -53.773  1.00  0.00     0.048 A 
HETATM    6  N   UNL     1     -40.916  53.792 -54.983  1.00  0.00    -0.330 N 
HETATM    7  H   UNL     1     -40.591  53.349 -55.834  1.00  0.00     0.168 HD
HETATM    8  C   UNL     1     -40.651  53.493 -51.360  1.00  0.00     0.017 A 
HETATM    9  C   UNL     1     -39.947  52.292 -51.253  1.00  0.00     0.001 A 
HETATM   10  C   UNL     1     -39.581  51.591 -52.399  1.00  0.00     0.002 A 
HETATM   11  C   UNL     1     -39.911  52.093 -53.658  1.00  0.00     0.030 A 
ENDROOT
BRANCH   1  12
HETATM   12  N   UNL     1     -41.804  55.466 -56.361  1.00  0.00    -0.258 NA
HETATM   13  H   UNL     1     -40.878  55.668 -56.744  1.00  0.00     0.130 HD
BRANCH  12  14
HETATM   14  C   UNL     1     -42.688  56.623 -56.477  1.00  0.00     0.136 C 
BRANCH  14  15
HETATM   15  C   UNL     1     -42.616  57.234 -57.860  1.00  0.00    -0.012 A 
HETATM   16  C   UNL     1     -43.175  56.542 -58.953  1.00  0.00     0.075 A 
HETATM   17  C   UNL     1     -43.171  57.123 -60.226  1.00  0.00     0.037 A 
HETATM   18  C   UNL     1     -42.642  58.400 -60.418  1.00  0.00     0.003 A 
HETATM   19  C   UNL     1     -42.113  59.103 -59.343  1.00  0.00     0.001 A 
HETATM   20  C   UNL     1     -42.104  58.529 -58.073  1.00  0.00     0.011 A 
BRANCH  16  21
HETATM   21  O   UNL     1     -43.682  55.297 -58.678  1.00  0.00    -0.355 OA
HETATM   22  C   UNL     1     -44.385  54.654 -59.741  1.00  0.00     0.210 C 
ENDBRANCH  16  21
ENDBRANCH  14  15
ENDBRANCH  12  14
ENDBRANCH   1  12
BRANCH   3  23
HETATM   23  N   UNL     1     -42.075  56.018 -51.736  1.00  0.00    -0.272 NA
HETATM   24  H   UNL     1     -43.075  55.951 -51.553  1.00  0.00     0.129 HD
BRANCH  23  25
HETATM   25  C   UNL     1     -41.625  57.411 -51.736  1.00  0.00     0.061 C 
HETATM   26  C   UNL     1     -42.802  58.344 -51.453  1.00  0.00     0.020 C 
HETATM   27  C   UNL     1     -42.121  59.638 -51.038  1.00  0.00     0.002 C 
HETATM   28  C   UNL     1     -40.906  59.196 -50.230  1.00  0.00     0.002 C 
HETATM   29  C   UNL     1     -40.667  57.728 -50.584  1.00  0.00     0.020 C 
ENDBRANCH  23  25
ENDBRANCH   3  23
TORSDOF 6
ENDMDL
MODEL 6
REMARK VINA RESULT:      -7.4      2.769      7.295
REMARK  6 active torsions:
REMARK  status: ('A' for Active; 'I' for Inactive)
REMARK    1  A    between atoms: O_2  and  C_3 
REMARK    2  A    between atoms: C_4  and  C_5 
REMARK    3  A    between atoms: C_5  and  N_6 
REMARK    4  A    between atoms: N_6  and  C_7 
REMARK    5  A    between atoms: C_9  and  N_10 
REMARK    6  A    between atoms: N_10  and  C_11 
ROOT
HETATM    1  C   UNL     1     -43.301  56.666 -54.928  1.00  0.00     0.181 A 
HETATM    2  N   UNL     1     -43.023  55.420 -54.529  1.00  0.00    -0.207 NA
HETATM    3  C   UNL     1     -42.375  55.259 -53.364  1.00  0.00     0.119 A 
HETATM    4  C   UNL     1     -41.991  56.366 -52.575  1.00  0.00     0.031 A 
HETATM    5  C   UNL     1     -42.316  57.647 -53.070  1.00  0.00     0.048 A 
HETATM    6  N   UNL     1     -42.975  57.749 -54.232  1.00  0.00    -0.330 N 
HETATM    7  H   UNL     1     -43.292  58.643 -54.588  1.00  0.00     0.168 HD
HETATM    8  C   UNL     1     -41.334  56.285 -51.326  1.00  0.00     0.017 A 
HETATM    9  C   UNL     1     -40.995  57.438 -50.614  1.00  0.00     0.001 A 
HETATM   10  C   UNL     1     -41.312  58.693 -51.126  1.00  0.00     0.002 A 
HETATM   11  C   UNL     1     -41.975  58.801 -52.348  1.00  0.00     0.030 A 
ENDROOT
BRANCH   1  12
HETATM   12  N   UNL     1     -44.057  56.789 -56.075  1.00  0.00    -0.258 NA
HETATM   13  H   UNL     1     -44.637  55.948 -56.123  1.00  0.00     0.130 HD
BRANCH  12  14
HETATM   14  C   UNL     1     -43.364  57.026 -57.339  1.00  0.00     0.136 C 
BRANCH  14  15
HETATM   15  C   UNL     1     -44.149  56.474 -58.509  1.00  0.00    -0.012 A 
HETATM   16  C   UNL     1     -45.322  57.133 -58.929  1.00  0.00     0.075 A 
HETATM   17  C   UNL     1     -46.023  56.670 -60.049  1.00  0.00     0.037 A 
HETATM   18  C   UNL     1     -45.553  55.573 -60.772  1.00  0.00     0.003 A 
HETATM   19  C   UNL     1     -44.384  54.932 -60.384  1.00  0.00     0.001 A 
HETATM   20  C   UNL     1     -43.684  55.381 -59.264  1.00  0.00     0.011 A 
BRANCH  16  21
HETATM   21  O   UNL     1     -45.710  58.208 -58.170  1.00  0.00    -0.355 OA
HETATM   22  C   UNL     1     -47.059  58.195 -57.703  1.00  0.00     0.210 C 
ENDBRANCH  16  21
ENDBRANCH  14  15
ENDBRANCH  12  14
ENDBRANCH   1  12
BRANCH   3  23
HETATM   23  N   UNL     1     -42.147  53.958 -52.896  1.00  0.00    -0.272 NA
HETATM   24  H   UNL     1     -42.314  53.904 -51.892  1.00  0.00     0.129 HD
BRANCH  23  25
HETATM   25  C   UNL     1     -40.884  53.316 -53.262  1.00  0.00     0.061 C 
HETATM   26  C   UNL     1     -40.318  52.549 -52.068  1.00  0.00     0.020 C 
HETATM   27  C   UNL     1     -39.315  51.606 -52.711  1.00  0.00     0.002 C 
HETATM   28  C   UNL     1     -39.964  51.184 -54.024  1.00  0.00     0.002 C 
HETATM   29  C   UNL     1     -41.057  52.214 -54.311  1.00  0.00     0.020 C 
ENDBRANCH  23  25
ENDBRANCH   3  23
TORSDOF 6
ENDMDL
MODEL 7
REMARK VINA RESULT:      -7.4      1.367      3.982
REMARK  6 active torsions:
REMARK  status: ('A' for Active; 'I' for Inactive)
REMARK    1  A    between atoms: O_2  and  C_3 
REMARK    2  A    between atoms: C_4  and  C_5 
REMARK    3  A    between atoms: C_5  and  N_6 
REMARK    4  A    between atoms: N_6  and  C_7 
REMARK    5  A    between atoms: C_9  and  N_10 
REMARK    6  A    between atoms: N_10  and  C_11 
ROOT
HETATM    1  C   UNL     1     -42.345  54.203 -54.742  1.00  0.00     0.181 A 
HETATM    2  N   UNL     1     -42.894  54.770 -53.663  1.00  0.00    -0.207 NA
HETATM    3  C   UNL     1     -43.517  55.951 -53.816  1.00  0.00     0.119 A 
HETATM    4  C   UNL     1     -43.595  56.584 -55.076  1.00  0.00     0.031 A 
HETATM    5  C   UNL     1     -42.984  55.924 -56.162  1.00  0.00     0.048 A 
HETATM    6  N   UNL     1     -42.387  54.742 -55.955  1.00  0.00    -0.330 N 
HETATM    7  H   UNL     1     -42.000  54.199 -56.718  1.00  0.00     0.168 HD
HETATM    8  C   UNL     1     -44.254  57.809 -55.330  1.00  0.00     0.017 A 
HETATM    9  C   UNL     1     -44.280  58.360 -56.614  1.00  0.00     0.001 A 
HETATM   10  C   UNL     1     -43.660  57.699 -57.670  1.00  0.00     0.002 A 
HETATM   11  C   UNL     1     -43.016  56.481 -57.450  1.00  0.00     0.030 A 
ENDROOT
BRANCH   1  12
HETATM   12  N   UNL     1     -41.806  52.946 -54.568  1.00  0.00    -0.258 NA
HETATM   13  H   UNL     1     -42.300  52.534 -53.773  1.00  0.00     0.130 HD
BRANCH  12  14
HETATM   14  C   UNL     1     -40.358  52.830 -54.408  1.00  0.00     0.136 C 
BRANCH  14  15
HETATM   15  C   UNL     1     -40.001  51.779 -53.379  1.00  0.00    -0.012 A 
HETATM   16  C   UNL     1     -39.952  52.133 -52.015  1.00  0.00     0.075 A 
HETATM   17  C   UNL     1     -39.685  51.158 -51.047  1.00  0.00     0.037 A 
HETATM   18  C   UNL     1     -39.495  49.827 -51.419  1.00  0.00     0.003 A 
HETATM   19  C   UNL     1     -39.568  49.461 -52.758  1.00  0.00     0.001 A 
HETATM   20  C   UNL     1     -39.824  50.427 -53.730  1.00  0.00     0.011 A 
BRANCH  16  21
HETATM   21  O   UNL     1     -40.159  53.460 -51.732  1.00  0.00    -0.355 OA
HETATM   22  C   UNL     1     -41.170  53.748 -50.768  1.00  0.00     0.210 C 
ENDBRANCH  16  21
ENDBRANCH  14  15
ENDBRANCH  12  14
ENDBRANCH   1  12
BRANCH   3  23
HETATM   23  N   UNL     1     -44.165  56.517 -52.710  1.00  0.00    -0.272 NA
HETATM   24  H   UNL     1     -44.945  57.099 -53.011  1.00  0.00     0.129 HD
BRANCH  23  25
HETATM   25  C   UNL     1     -43.338  57.206 -51.719  1.00  0.00     0.061 C 
HETATM   26  C   UNL     1     -41.934  57.439 -52.275  1.00  0.00     0.020 C 
HETATM   27  C   UNL     1     -41.379  58.522 -51.364  1.00  0.00     0.002 C 
HETATM   28  C   UNL     1     -42.566  59.435 -51.080  1.00  0.00     0.002 C 
HETATM   29  C   UNL     1     -43.819  58.632 -51.430  1.00  0.00     0.020 C 
ENDBRANCH  23  25
ENDBRANCH   3  23
TORSDOF 6
ENDMDL
MODEL 8
REMARK VINA RESULT:      -7.3      2.334      6.253
REMARK  6 active torsions:
REMARK  status: ('A' for Active; 'I' for Inactive)
REMARK    1  A    between atoms: O_2  and  C_3 
REMARK    2  A    between atoms: C_4  and  C_5 
REMARK    3  A    between atoms: C_5  and  N_6 
REMARK    4  A    between atoms: N_6  and  C_7 
REMARK    5  A    between atoms: C_9  and  N_10 
REMARK    6  A    between atoms: N_10  and  C_11 
ROOT
HETATM    1  C   UNL     1     -43.371  55.639 -52.257  1.00  0.00     0.181 A 
HETATM    2  N   UNL     1     -43.682  55.592 -53.556  1.00  0.00    -0.207 NA
HETATM    3  C   UNL     1     -43.004  54.736 -54.339  1.00  0.00     0.119 A 
HETATM    4  C   UNL     1     -41.988  53.907 -53.815  1.00  0.00     0.031 A 
HETATM    5  C   UNL     1     -41.716  54.022 -52.436  1.00  0.00     0.048 A 
HETATM    6  N   UNL     1     -42.432  54.882 -51.699  1.00  0.00    -0.330 N 
HETATM    7  H   UNL     1     -42.321  54.945 -50.695  1.00  0.00     0.168 HD
HETATM    8  C   UNL     1     -41.247  52.961 -54.561  1.00  0.00     0.017 A 
HETATM    9  C   UNL     1     -40.260  52.180 -53.954  1.00  0.00     0.001 A 
HETATM   10  C   UNL     1     -39.997  52.319 -52.595  1.00  0.00     0.002 A 
HETATM   11  C   UNL     1     -40.725  53.233 -51.833  1.00  0.00     0.030 A 
ENDROOT
BRANCH   1  12
HETATM   12  N   UNL     1     -44.157  56.451 -51.466  1.00  0.00    -0.258 NA
HETATM   13  H   UNL     1     -44.889  55.849 -51.083  1.00  0.00     0.130 HD
BRANCH  12  14
HETATM   14  C   UNL     1     -44.723  57.659 -52.061  1.00  0.00     0.136 C 
BRANCH  14  15
HETATM   15  C   UNL     1     -44.492  58.867 -51.178  1.00  0.00    -0.012 A 
HETATM   16  C   UNL     1     -43.234  59.502 -51.187  1.00  0.00     0.075 A 
HETATM   17  C   UNL     1     -43.026  60.657 -50.424  1.00  0.00     0.037 A 
HETATM   18  C   UNL     1     -44.067  61.204 -49.674  1.00  0.00     0.003 A 
HETATM   19  C   UNL     1     -45.320  60.603 -49.678  1.00  0.00     0.001 A 
HETATM   20  C   UNL     1     -45.533  59.447 -50.428  1.00  0.00     0.011 A 
BRANCH  16  21
HETATM   21  O   UNL     1     -42.267  58.906 -51.958  1.00  0.00    -0.355 OA
HETATM   22  C   UNL     1     -40.916  59.129 -51.558  1.00  0.00     0.210 C 
ENDBRANCH  16  21
ENDBRANCH  14  15
ENDBRANCH  12  14
ENDBRANCH   1  12
BRANCH   3  23
HETATM   23  N   UNL     1     -43.373  54.621 -55.685  1.00  0.00    -0.272 NA
HETATM   24  H   UNL     1     -43.426  53.641 -55.960  1.00  0.00     0.129 HD
BRANCH  23  25
HETATM   25  C   UNL     1     -42.623  55.408 -56.665  1.00  0.00     0.061 C 
HETATM   26  C   UNL     1     -43.389  55.473 -57.986  1.00  0.00     0.020 C 
HETATM   27  C   UNL     1     -42.745  56.650 -58.698  1.00  0.00     0.002 C 
HETATM   28  C   UNL     1     -42.458  57.662 -57.595  1.00  0.00     0.002 C 
HETATM   29  C   UNL     1     -42.506  56.885 -56.278  1.00  0.00     0.020 C 
ENDBRANCH  23  25
ENDBRANCH   3  23
TORSDOF 6
ENDMDL
MODEL 9
REMARK VINA RESULT:      -7.3      2.015      4.509
REMARK  6 active torsions:
REMARK  status: ('A' for Active; 'I' for Inactive)
REMARK    1  A    between atoms: O_2  and  C_3 
REMARK    2  A    between atoms: C_4  and  C_5 
REMARK    3  A    between atoms: C_5  and  N_6 
REMARK    4  A    between atoms: N_6  and  C_7 
REMARK    5  A    between atoms: C_9  and  N_10 
REMARK    6  A    between atoms: N_10  and  C_11 
ROOT
HETATM    1  C   UNL     1     -42.713  55.963 -56.309  1.00  0.00     0.181 A 
HETATM    2  N   UNL     1     -42.707  57.277 -56.551  1.00  0.00    -0.207 NA
HETATM    3  C   UNL     1     -43.200  57.707 -57.724  1.00  0.00     0.119 A 
HETATM    4  C   UNL     1     -43.709  56.805 -58.684  1.00  0.00     0.031 A 
HETATM    5  C   UNL     1     -43.673  55.434 -58.355  1.00  0.00     0.048 A 
HETATM    6  N   UNL     1     -43.182  55.061 -57.165  1.00  0.00    -0.330 N 
HETATM    7  H   UNL     1     -43.204  54.096 -56.858  1.00  0.00     0.168 HD
HETATM    8  C   UNL     1     -44.270  57.174 -59.928  1.00  0.00     0.017 A 
HETATM    9  C   UNL     1     -44.753  56.208 -60.815  1.00  0.00     0.001 A 
HETATM   10  C   UNL     1     -44.695  54.859 -60.478  1.00  0.00     0.002 A 
HETATM   11  C   UNL     1     -44.161  54.469 -59.249  1.00  0.00     0.030 A 
ENDROOT
BRANCH   1  12
HETATM   12  N   UNL     1     -42.297  55.566 -55.055  1.00  0.00    -0.258 NA
HETATM   13  H   UNL     1     -41.275  55.594 -55.076  1.00  0.00     0.130 HD
BRANCH  12  14
HETATM   14  C   UNL     1     -42.781  54.289 -54.537  1.00  0.00     0.136 C 
BRANCH  14  15
HETATM   15  C   UNL     1     -41.718  53.591 -53.716  1.00  0.00    -0.012 A 
HETATM   16  C   UNL     1     -41.648  53.829 -52.328  1.00  0.00     0.075 A 
HETATM   17  C   UNL     1     -40.712  53.142 -51.546  1.00  0.00     0.037 A 
HETATM   18  C   UNL     1     -39.863  52.199 -52.126  1.00  0.00     0.003 A 
HETATM   19  C   UNL     1     -39.941  51.936 -53.488  1.00  0.00     0.001 A 
HETATM   20  C   UNL     1     -40.865  52.622 -54.276  1.00  0.00     0.011 A 
BRANCH  16  21
HETATM   21  O   UNL     1     -42.523  54.763 -51.835  1.00  0.00    -0.355 OA
HETATM   22  C   UNL     1     -42.419  55.051 -50.441  1.00  0.00     0.210 C 
ENDBRANCH  16  21
ENDBRANCH  14  15
ENDBRANCH  12  14
ENDBRANCH   1  12
BRANCH   3  23
HETATM   23  N   UNL     1     -43.273  59.087 -57.957  1.00  0.00    -0.272 NA
HETATM   24  H   UNL     1     -44.118  59.319 -58.477  1.00  0.00     0.129 HD
BRANCH  23  25
HETATM   25  C   UNL     1     -42.097  59.741 -58.533  1.00  0.00     0.061 C 
HETATM   26  C   UNL     1     -42.490  60.522 -59.786  1.00  0.00     0.020 C 
HETATM   27  C   UNL     1     -41.320  61.473 -59.978  1.00  0.00     0.002 C 
HETATM   28  C   UNL     1     -40.914  61.880 -58.566  1.00  0.00     0.002 C 
HETATM   29  C   UNL     1     -41.522  60.836 -57.629  1.00  0.00     0.020 C 
ENDBRANCH  23  25
ENDBRANCH   3  23
TORSDOF 6
ENDMDL
MODEL 10
REMARK VINA RESULT:      -7.2     14.629     16.556
REMARK  6 active torsions:
REMARK  status: ('A' for Active; 'I' for Inactive)
REMARK    1  A    between atoms: O_2  and  C_3 
REMARK    2  A    between atoms: C_4  and  C_5 
REMARK    3  A    between atoms: C_5  and  N_6 
REMARK    4  A    between atoms: N_6  and  C_7 
REMARK    5  A    between atoms: C_9  and  N_10 
REMARK    6  A    between atoms: N_10  and  C_11 
ROOT
HETATM    1  C   UNL     1     -34.830  41.456 -53.720  1.00  0.00     0.181 A 
HETATM    2  N   UNL     1     -35.237  41.838 -54.935  1.00  0.00    -0.207 NA
HETATM    3  C   UNL     1     -34.487  41.488 -55.993  1.00  0.00     0.119 A 
HETATM    4  C   UNL     1     -33.299  40.740 -55.838  1.00  0.00     0.031 A 
HETATM    5  C   UNL     1     -32.935  40.383 -54.523  1.00  0.00     0.048 A 
HETATM    6  N   UNL     1     -33.726  40.747 -53.505  1.00  0.00    -0.330 N 
HETATM    7  H   UNL     1     -33.543  40.450 -52.555  1.00  0.00     0.168 HD
HETATM    8  C   UNL     1     -32.468  40.307 -56.897  1.00  0.00     0.017 A 
HETATM    9  C   UNL     1     -31.310  39.567 -56.647  1.00  0.00     0.001 A 
HETATM   10  C   UNL     1     -30.961  39.237 -55.341  1.00  0.00     0.002 A 
HETATM   11  C   UNL     1     -31.771  39.637 -54.279  1.00  0.00     0.030 A 
ENDROOT
BRANCH   1  12
HETATM   12  N   UNL     1     -35.676  41.742 -52.670  1.00  0.00    -0.258 NA
HETATM   13  H   UNL     1     -36.205  42.571 -52.951  1.00  0.00     0.130 HD
BRANCH  12  14
HETATM   14  C   UNL     1     -35.096  41.912 -51.340  1.00  0.00     0.136 C 
BRANCH  14  15
HETATM   15  C   UNL     1     -35.213  40.642 -50.523  1.00  0.00    -0.012 A 
HETATM   16  C   UNL     1     -34.044  39.944 -50.156  1.00  0.00     0.075 A 
HETATM   17  C   UNL     1     -34.134  38.805 -49.348  1.00  0.00     0.037 A 
HETATM   18  C   UNL     1     -35.372  38.368 -48.878  1.00  0.00     0.003 A 
HETATM   19  C   UNL     1     -36.528  39.063 -49.211  1.00  0.00     0.001 A 
HETATM   20  C   UNL     1     -36.450  40.194 -50.022  1.00  0.00     0.011 A 
BRANCH  16  21
HETATM   21  O   UNL     1     -32.867  40.445 -50.652  1.00  0.00    -0.355 OA
HETATM   22  C   UNL     1     -31.691  39.690 -50.363  1.00  0.00     0.210 C 
ENDBRANCH  16  21
ENDBRANCH  14  15
ENDBRANCH  12  14
ENDBRANCH   1  12
BRANCH   3  23
HETATM   23  N   UNL     1     -34.944  41.813 -57.277  1.00  0.00    -0.272 NA
HETATM   24  H   UNL     1     -34.988  42.824 -57.397  1.00  0.00     0.129 HD
BRANCH  23  25
HETATM   25  C   UNL     1     -36.172  41.168 -57.744  1.00  0.00     0.061 C 
HETATM   26  C   UNL     1     -36.817  42.002 -58.850  1.00  0.00     0.020 C 
HETATM   27  C   UNL     1     -37.763  41.016 -59.515  1.00  0.00     0.002 C 
HETATM   28  C   UNL     1     -37.016  39.687 -59.495  1.00  0.00     0.002 C 
HETATM   29  C   UNL     1     -35.913  39.832 -58.445  1.00  0.00     0.020 C 
ENDBRANCH  23  25
ENDBRANCH   3  23
TORSDOF 6
ENDMDL
