MODEL 1
REMARK VINA RESULT:      -7.1      0.000      0.000
REMARK  8 active torsions:
REMARK  status: ('A' for Active; 'I' for Inactive)
REMARK    1  A    between atoms: C_2  and  N_3 
REMARK    2  A    between atoms: N_7  and  C_8 
REMARK    3  A    between atoms: C_11  and  N_12 
REMARK       I    between atoms: N_12  and  C_13 
REMARK    4  A    between atoms: C_13  and  C_14 
REMARK    5  A    between atoms: C_17  and  N_18 
REMARK       I    between atoms: N_18  and  C_19 
REMARK    6  A    between atoms: C_19  and  C_20 
REMARK    7  A    between atoms: C_20  and  S_21 
REMARK    8  A    between atoms: S_21  and  C_22 
ROOT
HETATM    1  N   UNL     1     -45.379  57.259 -57.797  1.00  0.00    -0.323 N 
HETATM    2  C   UNL     1     -44.001  57.263 -57.681  1.00  0.00     0.256 C 
HETATM    3  O   UNL     1     -43.202  57.841 -58.406  1.00  0.00    -0.267 OA
HETATM    4  H   UNL     1     -45.896  56.874 -57.017  1.00  0.00     0.169 HD
ENDROOT
BRANCH   2   5
HETATM    5  C   UNL     1     -43.501  56.532 -56.484  1.00  0.00     0.032 A 
HETATM    6  C   UNL     1     -42.512  55.550 -56.604  1.00  0.00     0.019 A 
HETATM    7  C   UNL     1     -42.127  54.804 -55.487  1.00  0.00     0.030 A 
HETATM    8  C   UNL     1     -42.718  55.030 -54.241  1.00  0.00     0.034 A 
HETATM    9  C   UNL     1     -43.661  56.060 -54.117  1.00  0.00     0.030 A 
HETATM   10  C   UNL     1     -44.050  56.812 -55.231  1.00  0.00     0.019 A 
BRANCH   8  11
HETATM   11  N   UNL     1     -42.445  54.258 -53.095  1.00  0.00    -0.327 N 
HETATM   12  C   UNL     1     -41.682  54.627 -51.995  1.00  0.00     0.231 C 
HETATM   13  O   UNL     1     -41.204  55.741 -51.792  1.00  0.00    -0.272 OA
HETATM   14  H   UNL     1     -42.728  53.285 -53.128  1.00  0.00     0.169 HD
BRANCH  12  15
HETATM   15  C   UNL     1     -41.480  53.500 -50.995  1.00  0.00     0.185 C 
BRANCH  15  16
HETATM   16  S   UNL     1     -39.738  52.964 -51.021  1.00  0.00    -0.083 SA
BRANCH  16  17
HETATM   17  C   UNL     1     -39.794  51.825 -52.322  1.00  0.00     0.168 A 
HETATM   18  N   UNL     1     -39.627  50.477 -52.142  1.00  0.00    -0.339 N 
HETATM   19  C   UNL     1     -39.364  49.780 -50.907  1.00  0.00     0.158 C 
HETATM   20  C   UNL     1     -39.762  49.886 -53.371  1.00  0.00     0.112 A 
HETATM   21  C   UNL     1     -39.997  50.924 -54.244  1.00  0.00     0.136 A 
HETATM   22  N   UNL     1     -40.006  52.124 -53.582  1.00  0.00    -0.235 NA
ENDBRANCH  16  17
ENDBRANCH  15  16
ENDBRANCH  12  15
ENDBRANCH   8  11
ENDBRANCH   2   5
BRANCH   1  23
HETATM   23  C   UNL     1     -46.155  57.810 -58.834  1.00  0.00     0.035 A 
HETATM   24  C   UNL     1     -46.521  57.122 -59.985  1.00  0.00     0.032 A 
HETATM   25  C   UNL     1     -47.320  57.737 -60.963  1.00  0.00     0.031 A 
HETATM   26  C   UNL     1     -47.756  59.063 -60.834  1.00  0.00     0.030 A 
HETATM   27  C   UNL     1     -47.387  59.731 -59.656  1.00  0.00     0.031 A 
HETATM   28  C   UNL     1     -46.603  59.120 -58.671  1.00  0.00     0.032 A 
BRANCH  26  29
HETATM   29  N   UNL     1     -48.552  59.710 -61.779  1.00  0.00    -0.378 N 
HETATM   30  C   UNL     1     -49.406  60.844 -61.391  1.00  0.00     0.150 C 
HETATM   31  C   UNL     1     -50.845  60.392 -61.072  1.00  0.00     0.254 C 
HETATM   32  N   UNL     1     -51.429  59.578 -62.237  1.00  0.00    -0.068 N 
HETATM   33  H   UNL     1     -51.420  60.197 -63.058  1.00  0.00     0.280 HD
HETATM   34  C   UNL     1     -50.510  58.390 -62.555  1.00  0.00     0.254 C 
HETATM   35  C   UNL     1     -49.084  58.883 -62.881  1.00  0.00     0.150 C 
BRANCH  32  36
HETATM   36  C   UNL     1     -52.858  59.180 -61.961  1.00  0.00     0.230 C 
HETATM   37  C   UNL     1     -53.488  60.106 -60.938  1.00  0.00     0.034 C 
ENDBRANCH  32  36
ENDBRANCH  26  29
ENDBRANCH   1  23
TORSDOF 8
ENDMDL
MODEL 2
REMARK VINA RESULT:      -6.5     17.828     21.813
REMARK  8 active torsions:
REMARK  status: ('A' for Active; 'I' for Inactive)
REMARK    1  A    between atoms: C_2  and  N_3 
REMARK    2  A    between atoms: N_7  and  C_8 
REMARK    3  A    between atoms: C_11  and  N_12 
REMARK       I    between atoms: N_12  and  C_13 
REMARK    4  A    between atoms: C_13  and  C_14 
REMARK    5  A    between atoms: C_17  and  N_18 
REMARK       I    between atoms: N_18  and  C_19 
REMARK    6  A    between atoms: C_19  and  C_20 
REMARK    7  A    between atoms: C_20  and  S_21 
REMARK    8  A    between atoms: S_21  and  C_22 
ROOT
HETATM    1  N   UNL     1     -33.687  40.339 -51.022  1.00  0.00    -0.323 N 
HETATM    2  C   UNL     1     -34.100  39.351 -50.146  1.00  0.00     0.256 C 
HETATM    3  O   UNL     1     -35.097  38.649 -50.245  1.00  0.00    -0.267 OA
HETATM    4  H   UNL     1     -32.752  40.704 -50.882  1.00  0.00     0.169 HD
ENDROOT
BRANCH   2   5
HETATM    5  C   UNL     1     -33.150  39.112 -49.025  1.00  0.00     0.032 A 
HETATM    6  C   UNL     1     -33.416  38.142 -48.053  1.00  0.00     0.019 A 
HETATM    7  C   UNL     1     -32.564  38.000 -46.954  1.00  0.00     0.030 A 
HETATM    8  C   UNL     1     -31.440  38.818 -46.814  1.00  0.00     0.034 A 
HETATM    9  C   UNL     1     -31.145  39.742 -47.826  1.00  0.00     0.030 A 
HETATM   10  C   UNL     1     -31.993  39.889 -48.930  1.00  0.00     0.019 A 
BRANCH   8  11
HETATM   11  N   UNL     1     -30.590  38.792 -45.691  1.00  0.00    -0.327 N 
HETATM   12  C   UNL     1     -29.297  38.288 -45.626  1.00  0.00     0.231 C 
HETATM   13  O   UNL     1     -28.637  37.876 -46.577  1.00  0.00    -0.272 OA
HETATM   14  H   UNL     1     -31.005  39.052 -44.803  1.00  0.00     0.169 HD
BRANCH  12  15
HETATM   15  C   UNL     1     -28.715  38.297 -44.221  1.00  0.00     0.185 C 
BRANCH  15  16
HETATM   16  S   UNL     1     -28.952  36.661 -43.452  1.00  0.00    -0.083 SA
BRANCH  16  17
HETATM   17  C   UNL     1     -30.538  36.865 -42.794  1.00  0.00     0.168 A 
HETATM   18  N   UNL     1     -30.766  37.280 -41.508  1.00  0.00    -0.339 N 
HETATM   19  C   UNL     1     -29.786  37.589 -40.497  1.00  0.00     0.158 C 
HETATM   20  C   UNL     1     -32.124  37.357 -41.343  1.00  0.00     0.112 A 
HETATM   21  C   UNL     1     -32.654  36.971 -42.553  1.00  0.00     0.136 A 
HETATM   22  N   UNL     1     -31.659  36.660 -43.444  1.00  0.00    -0.235 NA
ENDBRANCH  16  17
ENDBRANCH  15  16
ENDBRANCH  12  15
ENDBRANCH   8  11
ENDBRANCH   2   5
BRANCH   1  23
HETATM   23  C   UNL     1     -34.377  40.836 -52.142  1.00  0.00     0.035 A 
HETATM   24  C   UNL     1     -35.419  41.754 -52.074  1.00  0.00     0.032 A 
HETATM   25  C   UNL     1     -36.039  42.220 -53.244  1.00  0.00     0.031 A 
HETATM   26  C   UNL     1     -35.657  41.768 -54.515  1.00  0.00     0.030 A 
HETATM   27  C   UNL     1     -34.593  40.854 -54.559  1.00  0.00     0.031 A 
HETATM   28  C   UNL     1     -33.959  40.396 -53.397  1.00  0.00     0.032 A 
BRANCH  26  29
HETATM   29  N   UNL     1     -36.245  42.206 -55.701  1.00  0.00    -0.378 N 
HETATM   30  C   UNL     1     -37.661  41.926 -55.986  1.00  0.00     0.150 C 
HETATM   31  C   UNL     1     -37.831  40.650 -56.836  1.00  0.00     0.254 C 
HETATM   32  N   UNL     1     -36.971  40.729 -58.108  1.00  0.00    -0.068 N 
HETATM   33  H   UNL     1     -37.296  41.555 -58.628  1.00  0.00     0.280 HD
HETATM   34  C   UNL     1     -35.504  40.979 -57.732  1.00  0.00     0.254 C 
HETATM   35  C   UNL     1     -35.374  42.268 -56.892  1.00  0.00     0.150 C 
BRANCH  32  36
HETATM   36  C   UNL     1     -37.174  39.514 -58.978  1.00  0.00     0.230 C 
HETATM   37  C   UNL     1     -37.347  39.913 -60.432  1.00  0.00     0.034 C 
ENDBRANCH  32  36
ENDBRANCH  26  29
ENDBRANCH   1  23
TORSDOF 8
ENDMDL
MODEL 3
REMARK VINA RESULT:      -6.5      3.852      4.559
REMARK  8 active torsions:
REMARK  status: ('A' for Active; 'I' for Inactive)
REMARK    1  A    between atoms: C_2  and  N_3 
REMARK    2  A    between atoms: N_7  and  C_8 
REMARK    3  A    between atoms: C_11  and  N_12 
REMARK       I    between atoms: N_12  and  C_13 
REMARK    4  A    between atoms: C_13  and  C_14 
REMARK    5  A    between atoms: C_17  and  N_18 
REMARK       I    between atoms: N_18  and  C_19 
REMARK    6  A    between atoms: C_19  and  C_20 
REMARK    7  A    between atoms: C_20  and  S_21 
REMARK    8  A    between atoms: S_21  and  C_22 
ROOT
HETATM    1  N   UNL     1     -41.881  58.064 -58.164  1.00  0.00    -0.323 N 
HETATM    2  C   UNL     1     -42.938  57.639 -57.380  1.00  0.00     0.256 C 
HETATM    3  O   UNL     1     -44.111  57.972 -57.481  1.00  0.00    -0.267 OA
HETATM    4  H   UNL     1     -41.008  57.561 -58.056  1.00  0.00     0.169 HD
ENDROOT
BRANCH   2   5
HETATM    5  C   UNL     1     -42.557  56.612 -56.371  1.00  0.00     0.032 A 
HETATM    6  C   UNL     1     -43.121  55.332 -56.402  1.00  0.00     0.019 A 
HETATM    7  C   UNL     1     -42.828  54.414 -55.390  1.00  0.00     0.030 A 
HETATM    8  C   UNL     1     -41.971  54.757 -54.342  1.00  0.00     0.034 A 
HETATM    9  C   UNL     1     -41.359  56.019 -54.355  1.00  0.00     0.030 A 
HETATM   10  C   UNL     1     -41.647  56.943 -55.365  1.00  0.00     0.019 A 
BRANCH   8  11
HETATM   11  N   UNL     1     -41.702  53.917 -53.244  1.00  0.00    -0.327 N 
HETATM   12  C   UNL     1     -42.061  54.123 -51.919  1.00  0.00     0.231 C 
HETATM   13  O   UNL     1     -42.773  55.033 -51.499  1.00  0.00    -0.272 OA
HETATM   14  H   UNL     1     -41.072  53.140 -53.414  1.00  0.00     0.169 HD
BRANCH  12  15
HETATM   15  C   UNL     1     -41.491  53.081 -50.969  1.00  0.00     0.185 C 
BRANCH  15  16
HETATM   16  S   UNL     1     -39.695  52.927 -51.236  1.00  0.00    -0.083 SA
BRANCH  16  17
HETATM   17  C   UNL     1     -39.669  51.607 -52.353  1.00  0.00     0.168 A 
HETATM   18  N   UNL     1     -39.619  50.295 -51.958  1.00  0.00    -0.339 N 
HETATM   19  C   UNL     1     -39.559  49.784 -50.611  1.00  0.00     0.158 C 
HETATM   20  C   UNL     1     -39.643  49.530 -53.095  1.00  0.00     0.112 A 
HETATM   21  C   UNL     1     -39.696  50.432 -54.133  1.00  0.00     0.136 A 
HETATM   22  N   UNL     1     -39.704  51.719 -53.659  1.00  0.00    -0.235 NA
ENDBRANCH  16  17
ENDBRANCH  15  16
ENDBRANCH  12  15
ENDBRANCH   8  11
ENDBRANCH   2   5
BRANCH   1  23
HETATM   23  C   UNL     1     -41.897  59.055 -59.162  1.00  0.00     0.035 A 
HETATM   24  C   UNL     1     -42.070  58.796 -60.517  1.00  0.00     0.032 A 
HETATM   25  C   UNL     1     -42.099  59.847 -61.448  1.00  0.00     0.031 A 
HETATM   26  C   UNL     1     -41.933  61.184 -61.061  1.00  0.00     0.030 A 
HETATM   27  C   UNL     1     -41.777  61.421 -59.686  1.00  0.00     0.031 A 
HETATM   28  C   UNL     1     -41.761  60.380 -58.750  1.00  0.00     0.032 A 
BRANCH  26  29
HETATM   29  N   UNL     1     -41.957  62.256 -61.952  1.00  0.00    -0.378 N 
HETATM   30  C   UNL     1     -42.248  63.619 -61.478  1.00  0.00     0.150 C 
HETATM   31  C   UNL     1     -43.742  63.970 -61.632  1.00  0.00     0.254 C 
HETATM   32  N   UNL     1     -44.210  63.728 -63.076  1.00  0.00    -0.068 N 
HETATM   33  H   UNL     1     -43.634  64.335 -63.674  1.00  0.00     0.280 HD
HETATM   34  C   UNL     1     -43.915  62.278 -63.484  1.00  0.00     0.254 C 
HETATM   35  C   UNL     1     -42.410  61.969 -63.328  1.00  0.00     0.150 C 
BRANCH  32  36
HETATM   36  C   UNL     1     -45.655  64.124 -63.253  1.00  0.00     0.230 C 
HETATM   37  C   UNL     1     -46.490  62.936 -63.692  1.00  0.00     0.034 C 
ENDBRANCH  32  36
ENDBRANCH  26  29
ENDBRANCH   1  23
TORSDOF 8
ENDMDL
MODEL 4
REMARK VINA RESULT:      -6.5      2.192      3.543
REMARK  8 active torsions:
REMARK  status: ('A' for Active; 'I' for Inactive)
REMARK    1  A    between atoms: C_2  and  N_3 
REMARK    2  A    between atoms: N_7  and  C_8 
REMARK    3  A    between atoms: C_11  and  N_12 
REMARK       I    between atoms: N_12  and  C_13 
REMARK    4  A    between atoms: C_13  and  C_14 
REMARK    5  A    between atoms: C_17  and  N_18 
REMARK       I    between atoms: N_18  and  C_19 
REMARK    6  A    between atoms: C_19  and  C_20 
REMARK    7  A    between atoms: C_20  and  S_21 
REMARK    8  A    between atoms: S_21  and  C_22 
ROOT
HETATM    1  N   UNL     1     -45.233  57.106 -58.404  1.00  0.00    -0.323 N 
HETATM    2  C   UNL     1     -43.873  56.858 -58.433  1.00  0.00     0.256 C 
HETATM    3  O   UNL     1     -43.121  56.988 -59.389  1.00  0.00    -0.267 OA
HETATM    4  H   UNL     1     -45.671  57.112 -57.491  1.00  0.00     0.169 HD
ENDROOT
BRANCH   2   5
HETATM    5  C   UNL     1     -43.310  56.466 -57.111  1.00  0.00     0.032 A 
HETATM    6  C   UNL     1     -43.211  57.394 -56.070  1.00  0.00     0.019 A 
HETATM    7  C   UNL     1     -42.589  57.037 -54.870  1.00  0.00     0.030 A 
HETATM    8  C   UNL     1     -42.062  55.755 -54.695  1.00  0.00     0.034 A 
HETATM    9  C   UNL     1     -42.223  54.812 -55.720  1.00  0.00     0.030 A 
HETATM   10  C   UNL     1     -42.846  55.162 -56.923  1.00  0.00     0.019 A 
BRANCH   8  11
HETATM   11  N   UNL     1     -41.344  55.354 -53.551  1.00  0.00    -0.327 N 
HETATM   12  C   UNL     1     -41.768  54.485 -52.554  1.00  0.00     0.231 C 
HETATM   13  O   UNL     1     -42.808  53.832 -52.563  1.00  0.00    -0.272 OA
HETATM   14  H   UNL     1     -40.477  55.847 -53.366  1.00  0.00     0.169 HD
BRANCH  12  15
HETATM   15  C   UNL     1     -40.793  54.379 -51.392  1.00  0.00     0.185 C 
BRANCH  15  16
HETATM   16  S   UNL     1     -41.437  55.315 -49.966  1.00  0.00    -0.083 SA
BRANCH  16  17
HETATM   17  C   UNL     1     -41.720  56.847 -50.716  1.00  0.00     0.168 A 
HETATM   18  N   UNL     1     -42.972  57.304 -51.034  1.00  0.00    -0.339 N 
HETATM   19  C   UNL     1     -44.231  56.628 -50.838  1.00  0.00     0.158 C 
HETATM   20  C   UNL     1     -42.821  58.552 -51.580  1.00  0.00     0.112 A 
HETATM   21  C   UNL     1     -41.464  58.784 -51.573  1.00  0.00     0.136 A 
HETATM   22  N   UNL     1     -40.790  57.714 -51.042  1.00  0.00    -0.235 NA
ENDBRANCH  16  17
ENDBRANCH  15  16
ENDBRANCH  12  15
ENDBRANCH   8  11
ENDBRANCH   2   5
BRANCH   1  23
HETATM   23  C   UNL     1     -46.068  57.440 -59.486  1.00  0.00     0.035 A 
HETATM   24  C   UNL     1     -46.829  56.520 -60.198  1.00  0.00     0.032 A 
HETATM   25  C   UNL     1     -47.658  56.941 -61.251  1.00  0.00     0.031 A 
HETATM   26  C   UNL     1     -47.734  58.285 -61.641  1.00  0.00     0.030 A 
HETATM   27  C   UNL     1     -46.969  59.196 -60.897  1.00  0.00     0.031 A 
HETATM   28  C   UNL     1     -46.152  58.787 -59.836  1.00  0.00     0.032 A 
BRANCH  26  29
HETATM   29  N   UNL     1     -48.545  58.744 -62.679  1.00  0.00    -0.378 N 
HETATM   30  C   UNL     1     -48.628  60.181 -62.986  1.00  0.00     0.150 C 
HETATM   31  C   UNL     1     -49.829  60.847 -62.283  1.00  0.00     0.254 C 
HETATM   32  N   UNL     1     -51.130  60.093 -62.601  1.00  0.00    -0.068 N 
HETATM   33  H   UNL     1     -51.245  60.129 -63.622  1.00  0.00     0.280 HD
HETATM   34  C   UNL     1     -50.984  58.614 -62.214  1.00  0.00     0.254 C 
HETATM   35  C   UNL     1     -49.781  57.981 -62.946  1.00  0.00     0.150 C 
BRANCH  32  36
HETATM   36  C   UNL     1     -52.320  60.769 -61.968  1.00  0.00     0.230 C 
HETATM   37  C   UNL     1     -52.741  60.046 -60.702  1.00  0.00     0.034 C 
ENDBRANCH  32  36
ENDBRANCH  26  29
ENDBRANCH   1  23
TORSDOF 8
ENDMDL
MODEL 5
REMARK VINA RESULT:      -6.4     17.548     23.746
REMARK  8 active torsions:
REMARK  status: ('A' for Active; 'I' for Inactive)
REMARK    1  A    between atoms: C_2  and  N_3 
REMARK    2  A    between atoms: N_7  and  C_8 
REMARK    3  A    between atoms: C_11  and  N_12 
REMARK       I    between atoms: N_12  and  C_13 
REMARK    4  A    between atoms: C_13  and  C_14 
REMARK    5  A    between atoms: C_17  and  N_18 
REMARK       I    between atoms: N_18  and  C_19 
REMARK    6  A    between atoms: C_19  and  C_20 
REMARK    7  A    between atoms: C_20  and  S_21 
REMARK    8  A    between atoms: S_21  and  C_22 
ROOT
HETATM    1  N   UNL     1     -33.561  40.113 -50.934  1.00  0.00    -0.323 N 
HETATM    2  C   UNL     1     -34.826  40.613 -51.183  1.00  0.00     0.256 C 
HETATM    3  O   UNL     1     -35.724  40.782 -50.369  1.00  0.00    -0.267 OA
HETATM    4  H   UNL     1     -32.886  40.199 -51.684  1.00  0.00     0.169 HD
ENDROOT
BRANCH   2   5
HETATM    5  C   UNL     1     -35.031  41.043 -52.593  1.00  0.00     0.032 A 
HETATM    6  C   UNL     1     -36.027  41.967 -52.925  1.00  0.00     0.019 A 
HETATM    7  C   UNL     1     -36.271  42.283 -54.264  1.00  0.00     0.030 A 
HETATM    8  C   UNL     1     -35.526  41.686 -55.284  1.00  0.00     0.034 A 
HETATM    9  C   UNL     1     -34.487  40.811 -54.939  1.00  0.00     0.030 A 
HETATM   10  C   UNL     1     -34.236  40.490 -53.600  1.00  0.00     0.019 A 
BRANCH   8  11
HETATM   11  N   UNL     1     -35.776  41.888 -56.656  1.00  0.00    -0.327 N 
HETATM   12  C   UNL     1     -36.978  41.705 -57.328  1.00  0.00     0.231 C 
HETATM   13  O   UNL     1     -38.058  41.437 -56.809  1.00  0.00    -0.272 OA
HETATM   14  H   UNL     1     -34.967  42.064 -57.241  1.00  0.00     0.169 HD
BRANCH  12  15
HETATM   15  C   UNL     1     -36.861  41.884 -58.833  1.00  0.00     0.185 C 
BRANCH  15  16
HETATM   16  S   UNL     1     -37.641  40.471 -59.680  1.00  0.00    -0.083 SA
BRANCH  16  17
HETATM   17  C   UNL     1     -36.371  39.304 -59.548  1.00  0.00     0.168 A 
HETATM   18  N   UNL     1     -35.956  38.529 -60.599  1.00  0.00    -0.339 N 
HETATM   19  C   UNL     1     -36.481  38.515 -61.942  1.00  0.00     0.158 C 
HETATM   20  C   UNL     1     -34.925  37.750 -60.145  1.00  0.00     0.112 A 
HETATM   21  C   UNL     1     -34.774  38.093 -58.821  1.00  0.00     0.136 A 
HETATM   22  N   UNL     1     -35.683  39.053 -58.459  1.00  0.00    -0.235 NA
ENDBRANCH  16  17
ENDBRANCH  15  16
ENDBRANCH  12  15
ENDBRANCH   8  11
ENDBRANCH   2   5
BRANCH   1  23
HETATM   23  C   UNL     1     -33.070  39.579 -49.728  1.00  0.00     0.035 A 
HETATM   24  C   UNL     1     -31.927  40.033 -49.081  1.00  0.00     0.032 A 
HETATM   25  C   UNL     1     -31.519  39.461 -47.865  1.00  0.00     0.031 A 
HETATM   26  C   UNL     1     -32.223  38.404 -47.271  1.00  0.00     0.030 A 
HETATM   27  C   UNL     1     -33.382  37.974 -47.935  1.00  0.00     0.031 A 
HETATM   28  C   UNL     1     -33.804  38.549 -49.140  1.00  0.00     0.032 A 
BRANCH  26  29
HETATM   29  N   UNL     1     -31.853  37.810 -46.065  1.00  0.00    -0.378 N 
HETATM   30  C   UNL     1     -32.019  38.529 -44.791  1.00  0.00     0.150 C 
HETATM   31  C   UNL     1     -30.724  39.255 -44.374  1.00  0.00     0.254 C 
HETATM   32  N   UNL     1     -29.536  38.280 -44.358  1.00  0.00    -0.068 N 
HETATM   33  H   UNL     1     -29.772  37.545 -43.678  1.00  0.00     0.280 HD
HETATM   34  C   UNL     1     -29.399  37.603 -45.728  1.00  0.00     0.254 C 
HETATM   35  C   UNL     1     -30.708  36.877 -46.105  1.00  0.00     0.150 C 
BRANCH  32  36
HETATM   36  C   UNL     1     -28.275  38.966 -43.893  1.00  0.00     0.230 C 
HETATM   37  C   UNL     1     -28.556  39.859 -42.699  1.00  0.00     0.034 C 
ENDBRANCH  32  36
ENDBRANCH  26  29
ENDBRANCH   1  23
TORSDOF 8
ENDMDL
MODEL 6
REMARK VINA RESULT:      -6.3      4.717      6.035
REMARK  8 active torsions:
REMARK  status: ('A' for Active; 'I' for Inactive)
REMARK    1  A    between atoms: C_2  and  N_3 
REMARK    2  A    between atoms: N_7  and  C_8 
REMARK    3  A    between atoms: C_11  and  N_12 
REMARK       I    between atoms: N_12  and  C_13 
REMARK    4  A    between atoms: C_13  and  C_14 
REMARK    5  A    between atoms: C_17  and  N_18 
REMARK       I    between atoms: N_18  and  C_19 
REMARK    6  A    between atoms: C_19  and  C_20 
REMARK    7  A    between atoms: C_20  and  S_21 
REMARK    8  A    between atoms: S_21  and  C_22 
ROOT
HETATM    1  N   UNL     1     -42.188  58.546 -58.130  1.00  0.00    -0.323 N 
HETATM    2  C   UNL     1     -43.194  58.061 -57.314  1.00  0.00     0.256 C 
HETATM    3  O   UNL     1     -44.391  58.298 -57.400  1.00  0.00    -0.267 OA
HETATM    4  H   UNL     1     -41.277  58.117 -58.027  1.00  0.00     0.169 HD
ENDROOT
BRANCH   2   5
HETATM    5  C   UNL     1     -42.715  57.093 -56.289  1.00  0.00     0.032 A 
HETATM    6  C   UNL     1     -42.842  55.714 -56.489  1.00  0.00     0.019 A 
HETATM    7  C   UNL     1     -42.480  54.823 -55.475  1.00  0.00     0.030 A 
HETATM    8  C   UNL     1     -41.986  55.294 -54.256  1.00  0.00     0.034 A 
HETATM    9  C   UNL     1     -41.801  56.674 -54.089  1.00  0.00     0.030 A 
HETATM   10  C   UNL     1     -42.160  57.572 -55.100  1.00  0.00     0.019 A 
BRANCH   8  11
HETATM   11  N   UNL     1     -41.686  54.462 -53.160  1.00  0.00    -0.327 N 
HETATM   12  C   UNL     1     -42.337  54.419 -51.933  1.00  0.00     0.231 C 
HETATM   13  O   UNL     1     -43.360  55.032 -51.640  1.00  0.00    -0.272 OA
HETATM   14  H   UNL     1     -40.828  53.925 -53.221  1.00  0.00     0.169 HD
BRANCH  12  15
HETATM   15  C   UNL     1     -41.666  53.497 -50.926  1.00  0.00     0.185 C 
BRANCH  15  16
HETATM   16  S   UNL     1     -39.902  53.314 -51.345  1.00  0.00    -0.083 SA
BRANCH  16  17
HETATM   17  C   UNL     1     -39.825  51.602 -51.577  1.00  0.00     0.168 A 
HETATM   18  N   UNL     1     -39.760  51.017 -52.815  1.00  0.00    -0.339 N 
HETATM   19  C   UNL     1     -39.767  51.674 -54.099  1.00  0.00     0.158 C 
HETATM   20  C   UNL     1     -39.681  49.663 -52.619  1.00  0.00     0.112 A 
HETATM   21  C   UNL     1     -39.712  49.497 -51.253  1.00  0.00     0.136 A 
HETATM   22  N   UNL     1     -39.810  50.707 -50.617  1.00  0.00    -0.235 NA
ENDBRANCH  16  17
ENDBRANCH  15  16
ENDBRANCH  12  15
ENDBRANCH   8  11
ENDBRANCH   2   5
BRANCH   1  23
HETATM   23  C   UNL     1     -42.300  59.507 -59.152  1.00  0.00     0.035 A 
HETATM   24  C   UNL     1     -42.330  59.204 -60.508  1.00  0.00     0.032 A 
HETATM   25  C   UNL     1     -42.470  60.223 -61.465  1.00  0.00     0.031 A 
HETATM   26  C   UNL     1     -42.559  61.573 -61.101  1.00  0.00     0.030 A 
HETATM   27  C   UNL     1     -42.543  61.852 -59.725  1.00  0.00     0.031 A 
HETATM   28  C   UNL     1     -42.418  60.841 -58.765  1.00  0.00     0.032 A 
BRANCH  26  29
HETATM   29  N   UNL     1     -42.700  62.615 -62.018  1.00  0.00    -0.378 N 
HETATM   30  C   UNL     1     -42.371  62.414 -63.438  1.00  0.00     0.150 C 
HETATM   31  C   UNL     1     -40.929  62.857 -63.758  1.00  0.00     0.254 C 
HETATM   32  N   UNL     1     -40.688  64.300 -63.288  1.00  0.00    -0.068 N 
HETATM   33  H   UNL     1     -41.365  64.887 -63.793  1.00  0.00     0.280 HD
HETATM   34  C   UNL     1     -41.009  64.423 -61.792  1.00  0.00     0.254 C 
HETATM   35  C   UNL     1     -42.463  63.983 -61.514  1.00  0.00     0.150 C 
BRANCH  32  36
HETATM   36  C   UNL     1     -39.299  64.766 -63.649  1.00  0.00     0.230 C 
HETATM   37  C   UNL     1     -38.265  63.720 -63.275  1.00  0.00     0.034 C 
ENDBRANCH  32  36
ENDBRANCH  26  29
ENDBRANCH   1  23
TORSDOF 8
ENDMDL
MODEL 7
REMARK VINA RESULT:      -6.2      1.973      2.516
REMARK  8 active torsions:
REMARK  status: ('A' for Active; 'I' for Inactive)
REMARK    1  A    between atoms: C_2  and  N_3 
REMARK    2  A    between atoms: N_7  and  C_8 
REMARK    3  A    between atoms: C_11  and  N_12 
REMARK       I    between atoms: N_12  and  C_13 
REMARK    4  A    between atoms: C_13  and  C_14 
REMARK    5  A    between atoms: C_17  and  N_18 
REMARK       I    between atoms: N_18  and  C_19 
REMARK    6  A    between atoms: C_19  and  C_20 
REMARK    7  A    between atoms: C_20  and  S_21 
REMARK    8  A    between atoms: S_21  and  C_22 
ROOT
HETATM    1  N   UNL     1     -45.282  57.391 -59.083  1.00  0.00    -0.323 N 
HETATM    2  C   UNL     1     -44.032  56.814 -59.215  1.00  0.00     0.256 C 
HETATM    3  O   UNL     1     -43.494  56.453 -60.253  1.00  0.00    -0.267 OA
HETATM    4  H   UNL     1     -45.503  57.785 -58.176  1.00  0.00     0.169 HD
ENDROOT
BRANCH   2   5
HETATM    5  C   UNL     1     -43.280  56.719 -57.934  1.00  0.00     0.032 A 
HETATM    6  C   UNL     1     -42.983  55.475 -57.366  1.00  0.00     0.019 A 
HETATM    7  C   UNL     1     -42.366  55.406 -56.114  1.00  0.00     0.030 A 
HETATM    8  C   UNL     1     -42.035  56.571 -55.418  1.00  0.00     0.034 A 
HETATM    9  C   UNL     1     -42.277  57.813 -56.023  1.00  0.00     0.030 A 
HETATM   10  C   UNL     1     -42.894  57.889 -57.277  1.00  0.00     0.019 A 
BRANCH   8  11
HETATM   11  N   UNL     1     -41.495  56.578 -54.117  1.00  0.00    -0.327 N 
HETATM   12  C   UNL     1     -42.092  57.063 -52.960  1.00  0.00     0.231 C 
HETATM   13  O   UNL     1     -43.245  57.473 -52.864  1.00  0.00    -0.272 OA
HETATM   14  H   UNL     1     -40.518  56.317 -54.032  1.00  0.00     0.169 HD
BRANCH  12  15
HETATM   15  C   UNL     1     -41.172  57.037 -51.750  1.00  0.00     0.185 C 
BRANCH  15  16
HETATM   16  S   UNL     1     -41.855  55.915 -50.486  1.00  0.00    -0.083 SA
BRANCH  16  17
HETATM   17  C   UNL     1     -41.096  54.434 -50.957  1.00  0.00     0.168 A 
HETATM   18  N   UNL     1     -40.599  53.530 -50.056  1.00  0.00    -0.339 N 
HETATM   19  C   UNL     1     -40.589  53.636 -48.617  1.00  0.00     0.158 C 
HETATM   20  C   UNL     1     -40.102  52.474 -50.774  1.00  0.00     0.112 A 
HETATM   21  C   UNL     1     -40.320  52.804 -52.092  1.00  0.00     0.136 A 
HETATM   22  N   UNL     1     -40.930  54.027 -52.194  1.00  0.00    -0.235 NA
ENDBRANCH  16  17
ENDBRANCH  15  16
ENDBRANCH  12  15
ENDBRANCH   8  11
ENDBRANCH   2   5
BRANCH   1  23
HETATM   23  C   UNL     1     -46.253  57.575 -60.084  1.00  0.00     0.035 A 
HETATM   24  C   UNL     1     -47.024  56.551 -60.622  1.00  0.00     0.032 A 
HETATM   25  C   UNL     1     -47.991  56.824 -61.603  1.00  0.00     0.031 A 
HETATM   26  C   UNL     1     -48.202  58.119 -62.094  1.00  0.00     0.030 A 
HETATM   27  C   UNL     1     -47.423  59.138 -61.524  1.00  0.00     0.031 A 
HETATM   28  C   UNL     1     -46.466  58.876 -60.536  1.00  0.00     0.032 A 
BRANCH  26  29
HETATM   29  N   UNL     1     -49.152  58.434 -63.065  1.00  0.00    -0.378 N 
HETATM   30  C   UNL     1     -48.894  59.493 -64.053  1.00  0.00     0.150 C 
HETATM   31  C   UNL     1     -49.483  60.847 -63.605  1.00  0.00     0.254 C 
HETATM   32  N   UNL     1     -50.974  60.703 -63.261  1.00  0.00    -0.068 N 
HETATM   33  H   UNL     1     -51.439  60.373 -64.117  1.00  0.00     0.280 HD
HETATM   34  C   UNL     1     -51.161  59.614 -62.195  1.00  0.00     0.254 C 
HETATM   35  C   UNL     1     -50.571  58.273 -62.685  1.00  0.00     0.150 C 
BRANCH  32  36
HETATM   36  C   UNL     1     -51.575  62.032 -62.879  1.00  0.00     0.230 C 
HETATM   37  C   UNL     1     -52.533  61.876 -61.713  1.00  0.00     0.034 C 
ENDBRANCH  32  36
ENDBRANCH  26  29
ENDBRANCH   1  23
TORSDOF 8
ENDMDL
MODEL 8
REMARK VINA RESULT:      -6.2      4.175     12.374
REMARK  8 active torsions:
REMARK  status: ('A' for Active; 'I' for Inactive)
REMARK    1  A    between atoms: C_2  and  N_3 
REMARK    2  A    between atoms: N_7  and  C_8 
REMARK    3  A    between atoms: C_11  and  N_12 
REMARK       I    between atoms: N_12  and  C_13 
REMARK    4  A    between atoms: C_13  and  C_14 
REMARK    5  A    between atoms: C_17  and  N_18 
REMARK       I    between atoms: N_18  and  C_19 
REMARK    6  A    between atoms: C_19  and  C_20 
REMARK    7  A    between atoms: C_20  and  S_21 
REMARK    8  A    between atoms: S_21  and  C_22 
ROOT
HETATM    1  N   UNL     1     -44.867  56.981 -58.460  1.00  0.00    -0.323 N 
HETATM    2  C   UNL     1     -44.850  56.680 -59.810  1.00  0.00     0.256 C 
HETATM    3  O   UNL     1     -44.034  55.984 -60.399  1.00  0.00    -0.267 OA
HETATM    4  H   UNL     1     -45.705  57.428 -58.108  1.00  0.00     0.169 HD
ENDROOT
BRANCH   2   5
HETATM    5  C   UNL     1     -46.015  57.227 -60.558  1.00  0.00     0.032 A 
HETATM    6  C   UNL     1     -46.259  58.604 -60.600  1.00  0.00     0.019 A 
HETATM    7  C   UNL     1     -47.412  59.092 -61.222  1.00  0.00     0.030 A 
HETATM    8  C   UNL     1     -48.330  58.217 -61.808  1.00  0.00     0.034 A 
HETATM    9  C   UNL     1     -48.045  56.845 -61.818  1.00  0.00     0.030 A 
HETATM   10  C   UNL     1     -46.892  56.349 -61.199  1.00  0.00     0.019 A 
BRANCH   8  11
HETATM   11  N   UNL     1     -49.553  58.630 -62.372  1.00  0.00    -0.327 N 
HETATM   12  C   UNL     1     -50.451  59.552 -61.849  1.00  0.00     0.231 C 
HETATM   13  O   UNL     1     -50.272  60.245 -60.851  1.00  0.00    -0.272 OA
HETATM   14  H   UNL     1     -49.877  58.110 -63.180  1.00  0.00     0.169 HD
BRANCH  12  15
HETATM   15  C   UNL     1     -51.739  59.661 -62.651  1.00  0.00     0.185 C 
BRANCH  15  16
HETATM   16  S   UNL     1     -53.064  60.326 -61.591  1.00  0.00    -0.083 SA
BRANCH  16  17
HETATM   17  C   UNL     1     -53.662  58.858 -60.901  1.00  0.00     0.168 A 
HETATM   18  N   UNL     1     -53.700  58.628 -59.550  1.00  0.00    -0.339 N 
HETATM   19  C   UNL     1     -53.254  59.505 -58.496  1.00  0.00     0.158 C 
HETATM   20  C   UNL     1     -54.256  57.389 -59.367  1.00  0.00     0.112 A 
HETATM   21  C   UNL     1     -54.520  56.923 -60.635  1.00  0.00     0.136 A 
HETATM   22  N   UNL     1     -54.139  57.841 -61.579  1.00  0.00    -0.235 NA
ENDBRANCH  16  17
ENDBRANCH  15  16
ENDBRANCH  12  15
ENDBRANCH   8  11
ENDBRANCH   2   5
BRANCH   1  23
HETATM   23  C   UNL     1     -43.893  56.661 -57.497  1.00  0.00     0.035 A 
HETATM   24  C   UNL     1     -43.330  55.399 -57.346  1.00  0.00     0.032 A 
HETATM   25  C   UNL     1     -42.343  55.168 -56.374  1.00  0.00     0.031 A 
HETATM   26  C   UNL     1     -41.905  56.179 -55.508  1.00  0.00     0.030 A 
HETATM   27  C   UNL     1     -42.477  57.448 -55.691  1.00  0.00     0.031 A 
HETATM   28  C   UNL     1     -43.451  57.690 -56.667  1.00  0.00     0.032 A 
BRANCH  26  29
HETATM   29  N   UNL     1     -40.927  55.993 -54.532  1.00  0.00    -0.378 N 
HETATM   30  C   UNL     1     -40.480  54.640 -54.166  1.00  0.00     0.150 C 
HETATM   31  C   UNL     1     -41.244  54.098 -52.941  1.00  0.00     0.254 C 
HETATM   32  N   UNL     1     -41.163  55.090 -51.769  1.00  0.00    -0.068 N 
HETATM   33  H   UNL     1     -40.164  55.201 -51.551  1.00  0.00     0.280 HD
HETATM   34  C   UNL     1     -41.686  56.464 -52.212  1.00  0.00     0.254 C 
HETATM   35  C   UNL     1     -40.889  56.977 -53.431  1.00  0.00     0.150 C 
BRANCH  32  36
HETATM   36  C   UNL     1     -41.856  54.545 -50.545  1.00  0.00     0.230 C 
HETATM   37  C   UNL     1     -43.362  54.542 -50.734  1.00  0.00     0.034 C 
ENDBRANCH  32  36
ENDBRANCH  26  29
ENDBRANCH   1  23
TORSDOF 8
ENDMDL
MODEL 9
REMARK VINA RESULT:      -5.9      7.325     11.925
REMARK  8 active torsions:
REMARK  status: ('A' for Active; 'I' for Inactive)
REMARK    1  A    between atoms: C_2  and  N_3 
REMARK    2  A    between atoms: N_7  and  C_8 
REMARK    3  A    between atoms: C_11  and  N_12 
REMARK       I    between atoms: N_12  and  C_13 
REMARK    4  A    between atoms: C_13  and  C_14 
REMARK    5  A    between atoms: C_17  and  N_18 
REMARK       I    between atoms: N_18  and  C_19 
REMARK    6  A    between atoms: C_19  and  C_20 
REMARK    7  A    between atoms: C_20  and  S_21 
REMARK    8  A    between atoms: S_21  and  C_22 
ROOT
HETATM    1  N   UNL     1     -44.065  60.903 -51.733  1.00  0.00    -0.323 N 
HETATM    2  C   UNL     1     -42.959  60.088 -51.898  1.00  0.00     0.256 C 
HETATM    3  O   UNL     1     -42.236  59.641 -51.019  1.00  0.00    -0.267 OA
HETATM    4  H   UNL     1     -44.650  61.041 -52.549  1.00  0.00     0.169 HD
ENDROOT
BRANCH   2   5
HETATM    5  C   UNL     1     -42.721  59.686 -53.312  1.00  0.00     0.032 A 
HETATM    6  C   UNL     1     -43.162  60.487 -54.370  1.00  0.00     0.019 A 
HETATM    7  C   UNL     1     -43.019  60.046 -55.689  1.00  0.00     0.030 A 
HETATM    8  C   UNL     1     -42.433  58.808 -55.967  1.00  0.00     0.034 A 
HETATM    9  C   UNL     1     -41.934  58.042 -54.904  1.00  0.00     0.030 A 
HETATM   10  C   UNL     1     -42.074  58.478 -53.581  1.00  0.00     0.019 A 
BRANCH   8  11
HETATM   11  N   UNL     1     -42.337  58.262 -57.262  1.00  0.00    -0.327 N 
HETATM   12  C   UNL     1     -41.813  58.870 -58.395  1.00  0.00     0.231 C 
HETATM   13  O   UNL     1     -41.243  59.958 -58.429  1.00  0.00    -0.272 OA
HETATM   14  H   UNL     1     -42.814  57.380 -57.416  1.00  0.00     0.169 HD
BRANCH  12  15
HETATM   15  C   UNL     1     -41.990  58.045 -59.660  1.00  0.00     0.185 C 
BRANCH  15  16
HETATM   16  S   UNL     1     -42.726  56.431 -59.239  1.00  0.00    -0.083 SA
BRANCH  16  17
HETATM   17  C   UNL     1     -44.351  56.695 -59.769  1.00  0.00     0.168 A 
HETATM   18  N   UNL     1     -45.238  55.675 -59.997  1.00  0.00    -0.339 N 
HETATM   19  C   UNL     1     -44.999  54.258 -59.872  1.00  0.00     0.158 C 
HETATM   20  C   UNL     1     -46.425  56.248 -60.372  1.00  0.00     0.112 A 
HETATM   21  C   UNL     1     -46.188  57.604 -60.359  1.00  0.00     0.136 A 
HETATM   22  N   UNL     1     -44.894  57.869 -59.991  1.00  0.00    -0.235 NA
ENDBRANCH  16  17
ENDBRANCH  15  16
ENDBRANCH  12  15
ENDBRANCH   8  11
ENDBRANCH   2   5
BRANCH   1  23
HETATM   23  C   UNL     1     -44.526  61.493 -50.542  1.00  0.00     0.035 A 
HETATM   24  C   UNL     1     -44.333  62.828 -50.207  1.00  0.00     0.032 A 
HETATM   25  C   UNL     1     -44.848  63.346 -49.008  1.00  0.00     0.031 A 
HETATM   26  C   UNL     1     -45.549  62.545 -48.096  1.00  0.00     0.030 A 
HETATM   27  C   UNL     1     -45.745  61.205 -48.465  1.00  0.00     0.031 A 
HETATM   28  C   UNL     1     -45.247  60.684 -49.665  1.00  0.00     0.032 A 
BRANCH  26  29
HETATM   29  N   UNL     1     -46.078  63.019 -46.896  1.00  0.00    -0.378 N 
HETATM   30  C   UNL     1     -46.016  64.451 -46.562  1.00  0.00     0.150 C 
HETATM   31  C   UNL     1     -44.786  64.780 -45.691  1.00  0.00     0.254 C 
HETATM   32  N   UNL     1     -44.743  63.876 -44.450  1.00  0.00    -0.068 N 
HETATM   33  H   UNL     1     -45.611  64.055 -43.929  1.00  0.00     0.280 HD
HETATM   34  C   UNL     1     -44.767  62.401 -44.877  1.00  0.00     0.254 C 
HETATM   35  C   UNL     1     -46.016  62.109 -45.735  1.00  0.00     0.150 C 
BRANCH  32  36
HETATM   36  C   UNL     1     -43.578  64.229 -43.559  1.00  0.00     0.230 C 
HETATM   37  C   UNL     1     -43.376  63.172 -42.489  1.00  0.00     0.034 C 
ENDBRANCH  32  36
ENDBRANCH  26  29
ENDBRANCH   1  23
TORSDOF 8
ENDMDL
MODEL 10
REMARK VINA RESULT:      -5.9      1.670      2.396
REMARK  8 active torsions:
REMARK  status: ('A' for Active; 'I' for Inactive)
REMARK    1  A    between atoms: C_2  and  N_3 
REMARK    2  A    between atoms: N_7  and  C_8 
REMARK    3  A    between atoms: C_11  and  N_12 
REMARK       I    between atoms: N_12  and  C_13 
REMARK    4  A    between atoms: C_13  and  C_14 
REMARK    5  A    between atoms: C_17  and  N_18 
REMARK       I    between atoms: N_18  and  C_19 
REMARK    6  A    between atoms: C_19  and  C_20 
REMARK    7  A    between atoms: C_20  and  S_21 
REMARK    8  A    between atoms: S_21  and  C_22 
ROOT
HETATM    1  N   UNL     1     -44.890  57.657 -57.663  1.00  0.00    -0.323 N 
HETATM    2  C   UNL     1     -44.456  58.274 -56.503  1.00  0.00     0.256 C 
HETATM    3  O   UNL     1     -44.576  59.455 -56.208  1.00  0.00    -0.267 OA
HETATM    4  H   UNL     1     -44.864  56.645 -57.672  1.00  0.00     0.169 HD
ENDROOT
BRANCH   2   5
HETATM    5  C   UNL     1     -43.855  57.334 -55.517  1.00  0.00     0.032 A 
HETATM    6  C   UNL     1     -42.904  56.388 -55.914  1.00  0.00     0.019 A 
HETATM    7  C   UNL     1     -42.425  55.449 -54.997  1.00  0.00     0.030 A 
HETATM    8  C   UNL     1     -42.884  55.443 -53.678  1.00  0.00     0.034 A 
HETATM    9  C   UNL     1     -43.788  56.435 -53.272  1.00  0.00     0.030 A 
HETATM   10  C   UNL     1     -44.271  57.380 -54.185  1.00  0.00     0.019 A 
BRANCH   8  11
HETATM   11  N   UNL     1     -42.514  54.474 -52.725  1.00  0.00    -0.327 N 
HETATM   12  C   UNL     1     -41.855  54.685 -51.521  1.00  0.00     0.231 C 
HETATM   13  O   UNL     1     -41.579  55.779 -51.035  1.00  0.00    -0.272 OA
HETATM   14  H   UNL     1     -42.626  53.504 -53.001  1.00  0.00     0.169 HD
BRANCH  12  15
HETATM   15  C   UNL     1     -41.491  53.398 -50.798  1.00  0.00     0.185 C 
BRANCH  15  16
HETATM   16  S   UNL     1     -39.724  53.032 -51.055  1.00  0.00    -0.083 SA
BRANCH  16  17
HETATM   17  C   UNL     1     -39.834  51.952 -52.401  1.00  0.00     0.168 A 
HETATM   18  N   UNL     1     -39.662  50.597 -52.288  1.00  0.00    -0.339 N 
HETATM   19  C   UNL     1     -39.349  49.847 -51.096  1.00  0.00     0.158 C 
HETATM   20  C   UNL     1     -39.847  50.061 -53.535  1.00  0.00     0.112 A 
HETATM   21  C   UNL     1     -40.117  51.136 -54.351  1.00  0.00     0.136 A 
HETATM   22  N   UNL     1     -40.097  52.306 -53.636  1.00  0.00    -0.235 NA
ENDBRANCH  16  17
ENDBRANCH  15  16
ENDBRANCH  12  15
ENDBRANCH   8  11
ENDBRANCH   2   5
BRANCH   1  23
HETATM   23  C   UNL     1     -45.449  58.266 -58.801  1.00  0.00     0.035 A 
HETATM   24  C   UNL     1     -44.757  59.129 -59.644  1.00  0.00     0.032 A 
HETATM   25  C   UNL     1     -45.383  59.676 -60.776  1.00  0.00     0.031 A 
HETATM   26  C   UNL     1     -46.721  59.400 -61.089  1.00  0.00     0.030 A 
HETATM   27  C   UNL     1     -47.392  58.514 -60.232  1.00  0.00     0.031 A 
HETATM   28  C   UNL     1     -46.772  57.953 -59.110  1.00  0.00     0.032 A 
BRANCH  26  29
HETATM   29  N   UNL     1     -47.378  59.920 -62.203  1.00  0.00    -0.378 N 
HETATM   30  C   UNL     1     -46.709  60.890 -63.085  1.00  0.00     0.150 C 
HETATM   31  C   UNL     1     -47.051  62.343 -62.699  1.00  0.00     0.254 C 
HETATM   32  N   UNL     1     -48.574  62.544 -62.638  1.00  0.00    -0.068 N 
HETATM   33  H   UNL     1     -48.934  62.327 -63.576  1.00  0.00     0.280 HD
HETATM   34  C   UNL     1     -49.196  61.530 -61.668  1.00  0.00     0.254 C 
HETATM   35  C   UNL     1     -48.842  60.089 -62.095  1.00  0.00     0.150 C 
BRANCH  32  36
HETATM   36  C   UNL     1     -48.922  63.977 -62.319  1.00  0.00     0.230 C 
HETATM   37  C   UNL     1     -47.884  64.593 -61.399  1.00  0.00     0.034 C 
ENDBRANCH  32  36
ENDBRANCH  26  29
ENDBRANCH   1  23
TORSDOF 8
ENDMDL
