MODEL 1
REMARK VINA RESULT:      -8.8      0.000      0.000
REMARK  6 active torsions:
REMARK  status: ('A' for Active; 'I' for Inactive)
REMARK    1  A    between atoms: O_2  and  C_3 
REMARK    2  A    between atoms: C_6  and  C_7 
REMARK    3  A    between atoms: C_9  and  N_10 
REMARK    4  A    between atoms: N_10  and  N_11 
REMARK       I    between atoms: N_10  and  C_21 
REMARK       I    between atoms: N_11  and  C_12 
REMARK       I    between atoms: C_12  and  N_13 
REMARK    5  A    between atoms: N_13  and  C_14 
REMARK       I    between atoms: C_21  and  N_22 
REMARK    6  A    between atoms: N_22  and  C_23 
ROOT
HETATM    1  N   UNL     1     -41.936  56.691 -53.623  1.00  0.00    -0.176 N 
HETATM    2  C   UNL     1     -41.356  55.601 -52.915  1.00  0.00     0.348 C 
HETATM    3  N   UNL     1     -41.410  54.415 -53.640  1.00  0.00    -0.307 N 
HETATM    4  O   UNL     1     -40.889  55.665 -51.781  1.00  0.00    -0.245 OA
HETATM    5  H   UNL     1     -42.154  54.401 -54.335  1.00  0.00     0.170 HD
ENDROOT
BRANCH   1   6
HETATM    6  C   UNL     1     -42.052  57.924 -52.977  1.00  0.00     0.197 A 
HETATM    7  N   UNL     1     -43.133  58.503 -52.511  1.00  0.00    -0.222 NA
HETATM    8  C   UNL     1     -42.817  59.663 -51.816  1.00  0.00     0.076 A 
HETATM    9  C   UNL     1     -41.481  60.010 -51.873  1.00  0.00     0.086 A 
HETATM   10  S   UNL     1     -40.595  58.806 -52.713  1.00  0.00    -0.060 SA
BRANCH   8  11
HETATM   11  C   UNL     1     -43.836  60.372 -51.042  1.00  0.00    -0.007 A 
HETATM   12  C   UNL     1     -43.556  61.007 -49.826  1.00  0.00     0.016 A 
HETATM   13  C   UNL     1     -44.584  61.593 -49.076  1.00  0.00     0.037 A 
HETATM   14  C   UNL     1     -45.907  61.554 -49.521  1.00  0.00     0.068 A 
HETATM   15  C   UNL     1     -46.192  60.952 -50.743  1.00  0.00     0.037 A 
HETATM   16  C   UNL     1     -45.164  60.369 -51.496  1.00  0.00     0.016 A 
BRANCH  14  17
HETATM   17  O   UNL     1     -46.812  62.135 -48.678  1.00  0.00    -0.356 OA
HETATM   18  C   UNL     1     -46.523  62.067 -47.286  1.00  0.00     0.210 C 
ENDBRANCH  14  17
ENDBRANCH   8  11
ENDBRANCH   1   6
BRANCH   1  19
HETATM   19  N   UNL     1     -41.776  56.762 -55.045  1.00  0.00    -0.239 N 
HETATM   20  C   UNL     1     -42.840  56.845 -55.904  1.00  0.00     0.335 C 
HETATM   21  N   UNL     1     -42.435  56.891 -57.213  1.00  0.00    -0.337 N 
HETATM   22  O   UNL     1     -44.011  56.811 -55.544  1.00  0.00    -0.246 OA
HETATM   23  H   UNL     1     -41.445  56.913 -57.404  1.00  0.00     0.164 HD
HETATM   24  H   UNL     1     -40.918  56.338 -55.375  1.00  0.00     0.192 HD
BRANCH  21  25
HETATM   25  C   UNL     1     -43.345  56.631 -58.322  1.00  0.00     0.086 C 
HETATM   26  C   UNL     1     -44.225  57.855 -58.604  1.00  0.00     0.025 C 
HETATM   27  C   UNL     1     -43.449  59.018 -59.224  1.00  0.00     0.002 C 
HETATM   28  C   UNL     1     -42.660  58.585 -60.457  1.00  0.00     0.000 C 
HETATM   29  C   UNL     1     -41.762  57.386 -60.167  1.00  0.00     0.002 C 
HETATM   30  C   UNL     1     -42.554  56.220 -59.573  1.00  0.00     0.025 C 
ENDBRANCH  21  25
ENDBRANCH   1  19
BRANCH   3  31
HETATM   31  C   UNL     1     -40.847  53.165 -53.329  1.00  0.00     0.036 A 
HETATM   32  C   UNL     1     -40.342  52.826 -52.072  1.00  0.00     0.031 A 
HETATM   33  C   UNL     1     -39.790  51.559 -51.851  1.00  0.00     0.026 A 
HETATM   34  C   UNL     1     -39.732  50.633 -52.891  1.00  0.00     0.034 A 
HETATM   35 CL   UNL     1     -39.048  49.078 -52.619  1.00  0.00    -0.084 Cl
HETATM   36  C   UNL     1     -40.221  50.963 -54.151  1.00  0.00     0.026 A 
HETATM   37  C   UNL     1     -40.778  52.226 -54.368  1.00  0.00     0.031 A 
ENDBRANCH   3  31
TORSDOF 6
ENDMDL
MODEL 2
REMARK VINA RESULT:      -8.6      1.893      2.482
REMARK  6 active torsions:
REMARK  status: ('A' for Active; 'I' for Inactive)
REMARK    1  A    between atoms: O_2  and  C_3 
REMARK    2  A    between atoms: C_6  and  C_7 
REMARK    3  A    between atoms: C_9  and  N_10 
REMARK    4  A    between atoms: N_10  and  N_11 
REMARK       I    between atoms: N_10  and  C_21 
REMARK       I    between atoms: N_11  and  C_12 
REMARK       I    between atoms: C_12  and  N_13 
REMARK    5  A    between atoms: N_13  and  C_14 
REMARK       I    between atoms: C_21  and  N_22 
REMARK    6  A    between atoms: N_22  and  C_23 
ROOT
HETATM    1  N   UNL     1     -44.375  57.518 -53.973  1.00  0.00    -0.176 N 
HETATM    2  C   UNL     1     -43.286  56.778 -53.434  1.00  0.00     0.348 C 
HETATM    3  N   UNL     1     -43.274  55.460 -53.880  1.00  0.00    -0.307 N 
HETATM    4  O   UNL     1     -42.460  57.215 -52.637  1.00  0.00    -0.245 OA
HETATM    5  H   UNL     1     -44.190  55.125 -54.173  1.00  0.00     0.170 HD
ENDROOT
BRANCH   1   6
HETATM    6  C   UNL     1     -44.580  58.827 -53.530  1.00  0.00     0.197 A 
HETATM    7  N   UNL     1     -45.223  59.236 -52.462  1.00  0.00    -0.222 NA
HETATM    8  C   UNL     1     -45.090  60.609 -52.296  1.00  0.00     0.076 A 
HETATM    9  C   UNL     1     -44.434  61.242 -53.333  1.00  0.00     0.086 A 
HETATM   10  S   UNL     1     -43.877  60.088 -54.472  1.00  0.00    -0.060 SA
BRANCH   8  11
HETATM   11  C   UNL     1     -45.555  61.262 -51.072  1.00  0.00    -0.007 A 
HETATM   12  C   UNL     1     -45.151  60.852 -49.796  1.00  0.00     0.016 A 
HETATM   13  C   UNL     1     -45.697  61.448 -48.652  1.00  0.00     0.037 A 
HETATM   14  C   UNL     1     -46.651  62.461 -48.757  1.00  0.00     0.068 A 
HETATM   15  C   UNL     1     -47.036  62.898 -50.022  1.00  0.00     0.037 A 
HETATM   16  C   UNL     1     -46.490  62.305 -51.167  1.00  0.00     0.016 A 
BRANCH  14  17
HETATM   17  O   UNL     1     -47.121  62.932 -47.563  1.00  0.00    -0.356 OA
HETATM   18  C   UNL     1     -46.933  62.095 -46.429  1.00  0.00     0.210 C 
ENDBRANCH  14  17
ENDBRANCH   8  11
ENDBRANCH   1   6
BRANCH   1  19
HETATM   19  N   UNL     1     -44.798  57.258 -55.317  1.00  0.00    -0.239 N 
HETATM   20  C   UNL     1     -43.915  57.157 -56.360  1.00  0.00     0.335 C 
HETATM   21  N   UNL     1     -44.557  56.916 -57.548  1.00  0.00    -0.337 N 
HETATM   22  O   UNL     1     -42.708  57.332 -56.252  1.00  0.00    -0.246 OA
HETATM   23  H   UNL     1     -45.558  56.788 -57.531  1.00  0.00     0.164 HD
HETATM   24  H   UNL     1     -45.742  57.565 -55.509  1.00  0.00     0.192 HD
BRANCH  21  25
HETATM   25  C   UNL     1     -43.910  57.111 -58.840  1.00  0.00     0.086 C 
HETATM   26  C   UNL     1     -43.225  55.821 -59.307  1.00  0.00     0.025 C 
HETATM   27  C   UNL     1     -44.217  54.733 -59.719  1.00  0.00     0.002 C 
HETATM   28  C   UNL     1     -45.231  55.242 -60.740  1.00  0.00     0.000 C 
HETATM   29  C   UNL     1     -45.935  56.509 -60.261  1.00  0.00     0.002 C 
HETATM   30  C   UNL     1     -44.933  57.599 -59.877  1.00  0.00     0.025 C 
ENDBRANCH  21  25
ENDBRANCH   1  19
BRANCH   3  31
HETATM   31  C   UNL     1     -42.307  54.465 -53.663  1.00  0.00     0.036 A 
HETATM   32  C   UNL     1     -42.024  53.908 -52.414  1.00  0.00     0.031 A 
HETATM   33  C   UNL     1     -41.035  52.925 -52.286  1.00  0.00     0.026 A 
HETATM   34  C   UNL     1     -40.319  52.507 -53.406  1.00  0.00     0.034 A 
HETATM   35 CL   UNL     1     -39.100  51.303 -53.245  1.00  0.00    -0.084 Cl
HETATM   36  C   UNL     1     -40.583  53.061 -54.654  1.00  0.00     0.026 A 
HETATM   37  C   UNL     1     -41.575  54.037 -54.781  1.00  0.00     0.031 A 
ENDBRANCH   3  31
TORSDOF 6
ENDMDL
MODEL 3
REMARK VINA RESULT:      -8.5      2.496      7.476
REMARK  6 active torsions:
REMARK  status: ('A' for Active; 'I' for Inactive)
REMARK    1  A    between atoms: O_2  and  C_3 
REMARK    2  A    between atoms: C_6  and  C_7 
REMARK    3  A    between atoms: C_9  and  N_10 
REMARK    4  A    between atoms: N_10  and  N_11 
REMARK       I    between atoms: N_10  and  C_21 
REMARK       I    between atoms: N_11  and  C_12 
REMARK       I    between atoms: C_12  and  N_13 
REMARK    5  A    between atoms: N_13  and  C_14 
REMARK       I    between atoms: C_21  and  N_22 
REMARK    6  A    between atoms: N_22  and  C_23 
ROOT
HETATM    1  N   UNL     1     -42.046  57.047 -55.346  1.00  0.00    -0.176 N 
HETATM    2  C   UNL     1     -41.695  55.674 -55.218  1.00  0.00     0.348 C 
HETATM    3  N   UNL     1     -41.028  55.412 -54.025  1.00  0.00    -0.307 N 
HETATM    4  O   UNL     1     -41.910  54.808 -56.061  1.00  0.00    -0.245 OA
HETATM    5  H   UNL     1     -40.561  56.229 -53.636  1.00  0.00     0.170 HD
ENDROOT
BRANCH   1   6
HETATM    6  C   UNL     1     -42.626  57.482 -56.541  1.00  0.00     0.197 A 
HETATM    7  N   UNL     1     -43.460  56.839 -57.324  1.00  0.00    -0.222 NA
HETATM    8  C   UNL     1     -43.915  57.660 -58.347  1.00  0.00     0.076 A 
HETATM    9  C   UNL     1     -43.309  58.901 -58.388  1.00  0.00     0.086 A 
HETATM   10  S   UNL     1     -42.241  59.079 -57.059  1.00  0.00    -0.060 SA
BRANCH   8  11
HETATM   11  C   UNL     1     -44.999  57.226 -59.228  1.00  0.00    -0.007 A 
HETATM   12  C   UNL     1     -44.965  56.014 -59.928  1.00  0.00     0.016 A 
HETATM   13  C   UNL     1     -45.984  55.686 -60.832  1.00  0.00     0.037 A 
HETATM   14  C   UNL     1     -47.051  56.556 -61.055  1.00  0.00     0.068 A 
HETATM   15  C   UNL     1     -47.111  57.750 -60.341  1.00  0.00     0.037 A 
HETATM   16  C   UNL     1     -46.094  58.079 -59.435  1.00  0.00     0.016 A 
BRANCH  14  17
HETATM   17  O   UNL     1     -47.957  56.126 -61.984  1.00  0.00    -0.356 OA
HETATM   18  C   UNL     1     -48.751  57.125 -62.612  1.00  0.00     0.210 C 
ENDBRANCH  14  17
ENDBRANCH   8  11
ENDBRANCH   1   6
BRANCH   1  19
HETATM   19  N   UNL     1     -42.440  57.778 -54.178  1.00  0.00    -0.239 N 
HETATM   20  C   UNL     1     -43.720  57.754 -53.690  1.00  0.00     0.335 C 
HETATM   21  N   UNL     1     -43.853  58.538 -52.573  1.00  0.00    -0.337 N 
HETATM   22  O   UNL     1     -44.645  57.159 -54.230  1.00  0.00    -0.246 OA
HETATM   23  H   UNL     1     -43.029  58.989 -52.207  1.00  0.00     0.164 HD
HETATM   24  H   UNL     1     -41.870  58.596 -54.004  1.00  0.00     0.192 HD
BRANCH  21  25
HETATM   25  C   UNL     1     -45.153  58.966 -52.069  1.00  0.00     0.086 C 
HETATM   26  C   UNL     1     -45.069  59.321 -50.579  1.00  0.00     0.025 C 
HETATM   27  C   UNL     1     -44.295  60.613 -50.316  1.00  0.00     0.002 C 
HETATM   28  C   UNL     1     -44.823  61.776 -51.151  1.00  0.00     0.000 C 
HETATM   29  C   UNL     1     -44.877  61.432 -52.637  1.00  0.00     0.002 C 
HETATM   30  C   UNL     1     -45.677  60.153 -52.890  1.00  0.00     0.025 C 
ENDBRANCH  21  25
ENDBRANCH   1  19
BRANCH   3  31
HETATM   31  C   UNL     1     -40.626  54.175 -53.494  1.00  0.00     0.036 A 
HETATM   32  C   UNL     1     -40.201  53.092 -54.267  1.00  0.00     0.031 A 
HETATM   33  C   UNL     1     -39.827  51.891 -53.654  1.00  0.00     0.026 A 
HETATM   34  C   UNL     1     -39.888  51.766 -52.268  1.00  0.00     0.034 A 
HETATM   35 CL   UNL     1     -39.433  50.286 -51.517  1.00  0.00    -0.084 Cl
HETATM   36  C   UNL     1     -40.321  52.833 -51.487  1.00  0.00     0.026 A 
HETATM   37  C   UNL     1     -40.688  54.034 -52.100  1.00  0.00     0.031 A 
ENDBRANCH   3  31
TORSDOF 6
ENDMDL
MODEL 4
REMARK VINA RESULT:      -8.3      2.885      7.776
REMARK  6 active torsions:
REMARK  status: ('A' for Active; 'I' for Inactive)
REMARK    1  A    between atoms: O_2  and  C_3 
REMARK    2  A    between atoms: C_6  and  C_7 
REMARK    3  A    between atoms: C_9  and  N_10 
REMARK    4  A    between atoms: N_10  and  N_11 
REMARK       I    between atoms: N_10  and  C_21 
REMARK       I    between atoms: N_11  and  C_12 
REMARK       I    between atoms: C_12  and  N_13 
REMARK    5  A    between atoms: N_13  and  C_14 
REMARK       I    between atoms: C_21  and  N_22 
REMARK    6  A    between atoms: N_22  and  C_23 
ROOT
HETATM    1  N   UNL     1     -42.408  57.286 -55.932  1.00  0.00    -0.176 N 
HETATM    2  C   UNL     1     -41.951  55.965 -55.664  1.00  0.00     0.348 C 
HETATM    3  N   UNL     1     -41.394  55.850 -54.394  1.00  0.00    -0.307 N 
HETATM    4  O   UNL     1     -41.997  55.027 -56.456  1.00  0.00    -0.245 OA
HETATM    5  H   UNL     1     -41.047  56.732 -54.024  1.00  0.00     0.170 HD
ENDROOT
BRANCH   1   6
HETATM    6  C   UNL     1     -42.894  57.580 -57.208  1.00  0.00     0.197 A 
HETATM    7  N   UNL     1     -43.981  57.134 -57.791  1.00  0.00    -0.222 NA
HETATM    8  C   UNL     1     -44.188  57.765 -59.011  1.00  0.00     0.076 A 
HETATM    9  C   UNL     1     -43.163  58.611 -59.390  1.00  0.00     0.086 A 
HETATM   10  S   UNL     1     -41.984  58.701 -58.149  1.00  0.00    -0.060 SA
BRANCH   8  11
HETATM   11  C   UNL     1     -45.436  57.575 -59.749  1.00  0.00    -0.007 A 
HETATM   12  C   UNL     1     -45.875  56.317 -60.180  1.00  0.00     0.016 A 
HETATM   13  C   UNL     1     -47.030  56.197 -60.964  1.00  0.00     0.037 A 
HETATM   14  C   UNL     1     -47.765  57.324 -61.335  1.00  0.00     0.068 A 
HETATM   15  C   UNL     1     -47.354  58.577 -60.886  1.00  0.00     0.037 A 
HETATM   16  C   UNL     1     -46.202  58.698 -60.099  1.00  0.00     0.016 A 
BRANCH  14  17
HETATM   17  O   UNL     1     -48.849  57.066 -62.125  1.00  0.00    -0.356 OA
HETATM   18  C   UNL     1     -48.690  57.294 -63.521  1.00  0.00     0.210 C 
ENDBRANCH  14  17
ENDBRANCH   8  11
ENDBRANCH   1   6
BRANCH   1  19
HETATM   19  N   UNL     1     -42.988  58.052 -54.869  1.00  0.00    -0.239 N 
HETATM   20  C   UNL     1     -42.397  59.182 -54.368  1.00  0.00     0.335 C 
HETATM   21  N   UNL     1     -43.135  59.732 -53.351  1.00  0.00    -0.337 N 
HETATM   22  O   UNL     1     -41.309  59.604 -54.738  1.00  0.00    -0.246 OA
HETATM   23  H   UNL     1     -44.020  59.307 -53.120  1.00  0.00     0.164 HD
HETATM   24  H   UNL     1     -43.588  57.508 -54.262  1.00  0.00     0.192 HD
BRANCH  21  25
HETATM   25  C   UNL     1     -42.579  60.712 -52.424  1.00  0.00     0.086 C 
HETATM   26  C   UNL     1     -43.191  62.098 -52.664  1.00  0.00     0.025 C 
HETATM   27  C   UNL     1     -44.654  62.188 -52.230  1.00  0.00     0.002 C 
HETATM   28  C   UNL     1     -44.853  61.718 -50.791  1.00  0.00     0.000 C 
HETATM   29  C   UNL     1     -44.271  60.326 -50.561  1.00  0.00     0.002 C 
HETATM   30  C   UNL     1     -42.800  60.255 -50.974  1.00  0.00     0.025 C 
ENDBRANCH  21  25
ENDBRANCH   1  19
BRANCH   3  31
HETATM   31  C   UNL     1     -40.942  54.696 -53.731  1.00  0.00     0.036 A 
HETATM   32  C   UNL     1     -40.419  53.575 -54.380  1.00  0.00     0.031 A 
HETATM   33  C   UNL     1     -40.001  52.462 -53.641  1.00  0.00     0.026 A 
HETATM   34  C   UNL     1     -40.116  52.465 -52.252  1.00  0.00     0.034 A 
HETATM   35 CL   UNL     1     -39.605  51.093 -51.347  1.00  0.00    -0.084 Cl
HETATM   36  C   UNL     1     -40.645  53.570 -51.594  1.00  0.00     0.026 A 
HETATM   37  C   UNL     1     -41.057  54.682 -52.333  1.00  0.00     0.031 A 
ENDBRANCH   3  31
TORSDOF 6
ENDMDL
MODEL 5
REMARK VINA RESULT:      -8.3      3.711      8.358
REMARK  6 active torsions:
REMARK  status: ('A' for Active; 'I' for Inactive)
REMARK    1  A    between atoms: O_2  and  C_3 
REMARK    2  A    between atoms: C_6  and  C_7 
REMARK    3  A    between atoms: C_9  and  N_10 
REMARK    4  A    between atoms: N_10  and  N_11 
REMARK       I    between atoms: N_10  and  C_21 
REMARK       I    between atoms: N_11  and  C_12 
REMARK       I    between atoms: C_12  and  N_13 
REMARK    5  A    between atoms: N_13  and  C_14 
REMARK       I    between atoms: C_21  and  N_22 
REMARK    6  A    between atoms: N_22  and  C_23 
ROOT
HETATM    1  N   UNL     1     -41.959  58.498 -53.498  1.00  0.00    -0.176 N 
HETATM    2  C   UNL     1     -42.948  58.746 -52.505  1.00  0.00     0.348 C 
HETATM    3  N   UNL     1     -42.946  60.071 -52.080  1.00  0.00    -0.307 N 
HETATM    4  O   UNL     1     -43.703  57.900 -52.034  1.00  0.00    -0.245 OA
HETATM    5  H   UNL     1     -42.052  60.538 -52.220  1.00  0.00     0.170 HD
ENDROOT
BRANCH   1   6
HETATM    6  C   UNL     1     -41.770  57.187 -53.943  1.00  0.00     0.197 A 
HETATM    7  N   UNL     1     -41.016  56.249 -53.420  1.00  0.00    -0.222 NA
HETATM    8  C   UNL     1     -41.201  55.039 -54.077  1.00  0.00     0.076 A 
HETATM    9  C   UNL     1     -42.021  55.117 -55.186  1.00  0.00     0.086 A 
HETATM   10  S   UNL     1     -42.658  56.702 -55.337  1.00  0.00    -0.060 SA
BRANCH   8  11
HETATM   11  C   UNL     1     -40.616  53.806 -53.550  1.00  0.00    -0.007 A 
HETATM   12  C   UNL     1     -40.307  52.709 -54.362  1.00  0.00     0.016 A 
HETATM   13  C   UNL     1     -39.836  51.516 -53.798  1.00  0.00     0.037 A 
HETATM   14  C   UNL     1     -39.666  51.394 -52.418  1.00  0.00     0.068 A 
HETATM   15  C   UNL     1     -39.941  52.490 -51.603  1.00  0.00     0.037 A 
HETATM   16  C   UNL     1     -40.409  53.684 -52.167  1.00  0.00     0.016 A 
BRANCH  14  17
HETATM   17  O   UNL     1     -39.231  50.168 -52.000  1.00  0.00    -0.356 OA
HETATM   18  C   UNL     1     -39.734  49.703 -50.753  1.00  0.00     0.210 C 
ENDBRANCH  14  17
ENDBRANCH   8  11
ENDBRANCH   1   6
BRANCH   1  19
HETATM   19  N   UNL     1     -41.672  59.516 -54.465  1.00  0.00    -0.239 N 
HETATM   20  C   UNL     1     -42.655  60.185 -55.145  1.00  0.00     0.335 C 
HETATM   21  N   UNL     1     -42.134  61.102 -56.021  1.00  0.00    -0.337 N 
HETATM   22  O   UNL     1     -43.850  59.940 -55.032  1.00  0.00    -0.246 OA
HETATM   23  H   UNL     1     -41.133  61.227 -56.039  1.00  0.00     0.164 HD
HETATM   24  H   UNL     1     -40.765  59.412 -54.901  1.00  0.00     0.192 HD
BRANCH  21  25
HETATM   25  C   UNL     1     -42.920  61.687 -57.101  1.00  0.00     0.086 C 
HETATM   26  C   UNL     1     -42.238  62.944 -57.653  1.00  0.00     0.025 C 
HETATM   27  C   UNL     1     -40.969  62.635 -58.447  1.00  0.00     0.002 C 
HETATM   28  C   UNL     1     -41.216  61.595 -59.537  1.00  0.00     0.000 C 
HETATM   29  C   UNL     1     -41.868  60.332 -58.981  1.00  0.00     0.002 C 
HETATM   30  C   UNL     1     -43.150  60.651 -58.212  1.00  0.00     0.025 C 
ENDBRANCH  21  25
ENDBRANCH   1  19
BRANCH   3  31
HETATM   31  C   UNL     1     -43.836  60.718 -51.206  1.00  0.00     0.036 A 
HETATM   32  C   UNL     1     -43.536  61.043 -49.882  1.00  0.00     0.031 A 
HETATM   33  C   UNL     1     -44.489  61.681 -49.078  1.00  0.00     0.026 A 
HETATM   34  C   UNL     1     -45.747  61.982 -49.594  1.00  0.00     0.034 A 
HETATM   35 CL   UNL     1     -46.918  62.760 -48.602  1.00  0.00    -0.084 Cl
HETATM   36  C   UNL     1     -46.063  61.653 -50.909  1.00  0.00     0.026 A 
HETATM   37  C   UNL     1     -45.109  61.023 -51.712  1.00  0.00     0.031 A 
ENDBRANCH   3  31
TORSDOF 6
ENDMDL
MODEL 6
REMARK VINA RESULT:      -8.2      3.703      9.215
REMARK  6 active torsions:
REMARK  status: ('A' for Active; 'I' for Inactive)
REMARK    1  A    between atoms: O_2  and  C_3 
REMARK    2  A    between atoms: C_6  and  C_7 
REMARK    3  A    between atoms: C_9  and  N_10 
REMARK    4  A    between atoms: N_10  and  N_11 
REMARK       I    between atoms: N_10  and  C_21 
REMARK       I    between atoms: N_11  and  C_12 
REMARK       I    between atoms: C_12  and  N_13 
REMARK    5  A    between atoms: N_13  and  C_14 
REMARK       I    between atoms: C_21  and  N_22 
REMARK    6  A    between atoms: N_22  and  C_23 
ROOT
HETATM    1  N   UNL     1     -43.336  57.787 -54.324  1.00  0.00    -0.176 N 
HETATM    2  C   UNL     1     -43.690  58.992 -53.655  1.00  0.00     0.348 C 
HETATM    3  N   UNL     1     -43.730  58.834 -52.273  1.00  0.00    -0.307 N 
HETATM    4  O   UNL     1     -43.968  60.052 -54.209  1.00  0.00    -0.245 OA
HETATM    5  H   UNL     1     -43.891  57.872 -51.982  1.00  0.00     0.170 HD
ENDROOT
BRANCH   1   6
HETATM    6  C   UNL     1     -43.360  57.764 -55.721  1.00  0.00     0.197 A 
HETATM    7  N   UNL     1     -44.202  57.143 -56.512  1.00  0.00    -0.222 NA
HETATM    8  C   UNL     1     -43.974  57.475 -57.841  1.00  0.00     0.076 A 
HETATM    9  C   UNL     1     -42.861  58.268 -58.042  1.00  0.00     0.086 A 
HETATM   10  S   UNL     1     -42.160  58.694 -56.537  1.00  0.00    -0.060 SA
BRANCH   8  11
HETATM   11  C   UNL     1     -44.909  57.059 -58.887  1.00  0.00    -0.007 A 
HETATM   12  C   UNL     1     -44.646  55.993 -59.755  1.00  0.00     0.016 A 
HETATM   13  C   UNL     1     -45.530  55.693 -60.800  1.00  0.00     0.037 A 
HETATM   14  C   UNL     1     -46.687  56.447 -60.999  1.00  0.00     0.068 A 
HETATM   15  C   UNL     1     -46.974  57.490 -60.122  1.00  0.00     0.037 A 
HETATM   16  C   UNL     1     -46.092  57.790 -59.075  1.00  0.00     0.016 A 
BRANCH  14  17
HETATM   17  O   UNL     1     -47.443  56.065 -62.072  1.00  0.00    -0.356 OA
HETATM   18  C   UNL     1     -48.663  56.768 -62.275  1.00  0.00     0.210 C 
ENDBRANCH  14  17
ENDBRANCH   8  11
ENDBRANCH   1   6
BRANCH   1  19
HETATM   19  N   UNL     1     -42.379  56.908 -53.718  1.00  0.00    -0.239 N 
HETATM   20  C   UNL     1     -42.637  55.582 -53.492  1.00  0.00     0.335 C 
HETATM   21  N   UNL     1     -41.576  54.953 -52.894  1.00  0.00    -0.337 N 
HETATM   22  O   UNL     1     -43.712  55.045 -53.733  1.00  0.00    -0.246 OA
HETATM   23  H   UNL     1     -40.734  55.485 -52.736  1.00  0.00     0.164 HD
HETATM   24  H   UNL     1     -41.722  57.385 -53.114  1.00  0.00     0.192 HD
BRANCH  21  25
HETATM   25  C   UNL     1     -41.706  53.658 -52.235  1.00  0.00     0.086 C 
HETATM   26  C   UNL     1     -40.328  53.095 -51.865  1.00  0.00     0.025 C 
HETATM   27  C   UNL     1     -39.658  53.858 -50.721  1.00  0.00     0.002 C 
HETATM   28  C   UNL     1     -40.571  53.979 -49.504  1.00  0.00     0.000 C 
HETATM   29  C   UNL     1     -41.931  54.568 -49.868  1.00  0.00     0.002 C 
HETATM   30  C   UNL     1     -42.603  53.781 -50.994  1.00  0.00     0.025 C 
ENDBRANCH  21  25
ENDBRANCH   1  19
BRANCH   3  31
HETATM   31  C   UNL     1     -43.926  59.808 -51.280  1.00  0.00     0.036 A 
HETATM   32  C   UNL     1     -42.986  60.786 -50.946  1.00  0.00     0.031 A 
HETATM   33  C   UNL     1     -43.262  61.714 -49.935  1.00  0.00     0.026 A 
HETATM   34  C   UNL     1     -44.473  61.658 -49.248  1.00  0.00     0.034 A 
HETATM   35 CL   UNL     1     -44.807  62.797 -48.002  1.00  0.00    -0.084 Cl
HETATM   36  C   UNL     1     -45.413  60.682 -49.563  1.00  0.00     0.026 A 
HETATM   37  C   UNL     1     -45.139  59.761 -50.577  1.00  0.00     0.031 A 
ENDBRANCH   3  31
TORSDOF 6
ENDMDL
MODEL 7
REMARK VINA RESULT:      -8.2      4.606     10.627
REMARK  6 active torsions:
REMARK  status: ('A' for Active; 'I' for Inactive)
REMARK    1  A    between atoms: O_2  and  C_3 
REMARK    2  A    between atoms: C_6  and  C_7 
REMARK    3  A    between atoms: C_9  and  N_10 
REMARK    4  A    between atoms: N_10  and  N_11 
REMARK       I    between atoms: N_10  and  C_21 
REMARK       I    between atoms: N_11  and  C_12 
REMARK       I    between atoms: C_12  and  N_13 
REMARK    5  A    between atoms: N_13  and  C_14 
REMARK       I    between atoms: C_21  and  N_22 
REMARK    6  A    between atoms: N_22  and  C_23 
ROOT
HETATM    1  N   UNL     1     -44.166  59.562 -51.605  1.00  0.00    -0.176 N 
HETATM    2  C   UNL     1     -44.812  60.181 -52.712  1.00  0.00     0.348 C 
HETATM    3  N   UNL     1     -45.987  60.827 -52.340  1.00  0.00    -0.307 N 
HETATM    4  O   UNL     1     -44.420  60.135 -53.874  1.00  0.00    -0.245 OA
HETATM    5  H   UNL     1     -46.400  60.454 -51.488  1.00  0.00     0.170 HD
ENDROOT
BRANCH   1   6
HETATM    6  C   UNL     1     -43.030  58.783 -51.842  1.00  0.00     0.197 A 
HETATM    7  N   UNL     1     -42.964  57.512 -52.162  1.00  0.00    -0.222 NA
HETATM    8  C   UNL     1     -41.658  57.138 -52.445  1.00  0.00     0.076 A 
HETATM    9  C   UNL     1     -40.723  58.127 -52.213  1.00  0.00     0.086 A 
HETATM   10  S   UNL     1     -41.505  59.578 -51.743  1.00  0.00    -0.060 SA
BRANCH   8  11
HETATM   11  C   UNL     1     -41.364  55.822 -53.014  1.00  0.00    -0.007 A 
HETATM   12  C   UNL     1     -41.679  54.627 -52.356  1.00  0.00     0.016 A 
HETATM   13  C   UNL     1     -41.293  53.394 -52.897  1.00  0.00     0.037 A 
HETATM   14  C   UNL     1     -40.588  53.328 -54.100  1.00  0.00     0.068 A 
HETATM   15  C   UNL     1     -40.297  54.509 -54.778  1.00  0.00     0.037 A 
HETATM   16  C   UNL     1     -40.685  55.743 -54.239  1.00  0.00     0.016 A 
BRANCH  14  17
HETATM   17  O   UNL     1     -40.249  52.065 -54.497  1.00  0.00    -0.356 OA
HETATM   18  C   UNL     1     -39.456  51.304 -53.594  1.00  0.00     0.210 C 
ENDBRANCH  14  17
ENDBRANCH   8  11
ENDBRANCH   1   6
BRANCH   1  19
HETATM   19  N   UNL     1     -44.206  60.205 -50.325  1.00  0.00    -0.239 N 
HETATM   20  C   UNL     1     -45.206  59.976 -49.416  1.00  0.00     0.335 C 
HETATM   21  N   UNL     1     -45.032  60.713 -48.273  1.00  0.00    -0.337 N 
HETATM   22  O   UNL     1     -46.172  59.255 -49.632  1.00  0.00    -0.246 OA
HETATM   23  H   UNL     1     -44.201  61.280 -48.194  1.00  0.00     0.164 HD
HETATM   24  H   UNL     1     -43.730  61.098 -50.309  1.00  0.00     0.192 HD
BRANCH  21  25
HETATM   25  C   UNL     1     -46.106  60.928 -47.310  1.00  0.00     0.086 C 
HETATM   26  C   UNL     1     -45.743  60.328 -45.946  1.00  0.00     0.025 C 
HETATM   27  C   UNL     1     -44.642  61.107 -45.226  1.00  0.00     0.002 C 
HETATM   28  C   UNL     1     -44.966  62.595 -45.127  1.00  0.00     0.000 C 
HETATM   29  C   UNL     1     -45.297  63.198 -46.489  1.00  0.00     0.002 C 
HETATM   30  C   UNL     1     -46.417  62.427 -47.189  1.00  0.00     0.025 C 
ENDBRANCH  21  25
ENDBRANCH   1  19
BRANCH   3  31
HETATM   31  C   UNL     1     -46.831  61.637 -53.118  1.00  0.00     0.036 A 
HETATM   32  C   UNL     1     -46.436  62.276 -54.295  1.00  0.00     0.031 A 
HETATM   33  C   UNL     1     -47.342  63.073 -55.004  1.00  0.00     0.026 A 
HETATM   34  C   UNL     1     -48.642  63.241 -54.532  1.00  0.00     0.034 A 
HETATM   35 CL   UNL     1     -49.752  64.225 -55.403  1.00  0.00    -0.084 Cl
HETATM   36  C   UNL     1     -49.045  62.618 -53.355  1.00  0.00     0.026 A 
HETATM   37  C   UNL     1     -48.141  61.818 -52.651  1.00  0.00     0.031 A 
ENDBRANCH   3  31
TORSDOF 6
ENDMDL
MODEL 8
REMARK VINA RESULT:      -8.0      3.769      9.298
REMARK  6 active torsions:
REMARK  status: ('A' for Active; 'I' for Inactive)
REMARK    1  A    between atoms: O_2  and  C_3 
REMARK    2  A    between atoms: C_6  and  C_7 
REMARK    3  A    between atoms: C_9  and  N_10 
REMARK    4  A    between atoms: N_10  and  N_11 
REMARK       I    between atoms: N_10  and  C_21 
REMARK       I    between atoms: N_11  and  C_12 
REMARK       I    between atoms: C_12  and  N_13 
REMARK    5  A    between atoms: N_13  and  C_14 
REMARK       I    between atoms: C_21  and  N_22 
REMARK    6  A    between atoms: N_22  and  C_23 
ROOT
HETATM    1  N   UNL     1     -44.194  57.840 -54.965  1.00  0.00    -0.176 N 
HETATM    2  C   UNL     1     -44.470  57.644 -56.348  1.00  0.00     0.348 C 
HETATM    3  N   UNL     1     -45.715  58.148 -56.712  1.00  0.00    -0.307 N 
HETATM    4  O   UNL     1     -43.730  57.068 -57.141  1.00  0.00    -0.245 OA
HETATM    5  H   UNL     1     -46.368  58.210 -55.934  1.00  0.00     0.170 HD
ENDROOT
BRANCH   1   6
HETATM    6  C   UNL     1     -43.027  57.290 -54.430  1.00  0.00     0.197 A 
HETATM    7  N   UNL     1     -42.775  56.035 -54.139  1.00  0.00    -0.222 NA
HETATM    8  C   UNL     1     -41.451  55.871 -53.752  1.00  0.00     0.076 A 
HETATM    9  C   UNL     1     -40.744  57.052 -53.640  1.00  0.00     0.086 A 
HETATM   10  S   UNL     1     -41.718  58.372 -54.137  1.00  0.00    -0.060 SA
BRANCH   8  11
HETATM   11  C   UNL     1     -40.888  54.533 -53.568  1.00  0.00    -0.007 A 
HETATM   12  C   UNL     1     -40.586  53.686 -54.641  1.00  0.00     0.016 A 
HETATM   13  C   UNL     1     -40.135  52.380 -54.411  1.00  0.00     0.037 A 
HETATM   14  C   UNL     1     -39.979  51.894 -53.112  1.00  0.00     0.068 A 
HETATM   15  C   UNL     1     -40.247  52.738 -52.037  1.00  0.00     0.037 A 
HETATM   16  C   UNL     1     -40.695  54.046 -52.266  1.00  0.00     0.016 A 
BRANCH  14  17
HETATM   17  O   UNL     1     -39.563  50.594 -53.032  1.00  0.00    -0.356 OA
HETATM   18  C   UNL     1     -39.494  49.870 -54.254  1.00  0.00     0.210 C 
ENDBRANCH  14  17
ENDBRANCH   8  11
ENDBRANCH   1   6
BRANCH   1  19
HETATM   19  N   UNL     1     -44.649  59.040 -54.327  1.00  0.00    -0.239 N 
HETATM   20  C   UNL     1     -45.087  59.063 -53.029  1.00  0.00     0.335 C 
HETATM   21  N   UNL     1     -45.480  60.321 -52.648  1.00  0.00    -0.337 N 
HETATM   22  O   UNL     1     -45.182  58.067 -52.323  1.00  0.00    -0.246 OA
HETATM   23  H   UNL     1     -45.363  61.076 -53.306  1.00  0.00     0.164 HD
HETATM   24  H   UNL     1     -45.013  59.726 -54.975  1.00  0.00     0.192 HD
BRANCH  21  25
HETATM   25  C   UNL     1     -46.299  60.559 -51.466  1.00  0.00     0.086 C 
HETATM   26  C   UNL     1     -45.487  60.333 -50.185  1.00  0.00     0.025 C 
HETATM   27  C   UNL     1     -44.435  61.416 -49.945  1.00  0.00     0.002 C 
HETATM   28  C   UNL     1     -45.036  62.818 -50.000  1.00  0.00     0.000 C 
HETATM   29  C   UNL     1     -45.818  63.053 -51.289  1.00  0.00     0.002 C 
HETATM   30  C   UNL     1     -46.885  61.978 -51.503  1.00  0.00     0.025 C 
ENDBRANCH  21  25
ENDBRANCH   1  19
BRANCH   3  31
HETATM   31  C   UNL     1     -46.286  58.244 -57.992  1.00  0.00     0.036 A 
HETATM   32  C   UNL     1     -46.370  57.181 -58.893  1.00  0.00     0.031 A 
HETATM   33  C   UNL     1     -46.949  57.368 -60.154  1.00  0.00     0.026 A 
HETATM   34  C   UNL     1     -47.433  58.622 -60.520  1.00  0.00     0.034 A 
HETATM   35 CL   UNL     1     -48.138  58.850 -62.073  1.00  0.00    -0.084 Cl
HETATM   36  C   UNL     1     -47.344  59.692 -59.636  1.00  0.00     0.026 A 
HETATM   37  C   UNL     1     -46.773  59.502 -58.375  1.00  0.00     0.031 A 
ENDBRANCH   3  31
TORSDOF 6
ENDMDL
MODEL 9
REMARK VINA RESULT:      -8.0      4.069      9.333
REMARK  6 active torsions:
REMARK  status: ('A' for Active; 'I' for Inactive)
REMARK    1  A    between atoms: O_2  and  C_3 
REMARK    2  A    between atoms: C_6  and  C_7 
REMARK    3  A    between atoms: C_9  and  N_10 
REMARK    4  A    between atoms: N_10  and  N_11 
REMARK       I    between atoms: N_10  and  C_21 
REMARK       I    between atoms: N_11  and  C_12 
REMARK       I    between atoms: C_12  and  N_13 
REMARK    5  A    between atoms: N_13  and  C_14 
REMARK       I    between atoms: C_21  and  N_22 
REMARK    6  A    between atoms: N_22  and  C_23 
ROOT
HETATM    1  N   UNL     1     -42.462  58.530 -56.415  1.00  0.00    -0.176 N 
HETATM    2  C   UNL     1     -41.911  59.031 -57.628  1.00  0.00     0.348 C 
HETATM    3  N   UNL     1     -42.147  60.394 -57.789  1.00  0.00    -0.307 N 
HETATM    4  O   UNL     1     -41.325  58.356 -58.470  1.00  0.00    -0.245 OA
HETATM    5  H   UNL     1     -42.957  60.726 -57.271  1.00  0.00     0.170 HD
ENDROOT
BRANCH   1   6
HETATM    6  C   UNL     1     -42.398  57.157 -56.168  1.00  0.00     0.197 A 
HETATM    7  N   UNL     1     -41.670  56.519 -55.282  1.00  0.00    -0.222 NA
HETATM    8  C   UNL     1     -41.989  55.168 -55.255  1.00  0.00     0.076 A 
HETATM    9  C   UNL     1     -42.889  54.780 -56.229  1.00  0.00     0.086 A 
HETATM   10  S   UNL     1     -43.427  56.146 -57.113  1.00  0.00    -0.060 SA
BRANCH   8  11
HETATM   11  C   UNL     1     -41.449  54.293 -54.214  1.00  0.00    -0.007 A 
HETATM   12  C   UNL     1     -41.449  54.643 -52.858  1.00  0.00     0.016 A 
HETATM   13  C   UNL     1     -40.836  53.814 -51.910  1.00  0.00     0.037 A 
HETATM   14  C   UNL     1     -40.212  52.626 -52.294  1.00  0.00     0.068 A 
HETATM   15  C   UNL     1     -40.234  52.253 -53.635  1.00  0.00     0.037 A 
HETATM   16  C   UNL     1     -40.849  53.080 -54.584  1.00  0.00     0.016 A 
BRANCH  14  17
HETATM   17  O   UNL     1     -39.628  51.929 -51.273  1.00  0.00    -0.356 OA
HETATM   18  C   UNL     1     -39.483  50.526 -51.459  1.00  0.00     0.210 C 
ENDBRANCH  14  17
ENDBRANCH   8  11
ENDBRANCH   1   6
BRANCH   1  19
HETATM   19  N   UNL     1     -42.445  59.360 -55.247  1.00  0.00    -0.239 N 
HETATM   20  C   UNL     1     -43.517  59.461 -54.400  1.00  0.00     0.335 C 
HETATM   21  N   UNL     1     -43.264  60.321 -53.362  1.00  0.00    -0.337 N 
HETATM   22  O   UNL     1     -44.591  58.905 -54.589  1.00  0.00    -0.246 OA
HETATM   23  H   UNL     1     -42.345  60.732 -53.296  1.00  0.00     0.164 HD
HETATM   24  H   UNL     1     -41.807  60.142 -55.318  1.00  0.00     0.192 HD
BRANCH  21  25
HETATM   25  C   UNL     1     -44.326  60.876 -52.530  1.00  0.00     0.086 C 
HETATM   26  C   UNL     1     -44.093  60.539 -51.052  1.00  0.00     0.025 C 
HETATM   27  C   UNL     1     -42.916  61.303 -50.445  1.00  0.00     0.002 C 
HETATM   28  C   UNL     1     -43.031  62.808 -50.677  1.00  0.00     0.000 C 
HETATM   29  C   UNL     1     -43.232  63.143 -52.152  1.00  0.00     0.002 C 
HETATM   30  C   UNL     1     -44.428  62.394 -52.741  1.00  0.00     0.025 C 
ENDBRANCH  21  25
ENDBRANCH   1  19
BRANCH   3  31
HETATM   31  C   UNL     1     -41.669  61.258 -58.788  1.00  0.00     0.036 A 
HETATM   32  C   UNL     1     -42.236  61.374 -60.059  1.00  0.00     0.031 A 
HETATM   33  C   UNL     1     -41.689  62.256 -60.998  1.00  0.00     0.026 A 
HETATM   34  C   UNL     1     -40.568  63.015 -60.672  1.00  0.00     0.034 A 
HETATM   35 CL   UNL     1     -39.894  64.095 -61.830  1.00  0.00    -0.084 Cl
HETATM   36  C   UNL     1     -39.986  62.901 -59.413  1.00  0.00     0.026 A 
HETATM   37  C   UNL     1     -40.537  62.025 -58.474  1.00  0.00     0.031 A 
ENDBRANCH   3  31
TORSDOF 6
ENDMDL
MODEL 10
REMARK VINA RESULT:      -7.9     17.302     20.079
REMARK  6 active torsions:
REMARK  status: ('A' for Active; 'I' for Inactive)
REMARK    1  A    between atoms: O_2  and  C_3 
REMARK    2  A    between atoms: C_6  and  C_7 
REMARK    3  A    between atoms: C_9  and  N_10 
REMARK    4  A    between atoms: N_10  and  N_11 
REMARK       I    between atoms: N_10  and  C_21 
REMARK       I    between atoms: N_11  and  C_12 
REMARK       I    between atoms: C_12  and  N_13 
REMARK    5  A    between atoms: N_13  and  C_14 
REMARK       I    between atoms: C_21  and  N_22 
REMARK    6  A    between atoms: N_22  and  C_23 
ROOT
HETATM    1  N   UNL     1     -36.564  39.165 -51.249  1.00  0.00    -0.176 N 
HETATM    2  C   UNL     1     -37.674  38.542 -50.611  1.00  0.00     0.348 C 
HETATM    3  N   UNL     1     -38.890  39.032 -51.077  1.00  0.00    -0.307 N 
HETATM    4  O   UNL     1     -37.596  37.696 -49.725  1.00  0.00    -0.245 OA
HETATM    5  H   UNL     1     -38.824  39.969 -51.470  1.00  0.00     0.170 HD
ENDROOT
BRANCH   1   6
HETATM    6  C   UNL     1     -35.276  38.853 -50.807  1.00  0.00     0.197 A 
HETATM    7  N   UNL     1     -34.644  39.304 -49.749  1.00  0.00    -0.222 NA
HETATM    8  C   UNL     1     -33.430  38.652 -49.579  1.00  0.00     0.076 A 
HETATM    9  C   UNL     1     -33.106  37.784 -50.603  1.00  0.00     0.086 A 
HETATM   10  S   UNL     1     -34.392  37.701 -51.734  1.00  0.00    -0.060 SA
BRANCH   8  11
HETATM   11  C   UNL     1     -32.642  38.847 -48.361  1.00  0.00    -0.007 A 
HETATM   12  C   UNL     1     -31.588  39.765 -48.283  1.00  0.00     0.016 A 
HETATM   13  C   UNL     1     -30.802  39.848 -47.126  1.00  0.00     0.037 A 
HETATM   14  C   UNL     1     -31.051  39.020 -46.030  1.00  0.00     0.068 A 
HETATM   15  C   UNL     1     -32.116  38.126 -46.086  1.00  0.00     0.037 A 
HETATM   16  C   UNL     1     -32.904  38.043 -47.241  1.00  0.00     0.016 A 
BRANCH  14  17
HETATM   17  O   UNL     1     -30.191  39.185 -44.980  1.00  0.00    -0.356 OA
HETATM   18  C   UNL     1     -29.848  40.523 -44.641  1.00  0.00     0.210 C 
ENDBRANCH  14  17
ENDBRANCH   8  11
ENDBRANCH   1   6
BRANCH   1  19
HETATM   19  N   UNL     1     -36.664  39.517 -52.634  1.00  0.00    -0.239 N 
HETATM   20  C   UNL     1     -36.309  40.752 -53.108  1.00  0.00     0.335 C 
HETATM   21  N   UNL     1     -36.502  40.852 -54.462  1.00  0.00    -0.337 N 
HETATM   22  O   UNL     1     -35.933  41.674 -52.395  1.00  0.00    -0.246 OA
HETATM   23  H   UNL     1     -36.818  40.033 -54.960  1.00  0.00     0.164 HD
HETATM   24  H   UNL     1     -37.368  38.989 -53.133  1.00  0.00     0.192 HD
BRANCH  21  25
HETATM   25  C   UNL     1     -36.542  42.135 -55.154  1.00  0.00     0.086 C 
HETATM   26  C   UNL     1     -35.185  42.450 -55.796  1.00  0.00     0.025 C 
HETATM   27  C   UNL     1     -34.873  41.561 -57.000  1.00  0.00     0.002 C 
HETATM   28  C   UNL     1     -36.005  41.568 -58.024  1.00  0.00     0.000 C 
HETATM   29  C   UNL     1     -37.349  41.224 -57.389  1.00  0.00     0.002 C 
HETATM   30  C   UNL     1     -37.663  42.138 -56.204  1.00  0.00     0.025 C 
ENDBRANCH  21  25
ENDBRANCH   1  19
BRANCH   3  31
HETATM   31  C   UNL     1     -40.191  38.592 -50.777  1.00  0.00     0.036 A 
HETATM   32  C   UNL     1     -40.478  37.537 -49.909  1.00  0.00     0.031 A 
HETATM   33  C   UNL     1     -41.806  37.158 -49.674  1.00  0.00     0.026 A 
HETATM   34  C   UNL     1     -42.846  37.827 -50.315  1.00  0.00     0.034 A 
HETATM   35 CL   UNL     1     -44.476  37.356 -50.028  1.00  0.00    -0.084 Cl
HETATM   36  C   UNL     1     -42.572  38.873 -51.191  1.00  0.00     0.026 A 
HETATM   37  C   UNL     1     -41.247  39.254 -51.420  1.00  0.00     0.031 A 
ENDBRANCH   3  31
TORSDOF 6
ENDMDL
