MODEL 1
REMARK VINA RESULT:      -7.3      0.000      0.000
REMARK  2 active torsions:
REMARK  status: ('A' for Active; 'I' for Inactive)
REMARK    1  A    between atoms: C_8  and  S_9 
REMARK    2  A    between atoms: S_9  and  C_10 
ROOT
HETATM    1  C   UNL     1     -40.102  50.990 -54.318  1.00  0.00     0.002 A 
HETATM    2  C   UNL     1     -40.648  52.265 -54.163  1.00  0.00     0.034 A 
HETATM    3  C   UNL     1     -40.644  52.907 -52.930  1.00  0.00     0.087 A 
HETATM    4  C   UNL     1     -40.083  52.237 -51.808  1.00  0.00     0.087 A 
HETATM    5  N   UNL     1     -40.080  52.799 -50.583  1.00  0.00    -0.231 NA
HETATM    6  C   UNL     1     -40.655  54.014 -50.454  1.00  0.00     0.167 A 
HETATM    7 CL   UNL     1     -40.640  54.611 -48.853  1.00  0.00    -0.059 Cl
HETATM    8  C   UNL     1     -41.181  54.658 -51.549  1.00  0.00     0.193 A 
HETATM    9  N   UNL     1     -41.171  54.146 -52.817  1.00  0.00    -0.232 NA
HETATM   10  C   UNL     1     -39.530  50.975 -51.981  1.00  0.00     0.034 A 
HETATM   11  C   UNL     1     -39.535  50.346 -53.226  1.00  0.00     0.002 A 
ENDROOT
BRANCH   8  12
HETATM   12  S   UNL     1     -41.893  56.258 -51.421  1.00  0.00     0.201 S 
HETATM   13  O   UNL     1     -43.095  56.132 -50.623  1.00  0.00    -0.221 OA
HETATM   14  O   UNL     1     -40.839  57.195 -51.080  1.00  0.00    -0.221 OA
BRANCH  12  15
HETATM   15  C   UNL     1     -42.402  56.707 -53.081  1.00  0.00     0.141 C 
HETATM   16  C   UNL     1     -41.574  57.897 -53.554  1.00  0.00     0.252 C 
HETATM   17  N   UNL     1     -42.059  58.375 -54.896  1.00  0.00    -0.074 N 
HETATM   18  H   UNL     1     -41.887  57.658 -55.617  1.00  0.00     0.277 HD
HETATM   19  H   UNL     1     -41.496  59.190 -55.182  1.00  0.00     0.277 HD
HETATM   20  C   UNL     1     -43.501  58.769 -54.910  1.00  0.00     0.232 C 
HETATM   21  C   UNL     1     -44.339  57.578 -54.475  1.00  0.00     0.029 C 
HETATM   22  C   UNL     1     -43.901  57.047 -53.110  1.00  0.00     0.024 C 
ENDBRANCH  12  15
ENDBRANCH   8  12
TORSDOF 2
ENDMDL
MODEL 2
REMARK VINA RESULT:      -7.0      2.875      3.787
REMARK  2 active torsions:
REMARK  status: ('A' for Active; 'I' for Inactive)
REMARK    1  A    between atoms: C_8  and  S_9 
REMARK    2  A    between atoms: S_9  and  C_10 
ROOT
HETATM    1  C   UNL     1     -39.446  51.293 -52.125  1.00  0.00     0.002 A 
HETATM    2  C   UNL     1     -39.872  52.613 -51.968  1.00  0.00     0.034 A 
HETATM    3  C   UNL     1     -40.625  53.249 -52.948  1.00  0.00     0.087 A 
HETATM    4  C   UNL     1     -40.950  52.538 -54.135  1.00  0.00     0.087 A 
HETATM    5  N   UNL     1     -41.651  53.115 -55.131  1.00  0.00    -0.231 NA
HETATM    6  C   UNL     1     -42.011  54.407 -54.971  1.00  0.00     0.167 A 
HETATM    7 CL   UNL     1     -42.850  55.054 -56.312  1.00  0.00    -0.059 Cl
HETATM    8  C   UNL     1     -41.703  55.079 -53.813  1.00  0.00     0.193 A 
HETATM    9  N   UNL     1     -41.030  54.524 -52.760  1.00  0.00    -0.232 NA
HETATM   10  C   UNL     1     -40.532  51.221 -54.271  1.00  0.00     0.034 A 
HETATM   11  C   UNL     1     -39.784  50.592 -53.275  1.00  0.00     0.002 A 
ENDROOT
BRANCH   8  12
HETATM   12  S   UNL     1     -42.199  56.745 -53.557  1.00  0.00     0.201 S 
HETATM   13  O   UNL     1     -41.783  57.502 -54.719  1.00  0.00    -0.221 OA
HETATM   14  O   UNL     1     -43.574  56.740 -53.095  1.00  0.00    -0.221 OA
BRANCH  12  15
HETATM   15  C   UNL     1     -41.238  57.338 -52.164  1.00  0.00     0.141 C 
HETATM   16  C   UNL     1     -42.183  57.724 -51.031  1.00  0.00     0.252 C 
HETATM   17  N   UNL     1     -41.415  58.339 -49.892  1.00  0.00    -0.074 N 
HETATM   18  H   UNL     1     -40.791  57.641 -49.460  1.00  0.00     0.277 HD
HETATM   19  H   UNL     1     -42.079  58.608 -49.150  1.00  0.00     0.277 HD
HETATM   20  C   UNL     1     -40.627  59.549 -50.281  1.00  0.00     0.232 C 
HETATM   21  C   UNL     1     -39.655  59.166 -51.385  1.00  0.00     0.029 C 
HETATM   22  C   UNL     1     -40.375  58.540 -52.580  1.00  0.00     0.024 C 
ENDBRANCH  12  15
ENDBRANCH   8  12
TORSDOF 2
ENDMDL
MODEL 3
REMARK VINA RESULT:      -7.0      2.430      2.654
REMARK  2 active torsions:
REMARK  status: ('A' for Active; 'I' for Inactive)
REMARK    1  A    between atoms: C_8  and  S_9 
REMARK    2  A    between atoms: S_9  and  C_10 
ROOT
HETATM    1  C   UNL     1     -39.608  51.343 -53.650  1.00  0.00     0.002 A 
HETATM    2  C   UNL     1     -40.160  52.468 -54.266  1.00  0.00     0.034 A 
HETATM    3  C   UNL     1     -40.595  53.558 -53.521  1.00  0.00     0.087 A 
HETATM    4  C   UNL     1     -40.484  53.510 -52.104  1.00  0.00     0.087 A 
HETATM    5  N   UNL     1     -40.918  54.526 -51.331  1.00  0.00    -0.231 NA
HETATM    6  C   UNL     1     -41.488  55.581 -51.952  1.00  0.00     0.167 A 
HETATM    7 CL   UNL     1     -42.047  56.786 -50.876  1.00  0.00    -0.059 Cl
HETATM    8  C   UNL     1     -41.575  55.622 -53.323  1.00  0.00     0.193 A 
HETATM    9  N   UNL     1     -41.114  54.635 -54.150  1.00  0.00    -0.232 NA
HETATM   10  C   UNL     1     -39.920  52.392 -51.507  1.00  0.00     0.034 A 
HETATM   11  C   UNL     1     -39.481  51.308 -52.268  1.00  0.00     0.002 A 
ENDROOT
BRANCH   8  12
HETATM   12  S   UNL     1     -42.269  57.001 -54.160  1.00  0.00     0.201 S 
HETATM   13  O   UNL     1     -43.688  57.012 -53.872  1.00  0.00    -0.221 OA
HETATM   14  O   UNL     1     -41.425  58.154 -53.905  1.00  0.00    -0.221 OA
BRANCH  12  15
HETATM   15  C   UNL     1     -42.084  56.662 -55.911  1.00  0.00     0.141 C 
HETATM   16  C   UNL     1     -42.077  57.979 -56.679  1.00  0.00     0.252 C 
HETATM   17  N   UNL     1     -42.044  57.722 -58.162  1.00  0.00    -0.074 N 
HETATM   18  H   UNL     1     -41.152  57.280 -58.431  1.00  0.00     0.277 HD
HETATM   19  H   UNL     1     -42.060  58.628 -58.656  1.00  0.00     0.277 HD
HETATM   20  C   UNL     1     -43.188  56.895 -58.655  1.00  0.00     0.232 C 
HETATM   21  C   UNL     1     -43.182  55.564 -57.922  1.00  0.00     0.029 C 
HETATM   22  C   UNL     1     -43.222  55.754 -56.405  1.00  0.00     0.024 C 
ENDBRANCH  12  15
ENDBRANCH   8  12
TORSDOF 2
ENDMDL
MODEL 4
REMARK VINA RESULT:      -6.7      2.326      2.868
REMARK  2 active torsions:
REMARK  status: ('A' for Active; 'I' for Inactive)
REMARK    1  A    between atoms: C_8  and  S_9 
REMARK    2  A    between atoms: S_9  and  C_10 
ROOT
HETATM    1  C   UNL     1     -39.127  50.930 -52.645  1.00  0.00     0.002 A 
HETATM    2  C   UNL     1     -39.630  51.896 -51.772  1.00  0.00     0.034 A 
HETATM    3  C   UNL     1     -40.598  52.806 -52.184  1.00  0.00     0.087 A 
HETATM    4  C   UNL     1     -41.067  52.751 -53.525  1.00  0.00     0.087 A 
HETATM    5  N   UNL     1     -41.981  53.626 -53.986  1.00  0.00    -0.231 NA
HETATM    6  C   UNL     1     -42.417  54.579 -53.133  1.00  0.00     0.167 A 
HETATM    7 CL   UNL     1     -43.535  55.665 -53.834  1.00  0.00    -0.059 Cl
HETATM    8  C   UNL     1     -41.967  54.612 -51.835  1.00  0.00     0.193 A 
HETATM    9  N   UNL     1     -41.072  53.721 -51.311  1.00  0.00    -0.232 NA
HETATM   10  C   UNL     1     -40.568  51.774 -54.376  1.00  0.00     0.034 A 
HETATM   11  C   UNL     1     -39.602  50.863 -53.948  1.00  0.00     0.002 A 
ENDROOT
BRANCH   8  12
HETATM   12  S   UNL     1     -42.551  55.809 -50.690  1.00  0.00     0.201 S 
HETATM   13  O   UNL     1     -43.997  55.719 -50.671  1.00  0.00    -0.221 OA
HETATM   14  O   UNL     1     -41.759  55.699 -49.479  1.00  0.00    -0.221 OA
BRANCH  12  15
HETATM   15  C   UNL     1     -42.127  57.407 -51.385  1.00  0.00     0.141 C 
HETATM   16  C   UNL     1     -40.999  58.025 -50.567  1.00  0.00     0.252 C 
HETATM   17  N   UNL     1     -40.702  59.419 -51.051  1.00  0.00    -0.074 N 
HETATM   18  H   UNL     1     -40.321  59.394 -52.009  1.00  0.00     0.277 HD
HETATM   19  H   UNL     1     -39.950  59.820 -50.470  1.00  0.00     0.277 HD
HETATM   20  C   UNL     1     -41.879  60.338 -51.000  1.00  0.00     0.232 C 
HETATM   21  C   UNL     1     -42.998  59.749 -51.843  1.00  0.00     0.029 C 
HETATM   22  C   UNL     1     -43.355  58.331 -51.396  1.00  0.00     0.024 C 
ENDBRANCH  12  15
ENDBRANCH   8  12
TORSDOF 2
ENDMDL
MODEL 5
REMARK VINA RESULT:      -6.7      2.052      2.441
REMARK  2 active torsions:
REMARK  status: ('A' for Active; 'I' for Inactive)
REMARK    1  A    between atoms: C_8  and  S_9 
REMARK    2  A    between atoms: S_9  and  C_10 
ROOT
HETATM    1  C   UNL     1     -39.934  50.856 -53.955  1.00  0.00     0.002 A 
HETATM    2  C   UNL     1     -40.375  52.126 -54.332  1.00  0.00     0.034 A 
HETATM    3  C   UNL     1     -40.502  53.151 -53.403  1.00  0.00     0.087 A 
HETATM    4  C   UNL     1     -40.188  52.888 -52.042  1.00  0.00     0.087 A 
HETATM    5  N   UNL     1     -40.322  53.836 -51.093  1.00  0.00    -0.231 NA
HETATM    6  C   UNL     1     -40.794  55.041 -51.480  1.00  0.00     0.167 A 
HETATM    7 CL   UNL     1     -40.972  56.150 -50.192  1.00  0.00    -0.059 Cl
HETATM    8  C   UNL     1     -41.080  55.288 -52.801  1.00  0.00     0.193 A 
HETATM    9  N   UNL     1     -40.922  54.371 -53.804  1.00  0.00    -0.232 NA
HETATM   10  C   UNL     1     -39.736  51.625 -51.684  1.00  0.00     0.034 A 
HETATM   11  C   UNL     1     -39.606  50.607 -52.629  1.00  0.00     0.002 A 
ENDROOT
BRANCH   8  12
HETATM   12  S   UNL     1     -41.650  56.859 -53.341  1.00  0.00     0.201 S 
HETATM   13  O   UNL     1     -40.512  57.754 -53.340  1.00  0.00    -0.221 OA
HETATM   14  O   UNL     1     -42.471  56.660 -54.521  1.00  0.00    -0.221 OA
BRANCH  12  15
HETATM   15  C   UNL     1     -42.781  57.436 -52.075  1.00  0.00     0.141 C 
HETATM   16  C   UNL     1     -44.155  56.819 -52.311  1.00  0.00     0.252 C 
HETATM   17  N   UNL     1     -45.157  57.378 -51.336  1.00  0.00    -0.074 N 
HETATM   18  H   UNL     1     -44.924  57.089 -50.374  1.00  0.00     0.277 HD
HETATM   19  H   UNL     1     -46.079  56.959 -51.531  1.00  0.00     0.277 HD
HETATM   20  C   UNL     1     -45.292  58.865 -51.398  1.00  0.00     0.232 C 
HETATM   21  C   UNL     1     -43.934  59.492 -51.128  1.00  0.00     0.029 C 
HETATM   22  C   UNL     1     -42.869  58.971 -52.092  1.00  0.00     0.024 C 
ENDBRANCH  12  15
ENDBRANCH   8  12
TORSDOF 2
ENDMDL
MODEL 6
REMARK VINA RESULT:      -6.6      3.331      4.265
REMARK  2 active torsions:
REMARK  status: ('A' for Active; 'I' for Inactive)
REMARK    1  A    between atoms: C_8  and  S_9 
REMARK    2  A    between atoms: S_9  and  C_10 
ROOT
HETATM    1  C   UNL     1     -40.135  52.800 -52.049  1.00  0.00     0.002 A 
HETATM    2  C   UNL     1     -40.586  54.120 -51.982  1.00  0.00     0.034 A 
HETATM    3  C   UNL     1     -41.052  54.782 -53.111  1.00  0.00     0.087 A 
HETATM    4  C   UNL     1     -41.053  54.097 -54.358  1.00  0.00     0.087 A 
HETATM    5  N   UNL     1     -41.465  54.700 -55.491  1.00  0.00    -0.231 NA
HETATM    6  C   UNL     1     -41.853  55.991 -55.403  1.00  0.00     0.167 A 
HETATM    7 CL   UNL     1     -42.307  56.671 -56.904  1.00  0.00    -0.059 Cl
HETATM    8  C   UNL     1     -41.862  56.637 -54.190  1.00  0.00     0.193 A 
HETATM    9  N   UNL     1     -41.492  56.055 -53.009  1.00  0.00    -0.232 NA
HETATM   10  C   UNL     1     -40.615  52.781 -54.407  1.00  0.00     0.034 A 
HETATM   11  C   UNL     1     -40.157  52.126 -53.263  1.00  0.00     0.002 A 
ENDROOT
BRANCH   8  12
HETATM   12  S   UNL     1     -42.406  58.300 -54.038  1.00  0.00     0.201 S 
HETATM   13  O   UNL     1     -41.387  59.143 -54.627  1.00  0.00    -0.221 OA
HETATM   14  O   UNL     1     -43.793  58.361 -54.460  1.00  0.00    -0.221 OA
BRANCH  12  15
HETATM   15  C   UNL     1     -42.435  58.652 -52.279  1.00  0.00     0.141 C 
HETATM   16  C   UNL     1     -43.762  59.312 -51.922  1.00  0.00     0.252 C 
HETATM   17  N   UNL     1     -43.768  59.730 -50.476  1.00  0.00    -0.074 N 
HETATM   18  H   UNL     1     -43.737  58.901 -49.862  1.00  0.00     0.277 HD
HETATM   19  H   UNL     1     -44.668  60.189 -50.267  1.00  0.00     0.277 HD
HETATM   20  C   UNL     1     -42.663  60.669 -50.115  1.00  0.00     0.232 C 
HETATM   21  C   UNL     1     -41.333  60.005 -50.433  1.00  0.00     0.029 C 
HETATM   22  C   UNL     1     -41.257  59.563 -51.895  1.00  0.00     0.024 C 
ENDBRANCH  12  15
ENDBRANCH   8  12
TORSDOF 2
ENDMDL
MODEL 7
REMARK VINA RESULT:      -6.4      2.114      2.768
REMARK  2 active torsions:
REMARK  status: ('A' for Active; 'I' for Inactive)
REMARK    1  A    between atoms: C_8  and  S_9 
REMARK    2  A    between atoms: S_9  and  C_10 
ROOT
HETATM    1  C   UNL     1     -39.468  50.221 -51.715  1.00  0.00     0.002 A 
HETATM    2  C   UNL     1     -39.736  51.541 -51.349  1.00  0.00     0.034 A 
HETATM    3  C   UNL     1     -40.201  52.466 -52.275  1.00  0.00     0.087 A 
HETATM    4  C   UNL     1     -40.393  52.054 -53.622  1.00  0.00     0.087 A 
HETATM    5  N   UNL     1     -40.814  52.916 -54.568  1.00  0.00    -0.231 NA
HETATM    6  C   UNL     1     -41.021  54.198 -54.195  1.00  0.00     0.167 A 
HETATM    7 CL   UNL     1     -41.503  55.215 -55.480  1.00  0.00    -0.059 Cl
HETATM    8  C   UNL     1     -40.847  54.581 -52.886  1.00  0.00     0.193 A 
HETATM    9  N   UNL     1     -40.461  53.734 -51.885  1.00  0.00    -0.232 NA
HETATM   10  C   UNL     1     -40.137  50.734 -53.968  1.00  0.00     0.034 A 
HETATM   11  C   UNL     1     -39.677  49.814 -53.026  1.00  0.00     0.002 A 
ENDROOT
BRANCH   8  12
HETATM   12  S   UNL     1     -41.154  56.229 -52.362  1.00  0.00     0.201 S 
HETATM   13  O   UNL     1     -40.810  56.305 -50.957  1.00  0.00    -0.221 OA
HETATM   14  O   UNL     1     -40.579  57.129 -53.344  1.00  0.00    -0.221 OA
BRANCH  12  15
HETATM   15  C   UNL     1     -42.927  56.465 -52.488  1.00  0.00     0.141 C 
HETATM   16  C   UNL     1     -43.225  57.408 -53.649  1.00  0.00     0.252 C 
HETATM   17  N   UNL     1     -44.696  57.722 -53.706  1.00  0.00    -0.074 N 
HETATM   18  H   UNL     1     -45.236  56.875 -53.937  1.00  0.00     0.277 HD
HETATM   19  H   UNL     1     -44.866  58.375 -54.487  1.00  0.00     0.277 HD
HETATM   20  C   UNL     1     -45.229  58.337 -52.453  1.00  0.00     0.232 C 
HETATM   21  C   UNL     1     -44.970  57.388 -51.293  1.00  0.00     0.029 C 
HETATM   22  C   UNL     1     -43.488  57.034 -51.174  1.00  0.00     0.024 C 
ENDBRANCH  12  15
ENDBRANCH   8  12
TORSDOF 2
ENDMDL
MODEL 8
REMARK VINA RESULT:      -6.2      2.309      2.729
REMARK  2 active torsions:
REMARK  status: ('A' for Active; 'I' for Inactive)
REMARK    1  A    between atoms: C_8  and  S_9 
REMARK    2  A    between atoms: S_9  and  C_10 
ROOT
HETATM    1  C   UNL     1     -39.374  51.352 -53.496  1.00  0.00     0.002 A 
HETATM    2  C   UNL     1     -40.099  52.266 -54.263  1.00  0.00     0.034 A 
HETATM    3  C   UNL     1     -40.879  53.248 -53.666  1.00  0.00     0.087 A 
HETATM    4  C   UNL     1     -40.945  53.307 -52.247  1.00  0.00     0.087 A 
HETATM    5  N   UNL     1     -41.710  54.219 -51.616  1.00  0.00    -0.231 NA
HETATM    6  C   UNL     1     -42.435  55.061 -52.383  1.00  0.00     0.167 A 
HETATM    7 CL   UNL     1     -43.406  56.142 -51.482  1.00  0.00    -0.059 Cl
HETATM    8  C   UNL     1     -42.352  55.005 -53.754  1.00  0.00     0.193 A 
HETATM    9  N   UNL     1     -41.560  54.124 -54.437  1.00  0.00    -0.232 NA
HETATM   10  C   UNL     1     -40.207  52.401 -51.498  1.00  0.00     0.034 A 
HETATM   11  C   UNL     1     -39.422  51.424 -52.111  1.00  0.00     0.002 A 
ENDROOT
BRANCH   8  12
HETATM   12  S   UNL     1     -43.247  56.118 -54.777  1.00  0.00     0.201 S 
HETATM   13  O   UNL     1     -42.977  55.751 -56.151  1.00  0.00    -0.221 OA
HETATM   14  O   UNL     1     -44.598  56.218 -54.259  1.00  0.00    -0.221 OA
BRANCH  12  15
HETATM   15  C   UNL     1     -42.518  57.734 -54.505  1.00  0.00     0.141 C 
HETATM   16  C   UNL     1     -41.205  57.570 -53.748  1.00  0.00     0.252 C 
HETATM   17  N   UNL     1     -40.629  58.917 -53.399  1.00  0.00    -0.074 N 
HETATM   18  H   UNL     1     -40.354  59.424 -54.254  1.00  0.00     0.277 HD
HETATM   19  H   UNL     1     -39.753  58.777 -52.872  1.00  0.00     0.277 HD
HETATM   20  C   UNL     1     -41.543  59.768 -52.578  1.00  0.00     0.232 C 
HETATM   21  C   UNL     1     -42.843  59.968 -53.340  1.00  0.00     0.029 C 
HETATM   22  C   UNL     1     -43.486  58.634 -53.719  1.00  0.00     0.024 C 
ENDBRANCH  12  15
ENDBRANCH   8  12
TORSDOF 2
ENDMDL
MODEL 9
REMARK VINA RESULT:      -6.1      2.955      3.820
REMARK  2 active torsions:
REMARK  status: ('A' for Active; 'I' for Inactive)
REMARK    1  A    between atoms: C_8  and  S_9 
REMARK    2  A    between atoms: S_9  and  C_10 
ROOT
HETATM    1  C   UNL     1     -40.465  52.477 -52.967  1.00  0.00     0.002 A 
HETATM    2  C   UNL     1     -40.558  53.642 -52.204  1.00  0.00     0.034 A 
HETATM    3  C   UNL     1     -40.903  54.858 -52.782  1.00  0.00     0.087 A 
HETATM    4  C   UNL     1     -41.150  54.908 -54.181  1.00  0.00     0.087 A 
HETATM    5  N   UNL     1     -41.459  56.065 -54.800  1.00  0.00    -0.231 NA
HETATM    6  C   UNL     1     -41.497  57.184 -54.044  1.00  0.00     0.167 A 
HETATM    7 CL   UNL     1     -41.847  58.599 -54.935  1.00  0.00    -0.059 Cl
HETATM    8  C   UNL     1     -41.271  57.120 -52.690  1.00  0.00     0.193 A 
HETATM    9  N   UNL     1     -40.995  55.964 -52.012  1.00  0.00    -0.232 NA
HETATM   10  C   UNL     1     -41.069  53.738 -54.925  1.00  0.00     0.034 A 
HETATM   11  C   UNL     1     -40.729  52.523 -54.329  1.00  0.00     0.002 A 
ENDROOT
BRANCH   8  12
HETATM   12  S   UNL     1     -41.360  58.550 -51.674  1.00  0.00     0.201 S 
HETATM   13  O   UNL     1     -41.082  58.132 -50.315  1.00  0.00    -0.221 OA
HETATM   14  O   UNL     1     -40.610  59.610 -52.320  1.00  0.00    -0.221 OA
BRANCH  12  15
HETATM   15  C   UNL     1     -43.071  59.086 -51.725  1.00  0.00     0.141 C 
HETATM   16  C   UNL     1     -43.246  60.290 -50.806  1.00  0.00     0.252 C 
HETATM   17  N   UNL     1     -44.696  60.690 -50.734  1.00  0.00    -0.074 N 
HETATM   18  H   UNL     1     -45.020  61.035 -51.650  1.00  0.00     0.277 HD
HETATM   19  H   UNL     1     -44.787  61.492 -50.092  1.00  0.00     0.277 HD
HETATM   20  C   UNL     1     -45.598  59.598 -50.256  1.00  0.00     0.232 C 
HETATM   21  C   UNL     1     -45.458  58.405 -51.188  1.00  0.00     0.029 C 
HETATM   22  C   UNL     1     -44.005  57.942 -51.300  1.00  0.00     0.024 C 
ENDBRANCH  12  15
ENDBRANCH   8  12
TORSDOF 2
ENDMDL
MODEL 10
REMARK VINA RESULT:      -6.1      2.595      3.352
REMARK  2 active torsions:
REMARK  status: ('A' for Active; 'I' for Inactive)
REMARK    1  A    between atoms: C_8  and  S_9 
REMARK    2  A    between atoms: S_9  and  C_10 
ROOT
HETATM    1  C   UNL     1     -39.803  52.421 -51.168  1.00  0.00     0.002 A 
HETATM    2  C   UNL     1     -40.618  53.551 -51.246  1.00  0.00     0.034 A 
HETATM    3  C   UNL     1     -41.221  53.924 -52.441  1.00  0.00     0.087 A 
HETATM    4  C   UNL     1     -40.987  53.140 -53.603  1.00  0.00     0.087 A 
HETATM    5  N   UNL     1     -41.522  53.472 -54.795  1.00  0.00    -0.231 NA
HETATM    6  C   UNL     1     -42.269  54.596 -54.851  1.00  0.00     0.167 A 
HETATM    7 CL   UNL     1     -42.855  54.950 -56.416  1.00  0.00    -0.059 Cl
HETATM    8  C   UNL     1     -42.500  55.338 -53.717  1.00  0.00     0.193 A 
HETATM    9  N   UNL     1     -42.013  55.019 -52.480  1.00  0.00    -0.232 NA
HETATM   10  C   UNL     1     -40.187  52.010 -53.507  1.00  0.00     0.034 A 
HETATM   11  C   UNL     1     -39.593  51.643 -52.299  1.00  0.00     0.002 A 
ENDROOT
BRANCH   8  12
HETATM   12  S   UNL     1     -43.506  56.778 -53.749  1.00  0.00     0.201 S 
HETATM   13  O   UNL     1     -44.659  56.480 -54.572  1.00  0.00    -0.221 OA
HETATM   14  O   UNL     1     -43.637  57.266 -52.389  1.00  0.00    -0.221 OA
BRANCH  12  15
HETATM   15  C   UNL     1     -42.550  58.029 -54.606  1.00  0.00     0.141 C 
HETATM   16  C   UNL     1     -42.638  59.342 -53.836  1.00  0.00     0.252 C 
HETATM   17  N   UNL     1     -41.945  60.443 -54.594  1.00  0.00    -0.074 N 
HETATM   18  H   UNL     1     -40.932  60.261 -54.647  1.00  0.00     0.277 HD
HETATM   19  H   UNL     1     -42.037  61.322 -54.061  1.00  0.00     0.277 HD
HETATM   20  C   UNL     1     -42.492  60.665 -55.967  1.00  0.00     0.232 C 
HETATM   21  C   UNL     1     -42.375  59.372 -56.756  1.00  0.00     0.029 C 
HETATM   22  C   UNL     1     -43.067  58.210 -56.043  1.00  0.00     0.024 C 
ENDBRANCH  12  15
ENDBRANCH   8  12
TORSDOF 2
ENDMDL
