MODEL 1
REMARK VINA RESULT:     -10.3      0.000      0.000
REMARK  3 active torsions:
REMARK  status: ('A' for Active; 'I' for Inactive)
REMARK    1  A    between atoms: C_6  and  C_7 
REMARK       I    between atoms: C_7  and  N_8 
REMARK    2  A    between atoms: N_8  and  C_9 
REMARK    3  A    between atoms: C_16  and  C_17 
REMARK       I    between atoms: C_17  and  N_18 
ROOT
HETATM    1  C   UNL     1     -42.317  54.213 -54.707  1.00  0.00     0.257 C 
HETATM    2  N   UNL     1     -41.759  54.803 -55.826  1.00  0.00    -0.323 N 
HETATM    3  O   UNL     1     -43.483  54.289 -54.341  1.00  0.00    -0.267 OA
HETATM    4  H   UNL     1     -40.792  54.588 -56.035  1.00  0.00     0.169 HD
ENDROOT
BRANCH   2   5
HETATM    5  C   UNL     1     -42.400  55.680 -56.726  1.00  0.00     0.036 A 
HETATM    6  C   UNL     1     -43.042  55.247 -57.894  1.00  0.00     0.046 A 
HETATM    7  C   UNL     1     -43.712  56.187 -58.707  1.00  0.00     0.030 A 
HETATM    8  C   UNL     1     -43.674  57.530 -58.350  1.00  0.00     0.063 A 
HETATM    9  C   UNL     1     -44.518  56.142 -59.885  1.00  0.00     0.156 A 
HETATM   10  N   UNL     1     -44.373  58.184 -59.326  1.00  0.00    -0.277 N 
HETATM   11  C   UNL     1     -43.031  57.997 -57.202  1.00  0.00     0.034 A 
HETATM   12  H   UNL     1     -44.536  59.181 -59.400  1.00  0.00     0.189 HD
HETATM   13  N   UNL     1     -44.911  57.381 -60.258  1.00  0.00    -0.168 NA
HETATM   14  C   UNL     1     -42.416  57.039 -56.386  1.00  0.00     0.032 A 
BRANCH   9  15
HETATM   15  C   UNL     1     -44.945  54.951 -60.633  1.00  0.00     0.270 C 
HETATM   16  N   UNL     1     -45.308  53.894 -59.843  1.00  0.00    -0.365 N 
HETATM   17  H   UNL     1     -45.226  53.993 -58.838  1.00  0.00     0.159 HD
HETATM   18  H   UNL     1     -45.560  53.017 -60.269  1.00  0.00     0.159 HD
HETATM   19  O   UNL     1     -44.965  54.863 -61.857  1.00  0.00    -0.266 OA
ENDBRANCH   9  15
ENDBRANCH   2   5
BRANCH   1  20
HETATM   20  C   UNL     1     -41.368  53.452 -53.852  1.00  0.00     0.046 A 
HETATM   21  C   UNL     1     -40.990  53.837 -52.542  1.00  0.00     0.009 A 
HETATM   22  C   UNL     1     -40.178  52.918 -51.840  1.00  0.00     0.071 A 
HETATM   23  C   UNL     1     -41.338  55.059 -51.906  1.00  0.00     0.018 A 
HETATM   24  N   UNL     1     -39.730  51.774 -52.381  1.00  0.00    -0.253 NA
HETATM   25  C   UNL     1     -39.812  53.196 -50.534  1.00  0.00     0.074 A 
HETATM   26  C   UNL     1     -40.044  51.475 -53.660  1.00  0.00     0.032 A 
HETATM   27  C   UNL     1     -39.467  50.218 -54.239  1.00  0.00     0.070 C 
HETATM   28  C   UNL     1     -40.866  52.278 -54.422  1.00  0.00     0.044 A 
HETATM   29  C   UNL     1     -40.203  54.374 -49.914  1.00  0.00     0.118 A 
HETATM   30  F   UNL     1     -39.837  54.609 -48.647  1.00  0.00    -0.206 F 
HETATM   31  C   UNL     1     -40.955  55.318 -50.592  1.00  0.00     0.043 A 
ENDBRANCH   1  20
TORSDOF 3
ENDMDL
MODEL 2
REMARK VINA RESULT:      -9.9      2.176      3.380
REMARK  3 active torsions:
REMARK  status: ('A' for Active; 'I' for Inactive)
REMARK    1  A    between atoms: C_6  and  C_7 
REMARK       I    between atoms: C_7  and  N_8 
REMARK    2  A    between atoms: N_8  and  C_9 
REMARK    3  A    between atoms: C_16  and  C_17 
REMARK       I    between atoms: C_17  and  N_18 
ROOT
HETATM    1  C   UNL     1     -41.418  55.579 -53.463  1.00  0.00     0.257 C 
HETATM    2  N   UNL     1     -42.717  55.480 -53.923  1.00  0.00    -0.323 N 
HETATM    3  O   UNL     1     -40.581  56.410 -53.796  1.00  0.00    -0.267 OA
HETATM    4  H   UNL     1     -43.312  54.780 -53.499  1.00  0.00     0.169 HD
ENDROOT
BRANCH   2   5
HETATM    5  C   UNL     1     -43.318  56.264 -54.931  1.00  0.00     0.036 A 
HETATM    6  C   UNL     1     -43.031  56.113 -56.294  1.00  0.00     0.046 A 
HETATM    7  C   UNL     1     -43.725  56.898 -57.240  1.00  0.00     0.030 A 
HETATM    8  C   UNL     1     -44.643  57.838 -56.788  1.00  0.00     0.063 A 
HETATM    9  C   UNL     1     -43.778  56.987 -58.664  1.00  0.00     0.156 A 
HETATM   10  N   UNL     1     -45.121  58.449 -57.914  1.00  0.00    -0.277 N 
HETATM   11  C   UNL     1     -44.941  58.025 -55.437  1.00  0.00     0.034 A 
HETATM   12  H   UNL     1     -45.798  59.201 -57.964  1.00  0.00     0.189 HD
HETATM   13  N   UNL     1     -44.637  57.952 -59.064  1.00  0.00    -0.168 NA
HETATM   14  C   UNL     1     -44.277  57.200 -54.522  1.00  0.00     0.032 A 
BRANCH   9  15
HETATM   15  C   UNL     1     -43.061  56.156 -59.642  1.00  0.00     0.270 C 
HETATM   16  N   UNL     1     -41.730  56.450 -59.757  1.00  0.00    -0.365 N 
HETATM   17  H   UNL     1     -41.355  57.214 -59.207  1.00  0.00     0.159 HD
HETATM   18  H   UNL     1     -41.171  55.971 -60.444  1.00  0.00     0.159 HD
HETATM   19  O   UNL     1     -43.579  55.283 -60.332  1.00  0.00    -0.266 OA
ENDBRANCH   9  15
ENDBRANCH   2   5
BRANCH   1  20
HETATM   20  C   UNL     1     -41.004  54.524 -52.499  1.00  0.00     0.046 A 
HETATM   21  C   UNL     1     -40.586  53.223 -52.872  1.00  0.00     0.009 A 
HETATM   22  C   UNL     1     -40.110  52.406 -51.822  1.00  0.00     0.071 A 
HETATM   23  C   UNL     1     -40.629  52.684 -54.185  1.00  0.00     0.018 A 
HETATM   24  N   UNL     1     -40.103  52.793 -50.537  1.00  0.00    -0.253 NA
HETATM   25  C   UNL     1     -39.630  51.139 -52.113  1.00  0.00     0.074 A 
HETATM   26  C   UNL     1     -40.583  54.011 -50.206  1.00  0.00     0.032 A 
HETATM   27  C   UNL     1     -40.613  54.372 -48.751  1.00  0.00     0.070 C 
HETATM   28  C   UNL     1     -41.030  54.907 -51.155  1.00  0.00     0.044 A 
HETATM   29  C   UNL     1     -39.637  50.649 -53.411  1.00  0.00     0.118 A 
HETATM   30  F   UNL     1     -39.161  49.423 -53.658  1.00  0.00    -0.206 F 
HETATM   31  C   UNL     1     -40.145  51.405 -54.453  1.00  0.00     0.043 A 
ENDBRANCH   1  20
TORSDOF 3
ENDMDL
MODEL 3
REMARK VINA RESULT:      -9.6      1.672      1.943
REMARK  3 active torsions:
REMARK  status: ('A' for Active; 'I' for Inactive)
REMARK    1  A    between atoms: C_6  and  C_7 
REMARK       I    between atoms: C_7  and  N_8 
REMARK    2  A    between atoms: N_8  and  C_9 
REMARK    3  A    between atoms: C_16  and  C_17 
REMARK       I    between atoms: C_17  and  N_18 
ROOT
HETATM    1  C   UNL     1     -41.409  55.463 -53.617  1.00  0.00     0.257 C 
HETATM    2  N   UNL     1     -42.530  55.218 -54.388  1.00  0.00    -0.323 N 
HETATM    3  O   UNL     1     -40.807  56.525 -53.512  1.00  0.00    -0.267 OA
HETATM    4  H   UNL     1     -42.957  54.304 -54.314  1.00  0.00     0.169 HD
ENDROOT
BRANCH   2   5
HETATM    5  C   UNL     1     -43.158  56.118 -55.274  1.00  0.00     0.036 A 
HETATM    6  C   UNL     1     -42.889  56.155 -56.649  1.00  0.00     0.046 A 
HETATM    7  C   UNL     1     -43.610  57.046 -57.473  1.00  0.00     0.030 A 
HETATM    8  C   UNL     1     -44.537  57.900 -56.889  1.00  0.00     0.063 A 
HETATM    9  C   UNL     1     -43.685  57.322 -58.872  1.00  0.00     0.156 A 
HETATM   10  N   UNL     1     -45.040  58.647 -57.917  1.00  0.00    -0.277 N 
HETATM   11  C   UNL     1     -44.818  57.900 -55.521  1.00  0.00     0.034 A 
HETATM   12  H   UNL     1     -45.730  59.387 -57.857  1.00  0.00     0.189 HD
HETATM   13  N   UNL     1     -44.566  58.317 -59.129  1.00  0.00    -0.168 NA
HETATM   14  C   UNL     1     -44.126  56.973 -54.732  1.00  0.00     0.032 A 
BRANCH   9  15
HETATM   15  C   UNL     1     -42.970  56.642 -59.961  1.00  0.00     0.270 C 
HETATM   16  N   UNL     1     -41.638  56.947 -60.031  1.00  0.00    -0.365 N 
HETATM   17  H   UNL     1     -41.262  57.621 -59.374  1.00  0.00     0.159 HD
HETATM   18  H   UNL     1     -41.079  56.572 -60.780  1.00  0.00     0.159 HD
HETATM   19  O   UNL     1     -43.488  55.880 -60.771  1.00  0.00    -0.266 OA
ENDBRANCH   9  15
ENDBRANCH   2   5
BRANCH   1  20
HETATM   20  C   UNL     1     -40.872  54.284 -52.886  1.00  0.00     0.046 A 
HETATM   21  C   UNL     1     -40.792  54.189 -51.475  1.00  0.00     0.009 A 
HETATM   22  C   UNL     1     -40.372  52.940 -50.965  1.00  0.00     0.071 A 
HETATM   23  C   UNL     1     -41.074  55.237 -50.558  1.00  0.00     0.018 A 
HETATM   24  N   UNL     1     -40.007  51.914 -51.749  1.00  0.00    -0.253 NA
HETATM   25  C   UNL     1     -40.322  52.750 -49.594  1.00  0.00     0.074 A 
HETATM   26  C   UNL     1     -40.019  52.064 -53.091  1.00  0.00     0.032 A 
HETATM   27  C   UNL     1     -39.541  50.911 -53.921  1.00  0.00     0.070 C 
HETATM   28  C   UNL     1     -40.453  53.225 -53.697  1.00  0.00     0.044 A 
HETATM   29  C   UNL     1     -40.648  53.773 -48.714  1.00  0.00     0.118 A 
HETATM   30  F   UNL     1     -40.594  53.553 -47.395  1.00  0.00    -0.206 F 
HETATM   31  C   UNL     1     -41.013  55.023 -49.182  1.00  0.00     0.043 A 
ENDBRANCH   1  20
TORSDOF 3
ENDMDL
MODEL 4
REMARK VINA RESULT:      -9.5      2.722      4.282
REMARK  3 active torsions:
REMARK  status: ('A' for Active; 'I' for Inactive)
REMARK    1  A    between atoms: C_6  and  C_7 
REMARK       I    between atoms: C_7  and  N_8 
REMARK    2  A    between atoms: N_8  and  C_9 
REMARK    3  A    between atoms: C_16  and  C_17 
REMARK       I    between atoms: C_17  and  N_18 
ROOT
HETATM    1  C   UNL     1     -40.704  54.753 -54.376  1.00  0.00     0.257 C 
HETATM    2  N   UNL     1     -41.934  55.334 -54.624  1.00  0.00    -0.323 N 
HETATM    3  O   UNL     1     -39.716  54.788 -55.100  1.00  0.00    -0.267 OA
HETATM    4  H   UNL     1     -42.632  55.278 -53.894  1.00  0.00     0.169 HD
ENDROOT
BRANCH   2   5
HETATM    5  C   UNL     1     -42.327  56.011 -55.797  1.00  0.00     0.036 A 
HETATM    6  C   UNL     1     -42.126  57.384 -55.996  1.00  0.00     0.046 A 
HETATM    7  C   UNL     1     -42.494  57.967 -57.227  1.00  0.00     0.030 A 
HETATM    8  C   UNL     1     -43.095  57.171 -58.195  1.00  0.00     0.063 A 
HETATM    9  C   UNL     1     -42.388  59.259 -57.828  1.00  0.00     0.156 A 
HETATM   10  N   UNL     1     -43.358  58.009 -59.242  1.00  0.00    -0.277 N 
HETATM   11  C   UNL     1     -43.324  55.804 -58.024  1.00  0.00     0.034 A 
HETATM   12  H   UNL     1     -43.810  57.774 -60.118  1.00  0.00     0.189 HD
HETATM   13  N   UNL     1     -42.931  59.270 -59.067  1.00  0.00    -0.168 NA
HETATM   14  C   UNL     1     -42.904  55.238 -56.814  1.00  0.00     0.032 A 
BRANCH   9  15
HETATM   15  C   UNL     1     -41.754  60.460 -57.265  1.00  0.00     0.270 C 
HETATM   16  N   UNL     1     -42.339  60.913 -56.114  1.00  0.00    -0.365 N 
HETATM   17  H   UNL     1     -43.156  60.427 -55.764  1.00  0.00     0.159 HD
HETATM   18  H   UNL     1     -42.007  61.763 -55.688  1.00  0.00     0.159 HD
HETATM   19  O   UNL     1     -40.801  61.048 -57.765  1.00  0.00    -0.266 OA
ENDBRANCH   9  15
ENDBRANCH   2   5
BRANCH   1  20
HETATM   20  C   UNL     1     -40.614  53.973 -53.114  1.00  0.00     0.046 A 
HETATM   21  C   UNL     1     -40.289  52.595 -53.049  1.00  0.00     0.009 A 
HETATM   22  C   UNL     1     -40.126  52.061 -51.751  1.00  0.00     0.071 A 
HETATM   23  C   UNL     1     -40.142  51.727 -54.164  1.00  0.00     0.018 A 
HETATM   24  N   UNL     1     -40.321  52.779 -50.634  1.00  0.00    -0.253 NA
HETATM   25  C   UNL     1     -39.754  50.736 -51.605  1.00  0.00     0.074 A 
HETATM   26  C   UNL     1     -40.708  54.069 -50.731  1.00  0.00     0.032 A 
HETATM   27  C   UNL     1     -40.975  54.810 -49.454  1.00  0.00     0.070 C 
HETATM   28  C   UNL     1     -40.853  54.704 -51.947  1.00  0.00     0.044 A 
HETATM   29  C   UNL     1     -39.568  49.916 -52.710  1.00  0.00     0.118 A 
HETATM   30  F   UNL     1     -39.202  48.640 -52.533  1.00  0.00    -0.206 F 
HETATM   31  C   UNL     1     -39.771  50.395 -53.992  1.00  0.00     0.043 A 
ENDBRANCH   1  20
TORSDOF 3
ENDMDL
MODEL 5
REMARK VINA RESULT:      -9.3      3.375      8.495
REMARK  3 active torsions:
REMARK  status: ('A' for Active; 'I' for Inactive)
REMARK    1  A    between atoms: C_6  and  C_7 
REMARK       I    between atoms: C_7  and  N_8 
REMARK    2  A    between atoms: N_8  and  C_9 
REMARK    3  A    between atoms: C_16  and  C_17 
REMARK       I    between atoms: C_17  and  N_18 
ROOT
HETATM    1  C   UNL     1     -42.627  55.849 -55.817  1.00  0.00     0.257 C 
HETATM    2  N   UNL     1     -41.355  55.440 -55.464  1.00  0.00    -0.323 N 
HETATM    3  O   UNL     1     -43.667  55.624 -55.208  1.00  0.00    -0.267 OA
HETATM    4  H   UNL     1     -40.585  55.767 -56.033  1.00  0.00     0.169 HD
ENDROOT
BRANCH   2   5
HETATM    5  C   UNL     1     -41.005  54.610 -54.378  1.00  0.00     0.036 A 
HETATM    6  C   UNL     1     -40.774  53.234 -54.507  1.00  0.00     0.046 A 
HETATM    7  C   UNL     1     -40.367  52.490 -53.379  1.00  0.00     0.030 A 
HETATM    8  C   UNL     1     -40.254  53.137 -52.154  1.00  0.00     0.063 A 
HETATM    9  C   UNL     1     -39.973  51.142 -53.121  1.00  0.00     0.156 A 
HETATM   10  N   UNL     1     -39.879  52.168 -51.266  1.00  0.00    -0.277 N 
HETATM   11  C   UNL     1     -40.492  54.503 -51.987  1.00  0.00     0.034 A 
HETATM   12  H   UNL     1     -39.720  52.276 -50.270  1.00  0.00     0.189 HD
HETATM   13  N   UNL     1     -39.682  50.958 -51.812  1.00  0.00    -0.168 NA
HETATM   14  C   UNL     1     -40.846  55.228 -53.131  1.00  0.00     0.032 A 
BRANCH   9  15
HETATM   15  C   UNL     1     -39.834  50.047 -54.092  1.00  0.00     0.270 C 
HETATM   16  N   UNL     1     -40.984  49.757 -54.774  1.00  0.00    -0.365 N 
HETATM   17  H   UNL     1     -41.825  50.274 -54.545  1.00  0.00     0.159 HD
HETATM   18  H   UNL     1     -40.999  48.983 -55.419  1.00  0.00     0.159 HD
HETATM   19  O   UNL     1     -38.805  49.409 -54.285  1.00  0.00    -0.266 OA
ENDBRANCH   9  15
ENDBRANCH   2   5
BRANCH   1  20
HETATM   20  C   UNL     1     -42.721  56.598 -57.098  1.00  0.00     0.046 A 
HETATM   21  C   UNL     1     -43.327  56.094 -58.275  1.00  0.00     0.009 A 
HETATM   22  C   UNL     1     -43.433  57.003 -59.351  1.00  0.00     0.071 A 
HETATM   23  C   UNL     1     -43.806  54.769 -58.457  1.00  0.00     0.018 A 
HETATM   24  N   UNL     1     -42.941  58.251 -59.307  1.00  0.00    -0.253 NA
HETATM   25  C   UNL     1     -44.064  56.604 -60.517  1.00  0.00     0.074 A 
HETATM   26  C   UNL     1     -42.297  58.674 -58.197  1.00  0.00     0.032 A 
HETATM   27  C   UNL     1     -41.710  60.054 -58.221  1.00  0.00     0.070 C 
HETATM   28  C   UNL     1     -42.177  57.886 -57.072  1.00  0.00     0.044 A 
HETATM   29  C   UNL     1     -44.567  55.318 -60.657  1.00  0.00     0.118 A 
HETATM   30  F   UNL     1     -45.176  54.966 -61.796  1.00  0.00    -0.206 F 
HETATM   31  C   UNL     1     -44.433  54.388 -59.641  1.00  0.00     0.043 A 
ENDBRANCH   1  20
TORSDOF 3
ENDMDL
MODEL 6
REMARK VINA RESULT:      -9.2      2.892      4.117
REMARK  3 active torsions:
REMARK  status: ('A' for Active; 'I' for Inactive)
REMARK    1  A    between atoms: C_6  and  C_7 
REMARK       I    between atoms: C_7  and  N_8 
REMARK    2  A    between atoms: N_8  and  C_9 
REMARK    3  A    between atoms: C_16  and  C_17 
REMARK       I    between atoms: C_17  and  N_18 
ROOT
HETATM    1  C   UNL     1     -41.707  56.239 -52.242  1.00  0.00     0.257 C 
HETATM    2  N   UNL     1     -43.020  56.155 -52.665  1.00  0.00    -0.323 N 
HETATM    3  O   UNL     1     -40.954  57.198 -52.367  1.00  0.00    -0.267 OA
HETATM    4  H   UNL     1     -43.536  55.318 -52.424  1.00  0.00     0.169 HD
ENDROOT
BRANCH   2   5
HETATM    5  C   UNL     1     -43.734  57.124 -53.401  1.00  0.00     0.036 A 
HETATM    6  C   UNL     1     -43.825  57.112 -54.799  1.00  0.00     0.046 A 
HETATM    7  C   UNL     1     -44.612  58.086 -55.451  1.00  0.00     0.030 A 
HETATM    8  C   UNL     1     -45.240  59.063 -54.688  1.00  0.00     0.063 A 
HETATM    9  C   UNL     1     -45.008  58.358 -56.796  1.00  0.00     0.156 A 
HETATM   10  N   UNL     1     -45.890  59.862 -55.586  1.00  0.00    -0.277 N 
HETATM   11  C   UNL     1     -45.157  59.112 -53.295  1.00  0.00     0.034 A 
HETATM   12  H   UNL     1     -46.441  60.689 -55.385  1.00  0.00     0.189 HD
HETATM   13  N   UNL     1     -45.790  59.461 -56.863  1.00  0.00    -0.168 NA
HETATM   14  C   UNL     1     -44.411  58.107 -52.668  1.00  0.00     0.032 A 
BRANCH   9  15
HETATM   15  C   UNL     1     -44.690  57.578 -58.000  1.00  0.00     0.270 C 
HETATM   16  N   UNL     1     -45.783  57.030 -58.616  1.00  0.00    -0.365 N 
HETATM   17  H   UNL     1     -46.694  57.168 -58.195  1.00  0.00     0.159 HD
HETATM   18  H   UNL     1     -45.656  56.432 -59.416  1.00  0.00     0.159 HD
HETATM   19  O   UNL     1     -43.558  57.389 -58.433  1.00  0.00    -0.266 OA
ENDBRANCH   9  15
ENDBRANCH   2   5
BRANCH   1  20
HETATM   20  C   UNL     1     -41.162  55.005 -51.614  1.00  0.00     0.046 A 
HETATM   21  C   UNL     1     -40.718  53.871 -52.338  1.00  0.00     0.009 A 
HETATM   22  C   UNL     1     -40.114  52.850 -51.572  1.00  0.00     0.071 A 
HETATM   23  C   UNL     1     -40.851  53.680 -53.740  1.00  0.00     0.018 A 
HETATM   24  N   UNL     1     -40.013  52.899 -50.234  1.00  0.00    -0.253 NA
HETATM   25  C   UNL     1     -39.604  51.733 -52.212  1.00  0.00     0.074 A 
HETATM   26  C   UNL     1     -40.518  53.960 -49.567  1.00  0.00     0.032 A 
HETATM   27  C   UNL     1     -40.437  53.939 -48.070  1.00  0.00     0.070 C 
HETATM   28  C   UNL     1     -41.088  55.034 -50.219  1.00  0.00     0.044 A 
HETATM   29  C   UNL     1     -39.702  51.587 -53.589  1.00  0.00     0.118 A 
HETATM   30  F   UNL     1     -39.192  50.498 -54.177  1.00  0.00    -0.206 F 
HETATM   31  C   UNL     1     -40.333  52.546 -54.362  1.00  0.00     0.043 A 
ENDBRANCH   1  20
TORSDOF 3
ENDMDL
MODEL 7
REMARK VINA RESULT:      -9.2      3.382      8.893
REMARK  3 active torsions:
REMARK  status: ('A' for Active; 'I' for Inactive)
REMARK    1  A    between atoms: C_6  and  C_7 
REMARK       I    between atoms: C_7  and  N_8 
REMARK    2  A    between atoms: N_8  and  C_9 
REMARK    3  A    between atoms: C_16  and  C_17 
REMARK       I    between atoms: C_17  and  N_18 
ROOT
HETATM    1  C   UNL     1     -42.554  55.809 -55.791  1.00  0.00     0.257 C 
HETATM    2  N   UNL     1     -41.274  55.381 -55.497  1.00  0.00    -0.323 N 
HETATM    3  O   UNL     1     -43.576  55.557 -55.164  1.00  0.00    -0.267 OA
HETATM    4  H   UNL     1     -40.519  55.734 -56.072  1.00  0.00     0.169 HD
ENDROOT
BRANCH   2   5
HETATM    5  C   UNL     1     -40.895  54.497 -54.465  1.00  0.00     0.036 A 
HETATM    6  C   UNL     1     -41.023  54.805 -53.104  1.00  0.00     0.046 A 
HETATM    7  C   UNL     1     -40.677  53.836 -52.138  1.00  0.00     0.030 A 
HETATM    8  C   UNL     1     -40.170  52.615 -52.563  1.00  0.00     0.063 A 
HETATM    9  C   UNL     1     -40.734  53.735 -50.714  1.00  0.00     0.156 A 
HETATM   10  N   UNL     1     -39.906  51.913 -51.420  1.00  0.00    -0.277 N 
HETATM   11  C   UNL     1     -40.015  52.281 -53.910  1.00  0.00     0.034 A 
HETATM   12  H   UNL     1     -39.509  50.983 -51.349  1.00  0.00     0.189 HD
HETATM   13  N   UNL     1     -40.248  52.547 -50.287  1.00  0.00    -0.168 NA
HETATM   14  C   UNL     1     -40.412  53.239 -54.851  1.00  0.00     0.032 A 
BRANCH   9  15
HETATM   15  C   UNL     1     -41.269  54.723 -49.766  1.00  0.00     0.270 C 
HETATM   16  N   UNL     1     -41.721  55.873 -50.353  1.00  0.00    -0.365 N 
HETATM   17  H   UNL     1     -41.627  55.973 -51.356  1.00  0.00     0.159 HD
HETATM   18  H   UNL     1     -42.052  56.630 -49.776  1.00  0.00     0.159 HD
HETATM   19  O   UNL     1     -41.302  54.577 -48.548  1.00  0.00    -0.266 OA
ENDBRANCH   9  15
ENDBRANCH   2   5
BRANCH   1  20
HETATM   20  C   UNL     1     -42.683  56.622 -57.030  1.00  0.00     0.046 A 
HETATM   21  C   UNL     1     -43.296  56.166 -58.223  1.00  0.00     0.009 A 
HETATM   22  C   UNL     1     -43.437  57.127 -59.249  1.00  0.00     0.071 A 
HETATM   23  C   UNL     1     -43.748  54.842 -58.467  1.00  0.00     0.018 A 
HETATM   24  N   UNL     1     -42.972  58.382 -59.147  1.00  0.00    -0.253 NA
HETATM   25  C   UNL     1     -44.077  56.774 -60.425  1.00  0.00     0.074 A 
HETATM   26  C   UNL     1     -42.321  58.761 -58.025  1.00  0.00     0.032 A 
HETATM   27  C   UNL     1     -41.764  60.153 -57.985  1.00  0.00     0.070 C 
HETATM   28  C   UNL     1     -42.166  57.918 -56.944  1.00  0.00     0.044 A 
HETATM   29  C   UNL     1     -44.554  55.487 -60.625  1.00  0.00     0.118 A 
HETATM   30  F   UNL     1     -45.173  55.181 -61.772  1.00  0.00    -0.206 F 
HETATM   31  C   UNL     1     -44.386  54.509 -59.661  1.00  0.00     0.043 A 
ENDBRANCH   1  20
TORSDOF 3
ENDMDL
MODEL 8
REMARK VINA RESULT:      -9.1      1.949      3.232
REMARK  3 active torsions:
REMARK  status: ('A' for Active; 'I' for Inactive)
REMARK    1  A    between atoms: C_6  and  C_7 
REMARK       I    between atoms: C_7  and  N_8 
REMARK    2  A    between atoms: N_8  and  C_9 
REMARK    3  A    between atoms: C_16  and  C_17 
REMARK       I    between atoms: C_17  and  N_18 
ROOT
HETATM    1  C   UNL     1     -42.386  54.462 -54.716  1.00  0.00     0.257 C 
HETATM    2  N   UNL     1     -41.802  55.152 -55.762  1.00  0.00    -0.323 N 
HETATM    3  O   UNL     1     -43.562  54.502 -54.375  1.00  0.00    -0.267 OA
HETATM    4  H   UNL     1     -40.830  54.958 -55.965  1.00  0.00     0.169 HD
ENDROOT
BRANCH   2   5
HETATM    5  C   UNL     1     -42.422  56.107 -56.594  1.00  0.00     0.036 A 
HETATM    6  C   UNL     1     -42.375  57.486 -56.348  1.00  0.00     0.046 A 
HETATM    7  C   UNL     1     -42.971  58.375 -57.268  1.00  0.00     0.030 A 
HETATM    8  C   UNL     1     -43.634  57.854 -58.373  1.00  0.00     0.063 A 
HETATM    9  C   UNL     1     -43.070  59.792 -57.415  1.00  0.00     0.156 A 
HETATM   10  N   UNL     1     -44.122  58.938 -59.048  1.00  0.00    -0.277 N 
HETATM   11  C   UNL     1     -43.714  56.485 -58.639  1.00  0.00     0.034 A 
HETATM   12  H   UNL     1     -44.675  58.934 -59.897  1.00  0.00     0.189 HD
HETATM   13  N   UNL     1     -43.788  60.123 -58.513  1.00  0.00    -0.168 NA
HETATM   14  C   UNL     1     -43.072  55.627 -57.739  1.00  0.00     0.032 A 
BRANCH   9  15
HETATM   15  C   UNL     1     -42.469  60.826 -56.560  1.00  0.00     0.270 C 
HETATM   16  N   UNL     1     -41.603  61.659 -57.215  1.00  0.00    -0.365 N 
HETATM   17  H   UNL     1     -41.418  61.489 -58.196  1.00  0.00     0.159 HD
HETATM   18  H   UNL     1     -41.100  62.362 -56.697  1.00  0.00     0.159 HD
HETATM   19  O   UNL     1     -42.680  60.950 -55.358  1.00  0.00    -0.266 OA
ENDBRANCH   9  15
ENDBRANCH   2   5
BRANCH   1  20
HETATM   20  C   UNL     1     -41.457  53.626 -53.910  1.00  0.00     0.046 A 
HETATM   21  C   UNL     1     -41.034  53.945 -52.596  1.00  0.00     0.009 A 
HETATM   22  C   UNL     1     -40.253  52.963 -51.946  1.00  0.00     0.071 A 
HETATM   23  C   UNL     1     -41.312  55.156 -51.908  1.00  0.00     0.018 A 
HETATM   24  N   UNL     1     -39.870  51.821 -52.537  1.00  0.00    -0.253 NA
HETATM   25  C   UNL     1     -39.848  53.175 -50.638  1.00  0.00     0.074 A 
HETATM   26  C   UNL     1     -40.224  51.584 -53.819  1.00  0.00     0.032 A 
HETATM   27  C   UNL     1     -39.718  50.325 -54.455  1.00  0.00     0.070 C 
HETATM   28  C   UNL     1     -41.023  52.453 -54.533  1.00  0.00     0.044 A 
HETATM   29  C   UNL     1     -40.171  54.347 -49.967  1.00  0.00     0.118 A 
HETATM   30  F   UNL     1     -39.768  54.517 -48.702  1.00  0.00    -0.206 F 
HETATM   31  C   UNL     1     -40.890  55.349 -50.594  1.00  0.00     0.043 A 
ENDBRANCH   1  20
TORSDOF 3
ENDMDL
MODEL 9
REMARK VINA RESULT:      -9.1      3.658      5.054
REMARK  3 active torsions:
REMARK  status: ('A' for Active; 'I' for Inactive)
REMARK    1  A    between atoms: C_6  and  C_7 
REMARK       I    between atoms: C_7  and  N_8 
REMARK    2  A    between atoms: N_8  and  C_9 
REMARK    3  A    between atoms: C_16  and  C_17 
REMARK       I    between atoms: C_17  and  N_18 
ROOT
HETATM    1  C   UNL     1     -41.938  55.810 -52.416  1.00  0.00     0.257 C 
HETATM    2  N   UNL     1     -41.180  56.965 -52.446  1.00  0.00    -0.323 N 
HETATM    3  O   UNL     1     -43.076  55.667 -52.845  1.00  0.00    -0.267 OA
HETATM    4  H   UNL     1     -40.225  56.907 -52.115  1.00  0.00     0.169 HD
ENDROOT
BRANCH   2   5
HETATM    5  C   UNL     1     -41.593  58.235 -52.900  1.00  0.00     0.036 A 
HETATM    6  C   UNL     1     -41.586  58.607 -54.252  1.00  0.00     0.046 A 
HETATM    7  C   UNL     1     -42.076  59.878 -54.624  1.00  0.00     0.030 A 
HETATM    8  C   UNL     1     -42.508  60.748 -53.630  1.00  0.00     0.063 A 
HETATM    9  C   UNL     1     -42.302  60.576 -55.848  1.00  0.00     0.156 A 
HETATM   10  N   UNL     1     -42.889  61.885 -54.285  1.00  0.00    -0.277 N 
HETATM   11  C   UNL     1     -42.514  60.415 -52.274  1.00  0.00     0.034 A 
HETATM   12  H   UNL     1     -43.242  62.742 -53.873  1.00  0.00     0.189 HD
HETATM   13  N   UNL     1     -42.797  61.815 -55.623  1.00  0.00    -0.168 NA
HETATM   14  C   UNL     1     -42.070  59.131 -51.935  1.00  0.00     0.032 A 
BRANCH   9  15
HETATM   15  C   UNL     1     -42.093  60.079 -57.216  1.00  0.00     0.270 C 
HETATM   16  N   UNL     1     -43.087  59.255 -57.670  1.00  0.00    -0.365 N 
HETATM   17  H   UNL     1     -43.850  59.028 -57.042  1.00  0.00     0.159 HD
HETATM   18  H   UNL     1     -43.001  58.821 -58.574  1.00  0.00     0.159 HD
HETATM   19  O   UNL     1     -41.116  60.335 -57.912  1.00  0.00    -0.266 OA
ENDBRANCH   9  15
ENDBRANCH   2   5
BRANCH   1  20
HETATM   20  C   UNL     1     -41.298  54.648 -51.744  1.00  0.00     0.046 A 
HETATM   21  C   UNL     1     -40.784  53.517 -52.425  1.00  0.00     0.009 A 
HETATM   22  C   UNL     1     -40.098  52.576 -51.625  1.00  0.00     0.071 A 
HETATM   23  C   UNL     1     -40.924  53.253 -53.814  1.00  0.00     0.018 A 
HETATM   24  N   UNL     1     -39.981  52.693 -50.293  1.00  0.00    -0.253 NA
HETATM   25  C   UNL     1     -39.519  51.470 -52.225  1.00  0.00     0.074 A 
HETATM   26  C   UNL     1     -40.551  53.744 -49.665  1.00  0.00     0.032 A 
HETATM   27  C   UNL     1     -40.447  53.796 -48.170  1.00  0.00     0.070 C 
HETATM   28  C   UNL     1     -41.205  54.745 -50.353  1.00  0.00     0.044 A 
HETATM   29  C   UNL     1     -39.626  51.255 -53.592  1.00  0.00     0.118 A 
HETATM   30  F   UNL     1     -39.049  50.179 -54.141  1.00  0.00    -0.206 F 
HETATM   31  C   UNL     1     -40.336  52.132 -54.395  1.00  0.00     0.043 A 
ENDBRANCH   1  20
TORSDOF 3
ENDMDL
MODEL 10
REMARK VINA RESULT:      -8.9      4.784      6.662
REMARK  3 active torsions:
REMARK  status: ('A' for Active; 'I' for Inactive)
REMARK    1  A    between atoms: C_6  and  C_7 
REMARK       I    between atoms: C_7  and  N_8 
REMARK    2  A    between atoms: N_8  and  C_9 
REMARK    3  A    between atoms: C_16  and  C_17 
REMARK       I    between atoms: C_17  and  N_18 
ROOT
HETATM    1  C   UNL     1     -41.836  56.539 -51.737  1.00  0.00     0.257 C 
HETATM    2  N   UNL     1     -43.216  56.602 -51.749  1.00  0.00    -0.323 N 
HETATM    3  O   UNL     1     -41.057  57.409 -52.107  1.00  0.00    -0.267 OA
HETATM    4  H   UNL     1     -43.723  55.826 -51.342  1.00  0.00     0.169 HD
ENDROOT
BRANCH   2   5
HETATM    5  C   UNL     1     -44.009  57.647 -52.268  1.00  0.00     0.036 A 
HETATM    6  C   UNL     1     -44.590  58.640 -51.468  1.00  0.00     0.046 A 
HETATM    7  C   UNL     1     -45.318  59.685 -52.077  1.00  0.00     0.030 A 
HETATM    8  C   UNL     1     -45.480  59.673 -53.458  1.00  0.00     0.063 A 
HETATM    9  C   UNL     1     -45.970  60.877 -51.641  1.00  0.00     0.156 A 
HETATM   10  N   UNL     1     -46.239  60.773 -53.743  1.00  0.00    -0.277 N 
HETATM   11  C   UNL     1     -44.928  58.691 -54.282  1.00  0.00     0.034 A 
HETATM   12  H   UNL     1     -46.568  61.073 -54.654  1.00  0.00     0.189 HD
HETATM   13  N   UNL     1     -46.539  61.534 -52.678  1.00  0.00    -0.168 NA
HETATM   14  C   UNL     1     -44.169  57.693 -53.659  1.00  0.00     0.032 A 
BRANCH   9  15
HETATM   15  C   UNL     1     -46.030  61.417 -50.275  1.00  0.00     0.270 C 
HETATM   16  N   UNL     1     -45.975  62.783 -50.210  1.00  0.00    -0.365 N 
HETATM   17  H   UNL     1     -45.866  63.303 -51.073  1.00  0.00     0.159 HD
HETATM   18  H   UNL     1     -45.952  63.239 -49.312  1.00  0.00     0.159 HD
HETATM   19  O   UNL     1     -46.099  60.738 -49.256  1.00  0.00    -0.266 OA
ENDBRANCH   9  15
ENDBRANCH   2   5
BRANCH   1  20
HETATM   20  C   UNL     1     -41.263  55.250 -51.264  1.00  0.00     0.046 A 
HETATM   21  C   UNL     1     -40.902  54.177 -52.117  1.00  0.00     0.009 A 
HETATM   22  C   UNL     1     -40.256  53.087 -51.493  1.00  0.00     0.071 A 
HETATM   23  C   UNL     1     -41.155  54.108 -53.513  1.00  0.00     0.018 A 
HETATM   24  N   UNL     1     -40.042  53.020 -50.170  1.00  0.00    -0.253 NA
HETATM   25  C   UNL     1     -39.821  52.023 -52.267  1.00  0.00     0.074 A 
HETATM   26  C   UNL     1     -40.471  54.025 -49.375  1.00  0.00     0.032 A 
HETATM   27  C   UNL     1     -40.266  53.875 -47.897  1.00  0.00     0.070 C 
HETATM   28  C   UNL     1     -41.073  55.158 -49.883  1.00  0.00     0.044 A 
HETATM   29  C   UNL     1     -40.036  51.997 -53.638  1.00  0.00     0.118 A 
HETATM   30  F   UNL     1     -39.598  50.957 -54.357  1.00  0.00    -0.206 F 
HETATM   31  C   UNL     1     -40.712  53.026 -54.270  1.00  0.00     0.043 A 
ENDBRANCH   1  20
TORSDOF 3
ENDMDL
