MODEL 1
REMARK VINA RESULT:      -8.0      0.000      0.000
REMARK  6 active torsions:
REMARK  status: ('A' for Active; 'I' for Inactive)
REMARK    1  A    between atoms: C_7  and  S_8 
REMARK    2  A    between atoms: S_8  and  C_9 
REMARK    3  A    between atoms: C_9  and  C_10 
REMARK    4  A    between atoms: C_18  and  C_19 
REMARK    5  A    between atoms: C_26  and  C_27 
REMARK    6  A    between atoms: C_27  and  O_28 
ROOT
HETATM    1  C   UNL     1     -44.247  57.509 -56.665  1.00  0.00     0.070 C 
HETATM    2  C   UNL     1     -43.661  57.380 -55.283  1.00  0.00     0.037 C 
HETATM    3  N   UNL     1     -43.869  56.157 -54.652  1.00  0.00    -0.192 N 
HETATM    4  C   UNL     1     -43.206  55.783 -53.541  1.00  0.00     0.726 A 
HETATM    5  N   UNL     1     -42.441  56.701 -52.876  1.00  0.00    -0.082 N 
HETATM    6  N   UNL     1     -41.771  56.131 -51.851  1.00  0.00    -0.128 NA
HETATM    7  C   UNL     1     -42.209  54.868 -51.938  1.00  0.00     0.226 A 
HETATM    8  N   UNL     1     -43.100  54.622 -52.955  1.00  0.00    -0.035 NA
HETATM    9  C   UNL     1     -42.295  58.099 -53.294  1.00  0.00     0.203 C 
HETATM   10  C   UNL     1     -42.911  58.332 -54.669  1.00  0.00     0.070 C 
HETATM   11  H   UNL     1     -44.353  55.434 -55.181  1.00  0.00     0.184 HD
ENDROOT
BRANCH   7  12
HETATM   12  S   UNL     1     -41.657  53.587 -50.897  1.00  0.00    -0.083 SA
BRANCH  12  13
HETATM   13  C   UNL     1     -39.957  53.357 -51.482  1.00  0.00     0.123 C 
BRANCH  13  14
HETATM   14  C   UNL     1     -39.825  52.069 -52.263  1.00  0.00    -0.027 A 
HETATM   15  C   UNL     1     -39.960  52.004 -53.660  1.00  0.00     0.041 A 
HETATM   16 CL   UNL     1     -40.254  53.410 -54.621  1.00  0.00    -0.084 Cl
HETATM   17  C   UNL     1     -39.863  50.778 -54.328  1.00  0.00     0.024 A 
HETATM   18  C   UNL     1     -39.641  49.601 -53.614  1.00  0.00     0.002 A 
HETATM   19  C   UNL     1     -39.513  49.647 -52.229  1.00  0.00     0.001 A 
HETATM   20  C   UNL     1     -39.605  50.869 -51.559  1.00  0.00     0.009 A 
ENDBRANCH  13  14
ENDBRANCH  12  13
ENDBRANCH   7  12
BRANCH   9  21
HETATM   21  C   UNL     1     -42.890  59.031 -52.237  1.00  0.00    -0.028 A 
HETATM   22  C   UNL     1     -42.056  59.935 -51.556  1.00  0.00     0.011 A 
HETATM   23  C   UNL     1     -42.583  60.814 -50.607  1.00  0.00     0.024 A 
HETATM   24  C   UNL     1     -43.948  60.800 -50.330  1.00  0.00     0.034 A 
HETATM   25 CL   UNL     1     -44.596  61.886 -49.164  1.00  0.00    -0.084 Cl
HETATM   26  C   UNL     1     -44.791  59.917 -50.998  1.00  0.00     0.024 A 
HETATM   27  C   UNL     1     -44.268  59.039 -51.949  1.00  0.00     0.011 A 
ENDBRANCH   9  21
BRANCH  10  28
HETATM   28  C   UNL     1     -42.553  59.639 -55.258  1.00  0.00     0.293 C 
HETATM   29  O   UNL     1     -41.423  59.900 -55.641  1.00  0.00    -0.259 OA
BRANCH  28  30
HETATM   30  O   UNL     1     -43.606  60.490 -55.247  1.00  0.00    -0.323 OA
HETATM   31  C   UNL     1     -43.319  61.763 -54.665  1.00  0.00     0.213 C 
ENDBRANCH  28  30
ENDBRANCH  10  28
TORSDOF 6
ENDMDL
MODEL 2
REMARK VINA RESULT:      -8.0      2.471      4.119
REMARK  6 active torsions:
REMARK  status: ('A' for Active; 'I' for Inactive)
REMARK    1  A    between atoms: C_7  and  S_8 
REMARK    2  A    between atoms: S_8  and  C_9 
REMARK    3  A    between atoms: C_9  and  C_10 
REMARK    4  A    between atoms: C_18  and  C_19 
REMARK    5  A    between atoms: C_26  and  C_27 
REMARK    6  A    between atoms: C_27  and  O_28 
ROOT
HETATM    1  C   UNL     1     -41.835  60.664 -50.215  1.00  0.00     0.070 C 
HETATM    2  C   UNL     1     -42.125  59.292 -50.768  1.00  0.00     0.037 C 
HETATM    3  N   UNL     1     -41.193  58.307 -50.453  1.00  0.00    -0.192 N 
HETATM    4  C   UNL     1     -41.423  56.993 -50.641  1.00  0.00     0.726 A 
HETATM    5  N   UNL     1     -42.525  56.600 -51.348  1.00  0.00    -0.082 N 
HETATM    6  N   UNL     1     -42.653  55.256 -51.351  1.00  0.00    -0.128 NA
HETATM    7  C   UNL     1     -41.568  54.901 -50.649  1.00  0.00     0.226 A 
HETATM    8  N   UNL     1     -40.784  55.940 -50.210  1.00  0.00    -0.035 NA
HETATM    9  C   UNL     1     -43.493  57.532 -51.937  1.00  0.00     0.203 C 
HETATM   10  C   UNL     1     -43.238  58.961 -51.471  1.00  0.00     0.070 C 
HETATM   11  H   UNL     1     -40.421  58.571 -49.844  1.00  0.00     0.184 HD
ENDROOT
BRANCH   7  12
HETATM   12  S   UNL     1     -41.185  53.252 -50.245  1.00  0.00    -0.083 SA
BRANCH  12  13
HETATM   13  C   UNL     1     -39.612  53.025 -51.117  1.00  0.00     0.123 C 
BRANCH  13  14
HETATM   14  C   UNL     1     -39.736  51.963 -52.186  1.00  0.00    -0.027 A 
HETATM   15  C   UNL     1     -40.125  52.247 -53.505  1.00  0.00     0.041 A 
HETATM   16 CL   UNL     1     -40.463  53.857 -54.037  1.00  0.00    -0.084 Cl
HETATM   17  C   UNL     1     -40.258  51.219 -54.445  1.00  0.00     0.024 A 
HETATM   18  C   UNL     1     -40.015  49.896 -54.082  1.00  0.00     0.002 A 
HETATM   19  C   UNL     1     -39.637  49.596 -52.776  1.00  0.00     0.001 A 
HETATM   20  C   UNL     1     -39.499  50.619 -51.836  1.00  0.00     0.009 A 
ENDBRANCH  13  14
ENDBRANCH  12  13
ENDBRANCH   7  12
BRANCH   9  21
HETATM   21  C   UNL     1     -43.474  57.418 -53.463  1.00  0.00    -0.028 A 
HETATM   22  C   UNL     1     -44.686  57.384 -54.174  1.00  0.00     0.011 A 
HETATM   23  C   UNL     1     -44.692  57.308 -55.569  1.00  0.00     0.024 A 
HETATM   24  C   UNL     1     -43.487  57.268 -56.267  1.00  0.00     0.034 A 
HETATM   25 CL   UNL     1     -43.495  57.178 -57.984  1.00  0.00    -0.084 Cl
HETATM   26  C   UNL     1     -42.276  57.307 -55.582  1.00  0.00     0.024 A 
HETATM   27  C   UNL     1     -42.267  57.386 -54.187  1.00  0.00     0.011 A 
ENDBRANCH   9  21
BRANCH  10  28
HETATM   28  C   UNL     1     -44.337  59.891 -51.805  1.00  0.00     0.293 C 
HETATM   29  O   UNL     1     -44.224  60.767 -52.649  1.00  0.00    -0.259 OA
BRANCH  28  30
HETATM   30  O   UNL     1     -45.419  59.679 -51.019  1.00  0.00    -0.323 OA
HETATM   31  C   UNL     1     -45.508  60.564 -49.901  1.00  0.00     0.213 C 
ENDBRANCH  28  30
ENDBRANCH  10  28
TORSDOF 6
ENDMDL
MODEL 3
REMARK VINA RESULT:      -7.7      3.900      7.311
REMARK  6 active torsions:
REMARK  status: ('A' for Active; 'I' for Inactive)
REMARK    1  A    between atoms: C_7  and  S_8 
REMARK    2  A    between atoms: S_8  and  C_9 
REMARK    3  A    between atoms: C_9  and  C_10 
REMARK    4  A    between atoms: C_18  and  C_19 
REMARK    5  A    between atoms: C_26  and  C_27 
REMARK    6  A    between atoms: C_27  and  O_28 
ROOT
HETATM    1  C   UNL     1     -40.597  52.821 -54.741  1.00  0.00     0.070 C 
HETATM    2  C   UNL     1     -41.215  54.189 -54.605  1.00  0.00     0.037 C 
HETATM    3  N   UNL     1     -41.373  54.899 -55.793  1.00  0.00    -0.192 N 
HETATM    4  C   UNL     1     -42.130  56.008 -55.888  1.00  0.00     0.726 A 
HETATM    5  N   UNL     1     -42.613  56.591 -54.750  1.00  0.00    -0.082 N 
HETATM    6  N   UNL     1     -43.431  57.626 -55.037  1.00  0.00    -0.128 NA
HETATM    7  C   UNL     1     -43.369  57.630 -56.375  1.00  0.00     0.226 A 
HETATM    8  N   UNL     1     -42.570  56.659 -56.931  1.00  0.00    -0.035 NA
HETATM    9  C   UNL     1     -42.349  56.085 -53.398  1.00  0.00     0.203 C 
HETATM   10  C   UNL     1     -41.672  54.719 -53.442  1.00  0.00     0.070 C 
HETATM   11  H   UNL     1     -41.106  54.430 -56.656  1.00  0.00     0.184 HD
ENDROOT
BRANCH   7  12
HETATM   12  S   UNL     1     -44.277  58.727 -57.375  1.00  0.00    -0.083 SA
BRANCH  12  13
HETATM   13  C   UNL     1     -43.864  58.126 -59.034  1.00  0.00     0.123 C 
BRANCH  13  14
HETATM   14  C   UNL     1     -45.079  57.528 -59.709  1.00  0.00    -0.027 A 
HETATM   15  C   UNL     1     -45.171  56.170 -60.054  1.00  0.00     0.041 A 
HETATM   16 CL   UNL     1     -43.908  55.044 -59.701  1.00  0.00    -0.084 Cl
HETATM   17  C   UNL     1     -46.305  55.678 -60.710  1.00  0.00     0.024 A 
HETATM   18  C   UNL     1     -47.356  56.533 -61.039  1.00  0.00     0.002 A 
HETATM   19  C   UNL     1     -47.277  57.883 -60.711  1.00  0.00     0.001 A 
HETATM   20  C   UNL     1     -46.149  58.377 -60.053  1.00  0.00     0.009 A 
ENDBRANCH  13  14
ENDBRANCH  12  13
ENDBRANCH   7  12
BRANCH   9  21
HETATM   21  C   UNL     1     -41.529  57.103 -52.604  1.00  0.00    -0.028 A 
HETATM   22  C   UNL     1     -41.749  57.250 -51.223  1.00  0.00     0.011 A 
HETATM   23  C   UNL     1     -40.993  58.154 -50.473  1.00  0.00     0.024 A 
HETATM   24  C   UNL     1     -40.008  58.917 -51.095  1.00  0.00     0.034 A 
HETATM   25 CL   UNL     1     -39.074  60.027 -50.170  1.00  0.00    -0.084 Cl
HETATM   26  C   UNL     1     -39.770  58.782 -52.460  1.00  0.00     0.024 A 
HETATM   27  C   UNL     1     -40.523  57.878 -53.211  1.00  0.00     0.011 A 
ENDBRANCH   9  21
BRANCH  10  28
HETATM   28  C   UNL     1     -41.636  54.041 -52.129  1.00  0.00     0.293 C 
HETATM   29  O   UNL     1     -42.647  53.672 -51.551  1.00  0.00    -0.259 OA
BRANCH  28  30
HETATM   30  O   UNL     1     -40.371  53.956 -51.654  1.00  0.00    -0.323 OA
HETATM   31  C   UNL     1     -40.079  52.721 -50.996  1.00  0.00     0.213 C 
ENDBRANCH  28  30
ENDBRANCH  10  28
TORSDOF 6
ENDMDL
MODEL 4
REMARK VINA RESULT:      -7.6      2.994      3.892
REMARK  6 active torsions:
REMARK  status: ('A' for Active; 'I' for Inactive)
REMARK    1  A    between atoms: C_7  and  S_8 
REMARK    2  A    between atoms: S_8  and  C_9 
REMARK    3  A    between atoms: C_9  and  C_10 
REMARK    4  A    between atoms: C_18  and  C_19 
REMARK    5  A    between atoms: C_26  and  C_27 
REMARK    6  A    between atoms: C_27  and  O_28 
ROOT
HETATM    1  C   UNL     1     -43.917  55.524 -60.141  1.00  0.00     0.070 C 
HETATM    2  C   UNL     1     -43.510  55.941 -58.750  1.00  0.00     0.037 C 
HETATM    3  N   UNL     1     -43.733  54.999 -57.750  1.00  0.00    -0.192 N 
HETATM    4  C   UNL     1     -43.202  55.100 -56.517  1.00  0.00     0.726 A 
HETATM    5  N   UNL     1     -42.580  56.260 -56.147  1.00  0.00    -0.082 N 
HETATM    6  N   UNL     1     -42.021  56.149 -54.924  1.00  0.00    -0.128 NA
HETATM    7  C   UNL     1     -42.375  54.899 -54.599  1.00  0.00     0.226 A 
HETATM    8  N   UNL     1     -43.111  54.230 -55.548  1.00  0.00    -0.035 NA
HETATM    9  C   UNL     1     -42.456  57.434 -57.019  1.00  0.00     0.203 C 
HETATM   10  C   UNL     1     -42.899  57.114 -58.443  1.00  0.00     0.070 C 
HETATM   11  H   UNL     1     -44.105  54.094 -58.034  1.00  0.00     0.184 HD
ENDROOT
BRANCH   7  12
HETATM   12  S   UNL     1     -41.896  54.119 -53.120  1.00  0.00    -0.083 SA
BRANCH  12  13
HETATM   13  C   UNL     1     -40.213  53.581 -53.526  1.00  0.00     0.123 C 
BRANCH  13  14
HETATM   14  C   UNL     1     -40.011  52.125 -53.169  1.00  0.00    -0.027 A 
HETATM   15  C   UNL     1     -39.824  51.680 -51.850  1.00  0.00     0.041 A 
HETATM   16 CL   UNL     1     -39.844  52.763 -50.503  1.00  0.00    -0.084 Cl
HETATM   17  C   UNL     1     -39.605  50.324 -51.581  1.00  0.00     0.024 A 
HETATM   18  C   UNL     1     -39.562  49.397 -52.621  1.00  0.00     0.002 A 
HETATM   19  C   UNL     1     -39.738  49.822 -53.934  1.00  0.00     0.001 A 
HETATM   20  C   UNL     1     -39.960  51.174 -54.207  1.00  0.00     0.009 A 
ENDBRANCH  13  14
ENDBRANCH  12  13
ENDBRANCH   7  12
BRANCH   9  21
HETATM   21  C   UNL     1     -43.232  58.613 -56.431  1.00  0.00    -0.028 A 
HETATM   22  C   UNL     1     -44.620  58.505 -56.235  1.00  0.00     0.011 A 
HETATM   23  C   UNL     1     -45.345  59.559 -55.674  1.00  0.00     0.024 A 
HETATM   24  C   UNL     1     -44.690  60.730 -55.300  1.00  0.00     0.034 A 
HETATM   25 CL   UNL     1     -45.582  62.026 -54.605  1.00  0.00    -0.084 Cl
HETATM   26  C   UNL     1     -43.316  60.854 -55.480  1.00  0.00     0.024 A 
HETATM   27  C   UNL     1     -42.588  59.801 -56.039  1.00  0.00     0.011 A 
ENDBRANCH   9  21
BRANCH  10  28
HETATM   28  C   UNL     1     -42.538  58.163 -59.419  1.00  0.00     0.293 C 
HETATM   29  O   UNL     1     -41.436  58.222 -59.943  1.00  0.00    -0.259 OA
BRANCH  28  30
HETATM   30  O   UNL     1     -43.547  59.050 -59.585  1.00  0.00    -0.323 OA
HETATM   31  C   UNL     1     -43.751  59.451 -60.941  1.00  0.00     0.213 C 
ENDBRANCH  28  30
ENDBRANCH  10  28
TORSDOF 6
ENDMDL
MODEL 5
REMARK VINA RESULT:      -7.6      3.811      7.032
REMARK  6 active torsions:
REMARK  status: ('A' for Active; 'I' for Inactive)
REMARK    1  A    between atoms: C_7  and  S_8 
REMARK    2  A    between atoms: S_8  and  C_9 
REMARK    3  A    between atoms: C_9  and  C_10 
REMARK    4  A    between atoms: C_18  and  C_19 
REMARK    5  A    between atoms: C_26  and  C_27 
REMARK    6  A    between atoms: C_27  and  O_28 
ROOT
HETATM    1  C   UNL     1     -45.101  58.204 -50.912  1.00  0.00     0.070 C 
HETATM    2  C   UNL     1     -44.340  57.950 -52.189  1.00  0.00     0.037 C 
HETATM    3  N   UNL     1     -45.053  58.163 -53.366  1.00  0.00    -0.192 N 
HETATM    4  C   UNL     1     -44.464  58.234 -54.576  1.00  0.00     0.726 A 
HETATM    5  N   UNL     1     -43.147  57.891 -54.702  1.00  0.00    -0.082 N 
HETATM    6  N   UNL     1     -42.698  58.119 -55.955  1.00  0.00    -0.128 NA
HETATM    7  C   UNL     1     -43.815  58.570 -56.542  1.00  0.00     0.226 A 
HETATM    8  N   UNL     1     -44.920  58.642 -55.729  1.00  0.00    -0.035 NA
HETATM    9  C   UNL     1     -42.312  57.432 -53.586  1.00  0.00     0.203 C 
HETATM   10  C   UNL     1     -43.029  57.605 -52.252  1.00  0.00     0.070 C 
HETATM   11  H   UNL     1     -46.004  58.514 -53.280  1.00  0.00     0.184 HD
ENDROOT
BRANCH   7  12
HETATM   12  S   UNL     1     -43.881  59.104 -58.197  1.00  0.00    -0.083 SA
BRANCH  12  13
HETATM   13  C   UNL     1     -42.806  57.891 -59.008  1.00  0.00     0.123 C 
BRANCH  13  14
HETATM   14  C   UNL     1     -43.592  56.669 -59.428  1.00  0.00    -0.027 A 
HETATM   15  C   UNL     1     -43.559  55.458 -58.718  1.00  0.00     0.041 A 
HETATM   16 CL   UNL     1     -42.638  55.267 -57.268  1.00  0.00    -0.084 Cl
HETATM   17  C   UNL     1     -44.279  54.347 -59.172  1.00  0.00     0.024 A 
HETATM   18  C   UNL     1     -45.032  54.426 -60.342  1.00  0.00     0.002 A 
HETATM   19  C   UNL     1     -45.069  55.616 -61.062  1.00  0.00     0.001 A 
HETATM   20  C   UNL     1     -44.355  56.728 -60.610  1.00  0.00     0.009 A 
ENDBRANCH  13  14
ENDBRANCH  12  13
ENDBRANCH   7  12
BRANCH   9  21
HETATM   21  C   UNL     1     -41.874  55.985 -53.816  1.00  0.00    -0.028 A 
HETATM   22  C   UNL     1     -40.577  55.715 -54.287  1.00  0.00     0.011 A 
HETATM   23  C   UNL     1     -40.146  54.400 -54.478  1.00  0.00     0.024 A 
HETATM   24  C   UNL     1     -41.006  53.341 -54.196  1.00  0.00     0.034 A 
HETATM   25 CL   UNL     1     -40.475  51.722 -54.427  1.00  0.00    -0.084 Cl
HETATM   26  C   UNL     1     -42.292  53.586 -53.723  1.00  0.00     0.024 A 
HETATM   27  C   UNL     1     -42.724  54.900 -53.529  1.00  0.00     0.011 A 
ENDBRANCH   9  21
BRANCH  10  28
HETATM   28  C   UNL     1     -42.143  57.424 -51.083  1.00  0.00     0.293 C 
HETATM   29  O   UNL     1     -41.274  58.229 -50.785  1.00  0.00    -0.259 OA
BRANCH  28  30
HETATM   30  O   UNL     1     -42.385  56.247 -50.459  1.00  0.00    -0.323 OA
HETATM   31  C   UNL     1     -41.205  55.536 -50.081  1.00  0.00     0.213 C 
ENDBRANCH  28  30
ENDBRANCH  10  28
TORSDOF 6
ENDMDL
MODEL 6
REMARK VINA RESULT:      -7.5      3.316      6.290
REMARK  6 active torsions:
REMARK  status: ('A' for Active; 'I' for Inactive)
REMARK    1  A    between atoms: C_7  and  S_8 
REMARK    2  A    between atoms: S_8  and  C_9 
REMARK    3  A    between atoms: C_9  and  C_10 
REMARK    4  A    between atoms: C_18  and  C_19 
REMARK    5  A    between atoms: C_26  and  C_27 
REMARK    6  A    between atoms: C_27  and  O_28 
ROOT
HETATM    1  C   UNL     1     -42.164  59.027 -59.260  1.00  0.00     0.070 C 
HETATM    2  C   UNL     1     -42.654  58.451 -57.956  1.00  0.00     0.037 C 
HETATM    3  N   UNL     1     -42.711  59.343 -56.888  1.00  0.00    -0.192 N 
HETATM    4  C   UNL     1     -43.358  59.069 -55.739  1.00  0.00     0.726 A 
HETATM    5  N   UNL     1     -43.813  57.800 -55.512  1.00  0.00    -0.082 N 
HETATM    6  N   UNL     1     -44.522  57.731 -54.365  1.00  0.00    -0.128 NA
HETATM    7  C   UNL     1     -44.425  58.996 -53.934  1.00  0.00     0.226 A 
HETATM    8  N   UNL     1     -43.707  59.841 -54.746  1.00  0.00    -0.035 NA
HETATM    9  C   UNL     1     -43.635  56.688 -56.452  1.00  0.00     0.203 C 
HETATM   10  C   UNL     1     -43.089  57.176 -57.789  1.00  0.00     0.070 C 
HETATM   11  H   UNL     1     -42.468  60.314 -57.076  1.00  0.00     0.184 HD
ENDROOT
BRANCH   7  12
HETATM   12  S   UNL     1     -45.198  59.581 -52.490  1.00  0.00    -0.083 SA
BRANCH  12  13
HETATM   13  C   UNL     1     -43.868  59.399 -51.272  1.00  0.00     0.123 C 
BRANCH  13  14
HETATM   14  C   UNL     1     -43.260  58.016 -51.338  1.00  0.00    -0.027 A 
HETATM   15  C   UNL     1     -41.947  57.778 -51.774  1.00  0.00     0.041 A 
HETATM   16 CL   UNL     1     -40.887  59.060 -52.243  1.00  0.00    -0.084 Cl
HETATM   17  C   UNL     1     -41.448  56.472 -51.850  1.00  0.00     0.024 A 
HETATM   18  C   UNL     1     -42.252  55.389 -51.502  1.00  0.00     0.002 A 
HETATM   19  C   UNL     1     -43.559  55.606 -51.075  1.00  0.00     0.001 A 
HETATM   20  C   UNL     1     -44.059  56.908 -50.994  1.00  0.00     0.009 A 
ENDBRANCH  13  14
ENDBRANCH  12  13
ENDBRANCH   7  12
BRANCH   9  21
HETATM   21  C   UNL     1     -42.744  55.611 -55.831  1.00  0.00    -0.028 A 
HETATM   22  C   UNL     1     -41.393  55.892 -55.564  1.00  0.00     0.011 A 
HETATM   23  C   UNL     1     -40.568  54.933 -54.972  1.00  0.00     0.024 A 
HETATM   24  C   UNL     1     -41.086  53.684 -54.639  1.00  0.00     0.034 A 
HETATM   25 CL   UNL     1     -40.070  52.504 -53.906  1.00  0.00    -0.084 Cl
HETATM   26  C   UNL     1     -42.422  53.387 -54.889  1.00  0.00     0.024 A 
HETATM   27  C   UNL     1     -43.250  54.345 -55.478  1.00  0.00     0.011 A 
ENDBRANCH   9  21
BRANCH  10  28
HETATM   28  C   UNL     1     -43.152  56.155 -58.856  1.00  0.00     0.293 C 
HETATM   29  O   UNL     1     -42.173  55.825 -59.508  1.00  0.00    -0.259 OA
BRANCH  28  30
HETATM   30  O   UNL     1     -44.417  55.710 -59.038  1.00  0.00    -0.323 OA
HETATM   31  C   UNL     1     -44.506  54.514 -59.814  1.00  0.00     0.213 C 
ENDBRANCH  28  30
ENDBRANCH  10  28
TORSDOF 6
ENDMDL
MODEL 7
REMARK VINA RESULT:      -7.5      2.396      3.956
REMARK  6 active torsions:
REMARK  status: ('A' for Active; 'I' for Inactive)
REMARK    1  A    between atoms: C_7  and  S_8 
REMARK    2  A    between atoms: S_8  and  C_9 
REMARK    3  A    between atoms: C_9  and  C_10 
REMARK    4  A    between atoms: C_18  and  C_19 
REMARK    5  A    between atoms: C_26  and  C_27 
REMARK    6  A    between atoms: C_27  and  O_28 
ROOT
HETATM    1  C   UNL     1     -43.164  61.267 -50.604  1.00  0.00     0.070 C 
HETATM    2  C   UNL     1     -43.280  59.932 -51.295  1.00  0.00     0.037 C 
HETATM    3  N   UNL     1     -42.359  58.966 -50.897  1.00  0.00    -0.192 N 
HETATM    4  C   UNL     1     -42.480  57.663 -51.216  1.00  0.00     0.726 A 
HETATM    5  N   UNL     1     -43.425  57.280 -52.127  1.00  0.00    -0.082 N 
HETATM    6  N   UNL     1     -43.474  55.937 -52.248  1.00  0.00    -0.128 NA
HETATM    7  C   UNL     1     -42.504  55.574 -51.399  1.00  0.00     0.226 A 
HETATM    8  N   UNL     1     -41.864  56.608 -50.758  1.00  0.00    -0.035 NA
HETATM    9  C   UNL     1     -44.331  58.214 -52.805  1.00  0.00     0.203 C 
HETATM   10  C   UNL     1     -44.240  59.611 -52.200  1.00  0.00     0.070 C 
HETATM   11  H   UNL     1     -41.716  59.214 -50.148  1.00  0.00     0.184 HD
ENDROOT
BRANCH   7  12
HETATM   12  S   UNL     1     -42.100  53.917 -51.055  1.00  0.00    -0.083 SA
BRANCH  12  13
HETATM   13  C   UNL     1     -40.405  53.820 -51.688  1.00  0.00     0.123 C 
BRANCH  13  14
HETATM   14  C   UNL     1     -40.170  52.509 -52.404  1.00  0.00    -0.027 A 
HETATM   15  C   UNL     1     -40.482  52.311 -53.759  1.00  0.00     0.041 A 
HETATM   16 CL   UNL     1     -41.133  53.571 -54.746  1.00  0.00    -0.084 Cl
HETATM   17  C   UNL     1     -40.277  51.064 -54.361  1.00  0.00     0.024 A 
HETATM   18  C   UNL     1     -39.768  49.998 -53.621  1.00  0.00     0.002 A 
HETATM   19  C   UNL     1     -39.462  50.175 -52.275  1.00  0.00     0.001 A 
HETATM   20  C   UNL     1     -39.661  51.419 -51.671  1.00  0.00     0.009 A 
ENDBRANCH  13  14
ENDBRANCH  12  13
ENDBRANCH   7  12
BRANCH   9  21
HETATM   21  C   UNL     1     -44.051  58.224 -54.308  1.00  0.00    -0.028 A 
HETATM   22  C   UNL     1     -42.738  58.418 -54.772  1.00  0.00     0.011 A 
HETATM   23  C   UNL     1     -42.455  58.404 -56.140  1.00  0.00     0.024 A 
HETATM   24  C   UNL     1     -43.480  58.191 -57.058  1.00  0.00     0.034 A 
HETATM   25 CL   UNL     1     -43.130  58.170 -58.742  1.00  0.00    -0.084 Cl
HETATM   26  C   UNL     1     -44.786  57.990 -56.620  1.00  0.00     0.024 A 
HETATM   27  C   UNL     1     -45.072  58.002 -55.253  1.00  0.00     0.011 A 
ENDBRANCH   9  21
BRANCH  10  28
HETATM   28  C   UNL     1     -45.318  60.516 -52.649  1.00  0.00     0.293 C 
HETATM   29  O   UNL     1     -46.467  60.420 -52.246  1.00  0.00    -0.259 OA
BRANCH  28  30
HETATM   30  O   UNL     1     -44.873  61.386 -53.586  1.00  0.00    -0.323 OA
HETATM   31  C   UNL     1     -45.829  61.682 -54.605  1.00  0.00     0.213 C 
ENDBRANCH  28  30
ENDBRANCH  10  28
TORSDOF 6
ENDMDL
MODEL 8
REMARK VINA RESULT:      -7.4      3.852      8.047
REMARK  6 active torsions:
REMARK  status: ('A' for Active; 'I' for Inactive)
REMARK    1  A    between atoms: C_7  and  S_8 
REMARK    2  A    between atoms: S_8  and  C_9 
REMARK    3  A    between atoms: C_9  and  C_10 
REMARK    4  A    between atoms: C_18  and  C_19 
REMARK    5  A    between atoms: C_26  and  C_27 
REMARK    6  A    between atoms: C_27  and  O_28 
ROOT
HETATM    1  C   UNL     1     -44.635  57.680 -51.033  1.00  0.00     0.070 C 
HETATM    2  C   UNL     1     -43.974  57.357 -52.349  1.00  0.00     0.037 C 
HETATM    3  N   UNL     1     -44.790  57.453 -53.472  1.00  0.00    -0.192 N 
HETATM    4  C   UNL     1     -44.308  57.453 -54.730  1.00  0.00     0.726 A 
HETATM    5  N   UNL     1     -42.993  57.149 -54.944  1.00  0.00    -0.082 N 
HETATM    6  N   UNL     1     -42.660  57.297 -56.245  1.00  0.00    -0.128 NA
HETATM    7  C   UNL     1     -43.840  57.661 -56.764  1.00  0.00     0.226 A 
HETATM    8  N   UNL     1     -44.876  57.754 -55.866  1.00  0.00    -0.035 NA
HETATM    9  C   UNL     1     -42.049  56.808 -53.874  1.00  0.00     0.203 C 
HETATM   10  C   UNL     1     -42.659  57.056 -52.499  1.00  0.00     0.070 C 
HETATM   11  H   UNL     1     -45.746  57.774 -53.330  1.00  0.00     0.184 HD
ENDROOT
BRANCH   7  12
HETATM   12  S   UNL     1     -44.066  58.064 -58.442  1.00  0.00    -0.083 SA
BRANCH  12  13
HETATM   13  C   UNL     1     -42.353  58.136 -59.028  1.00  0.00     0.123 C 
BRANCH  13  14
HETATM   14  C   UNL     1     -42.046  59.487 -59.634  1.00  0.00    -0.027 A 
HETATM   15  C   UNL     1     -41.804  60.635 -58.861  1.00  0.00     0.041 A 
HETATM   16 CL   UNL     1     -41.799  60.595 -57.133  1.00  0.00    -0.084 Cl
HETATM   17  C   UNL     1     -41.560  61.868 -59.476  1.00  0.00     0.024 A 
HETATM   18  C   UNL     1     -41.563  61.976 -60.865  1.00  0.00     0.002 A 
HETATM   19  C   UNL     1     -41.809  60.851 -61.646  1.00  0.00     0.001 A 
HETATM   20  C   UNL     1     -42.049  59.617 -61.036  1.00  0.00     0.009 A 
ENDBRANCH  13  14
ENDBRANCH  12  13
ENDBRANCH   7  12
BRANCH   9  21
HETATM   21  C   UNL     1     -41.570  55.364 -54.034  1.00  0.00    -0.028 A 
HETATM   22  C   UNL     1     -40.371  55.099 -54.720  1.00  0.00     0.011 A 
HETATM   23  C   UNL     1     -39.901  53.791 -54.854  1.00  0.00     0.024 A 
HETATM   24  C   UNL     1     -40.621  52.735 -54.302  1.00  0.00     0.034 A 
HETATM   25 CL   UNL     1     -40.040  51.124 -54.464  1.00  0.00    -0.084 Cl
HETATM   26  C   UNL     1     -41.807  52.976 -53.614  1.00  0.00     0.024 A 
HETATM   27  C   UNL     1     -42.279  54.284 -53.476  1.00  0.00     0.011 A 
ENDBRANCH   9  21
BRANCH  10  28
HETATM   28  C   UNL     1     -41.671  56.997 -51.401  1.00  0.00     0.293 C 
HETATM   29  O   UNL     1     -41.678  56.112 -50.558  1.00  0.00    -0.259 OA
BRANCH  28  30
HETATM   30  O   UNL     1     -40.838  58.063 -51.430  1.00  0.00    -0.323 OA
HETATM   31  C   UNL     1     -41.009  58.964 -50.334  1.00  0.00     0.213 C 
ENDBRANCH  28  30
ENDBRANCH  10  28
TORSDOF 6
ENDMDL
MODEL 9
REMARK VINA RESULT:      -7.3      4.078      7.979
REMARK  6 active torsions:
REMARK  status: ('A' for Active; 'I' for Inactive)
REMARK    1  A    between atoms: C_7  and  S_8 
REMARK    2  A    between atoms: S_8  and  C_9 
REMARK    3  A    between atoms: C_9  and  C_10 
REMARK    4  A    between atoms: C_18  and  C_19 
REMARK    5  A    between atoms: C_26  and  C_27 
REMARK    6  A    between atoms: C_27  and  O_28 
ROOT
HETATM    1  C   UNL     1     -44.415  55.243 -50.156  1.00  0.00     0.070 C 
HETATM    2  C   UNL     1     -43.512  55.234 -51.362  1.00  0.00     0.037 C 
HETATM    3  N   UNL     1     -44.085  55.690 -52.546  1.00  0.00    -0.192 N 
HETATM    4  C   UNL     1     -43.361  55.990 -53.642  1.00  0.00     0.726 A 
HETATM    5  N   UNL     1     -42.037  55.654 -53.684  1.00  0.00    -0.082 N 
HETATM    6  N   UNL     1     -41.448  56.118 -54.807  1.00  0.00    -0.128 NA
HETATM    7  C   UNL     1     -42.491  56.699 -55.415  1.00  0.00     0.226 A 
HETATM    8  N   UNL     1     -43.683  56.627 -54.735  1.00  0.00    -0.035 NA
HETATM    9  C   UNL     1     -41.333  54.967 -52.595  1.00  0.00     0.203 C 
HETATM   10  C   UNL     1     -42.200  54.884 -51.343  1.00  0.00     0.070 C 
HETATM   11  H   UNL     1     -45.042  56.035 -52.501  1.00  0.00     0.184 HD
ENDROOT
BRANCH   7  12
HETATM   12  S   UNL     1     -42.369  57.552 -56.926  1.00  0.00    -0.083 SA
BRANCH  12  13
HETATM   13  C   UNL     1     -44.115  57.785 -57.350  1.00  0.00     0.123 C 
BRANCH  13  14
HETATM   14  C   UNL     1     -44.497  56.945 -58.548  1.00  0.00    -0.027 A 
HETATM   15  C   UNL     1     -45.684  57.140 -59.272  1.00  0.00     0.041 A 
HETATM   16 CL   UNL     1     -46.807  58.392 -58.877  1.00  0.00    -0.084 Cl
HETATM   17  C   UNL     1     -46.003  56.308 -60.351  1.00  0.00     0.024 A 
HETATM   18  C   UNL     1     -45.151  55.268 -60.717  1.00  0.00     0.002 A 
HETATM   19  C   UNL     1     -43.974  55.056 -60.005  1.00  0.00     0.001 A 
HETATM   20  C   UNL     1     -43.649  55.886 -58.929  1.00  0.00     0.009 A 
ENDBRANCH  13  14
ENDBRANCH  12  13
ENDBRANCH   7  12
BRANCH   9  21
HETATM   21  C   UNL     1     -40.866  53.586 -53.058  1.00  0.00    -0.028 A 
HETATM   22  C   UNL     1     -39.821  52.939 -52.375  1.00  0.00     0.011 A 
HETATM   23  C   UNL     1     -39.396  51.666 -52.764  1.00  0.00     0.024 A 
HETATM   24  C   UNL     1     -40.013  51.026 -53.836  1.00  0.00     0.034 A 
HETATM   25 CL   UNL     1     -39.492  49.458 -54.311  1.00  0.00    -0.084 Cl
HETATM   26  C   UNL     1     -41.053  51.647 -54.521  1.00  0.00     0.024 A 
HETATM   27  C   UNL     1     -41.482  52.918 -54.133  1.00  0.00     0.011 A 
ENDBRANCH   9  21
BRANCH  10  28
HETATM   28  C   UNL     1     -41.454  54.457 -50.141  1.00  0.00     0.293 C 
HETATM   29  O   UNL     1     -41.871  53.597 -49.380  1.00  0.00    -0.259 OA
BRANCH  28  30
HETATM   30  O   UNL     1     -40.321  55.179 -49.982  1.00  0.00    -0.323 OA
HETATM   31  C   UNL     1     -39.253  54.458 -49.366  1.00  0.00     0.213 C 
ENDBRANCH  28  30
ENDBRANCH  10  28
TORSDOF 6
ENDMDL
MODEL 10
REMARK VINA RESULT:      -7.2      4.170      8.387
REMARK  6 active torsions:
REMARK  status: ('A' for Active; 'I' for Inactive)
REMARK    1  A    between atoms: C_7  and  S_8 
REMARK    2  A    between atoms: S_8  and  C_9 
REMARK    3  A    between atoms: C_9  and  C_10 
REMARK    4  A    between atoms: C_18  and  C_19 
REMARK    5  A    between atoms: C_26  and  C_27 
REMARK    6  A    between atoms: C_27  and  O_28 
ROOT
HETATM    1  C   UNL     1     -44.534  57.908 -51.032  1.00  0.00     0.070 C 
HETATM    2  C   UNL     1     -43.951  57.526 -52.369  1.00  0.00     0.037 C 
HETATM    3  N   UNL     1     -44.846  57.518 -53.436  1.00  0.00    -0.192 N 
HETATM    4  C   UNL     1     -44.451  57.454 -54.722  1.00  0.00     0.726 A 
HETATM    5  N   UNL     1     -43.141  57.187 -55.010  1.00  0.00    -0.082 N 
HETATM    6  N   UNL     1     -42.905  57.262 -56.337  1.00  0.00    -0.128 NA
HETATM    7  C   UNL     1     -44.132  57.547 -56.793  1.00  0.00     0.226 A 
HETATM    8  N   UNL     1     -45.107  57.659 -55.831  1.00  0.00    -0.035 NA
HETATM    9  C   UNL     1     -42.113  56.953 -53.990  1.00  0.00     0.203 C 
HETATM   10  C   UNL     1     -42.637  57.266 -52.593  1.00  0.00     0.070 C 
HETATM   11  H   UNL     1     -45.802  57.811 -53.246  1.00  0.00     0.184 HD
ENDROOT
BRANCH   7  12
HETATM   12  S   UNL     1     -44.490  57.831 -58.472  1.00  0.00    -0.083 SA
BRANCH  12  13
HETATM   13  C   UNL     1     -46.233  58.322 -58.390  1.00  0.00     0.123 C 
BRANCH  13  14
HETATM   14  C   UNL     1     -46.928  58.063 -59.708  1.00  0.00    -0.027 A 
HETATM   15  C   UNL     1     -47.573  59.072 -60.444  1.00  0.00     0.041 A 
HETATM   16 CL   UNL     1     -47.597  60.718 -59.920  1.00  0.00    -0.084 Cl
HETATM   17  C   UNL     1     -48.232  58.769 -61.640  1.00  0.00     0.024 A 
HETATM   18  C   UNL     1     -48.265  57.459 -62.115  1.00  0.00     0.002 A 
HETATM   19  C   UNL     1     -47.638  56.446 -61.395  1.00  0.00     0.001 A 
HETATM   20  C   UNL     1     -46.976  56.745 -60.202  1.00  0.00     0.009 A 
ENDBRANCH  13  14
ENDBRANCH  12  13
ENDBRANCH   7  12
BRANCH   9  21
HETATM   21  C   UNL     1     -41.585  55.521 -54.094  1.00  0.00    -0.028 A 
HETATM   22  C   UNL     1     -42.317  54.465 -53.522  1.00  0.00     0.011 A 
HETATM   23  C   UNL     1     -41.867  53.146 -53.628  1.00  0.00     0.024 A 
HETATM   24  C   UNL     1     -40.685  52.870 -54.309  1.00  0.00     0.034 A 
HETATM   25 CL   UNL     1     -40.134  51.246 -54.443  1.00  0.00    -0.084 Cl
HETATM   26  C   UNL     1     -39.949  53.899 -54.888  1.00  0.00     0.024 A 
HETATM   27  C   UNL     1     -40.397  55.218 -54.785  1.00  0.00     0.011 A 
ENDBRANCH   9  21
BRANCH  10  28
HETATM   28  C   UNL     1     -41.576  57.316 -51.566  1.00  0.00     0.293 C 
HETATM   29  O   UNL     1     -41.506  56.508 -50.653  1.00  0.00    -0.259 OA
BRANCH  28  30
HETATM   30  O   UNL     1     -40.768  58.387 -51.744  1.00  0.00    -0.323 OA
HETATM   31  C   UNL     1     -41.178  59.551 -51.024  1.00  0.00     0.213 C 
ENDBRANCH  28  30
ENDBRANCH  10  28
TORSDOF 6
ENDMDL
