MODEL 1
REMARK VINA RESULT:      -9.2      0.000      0.000
REMARK  9 active torsions:
REMARK  status: ('A' for Active; 'I' for Inactive)
REMARK    1  A    between atoms: N_2  and  C_5 
REMARK    2  A    between atoms: C_10  and  N_11 
REMARK       I    between atoms: N_11  and  C_12 
REMARK    3  A    between atoms: C_12  and  C_14 
REMARK    4  A    between atoms: C_18  and  C_19 
REMARK    5  A    between atoms: C_19  and  N_20 
REMARK       I    between atoms: N_20  and  C_21 
REMARK    6  A    between atoms: C_21  and  C_23 
REMARK    7  A    between atoms: N_26  and  C_34 
REMARK    8  A    between atoms: C_27  and  C_28 
REMARK    9  A    between atoms: C_38  and  N_39 
ROOT
HETATM    1  C   UNL     1     -43.232  62.166 -55.289  1.00  0.00     0.161 C 
ENDROOT
BRANCH   1   2
HETATM    2  C   UNL     1     -43.164  61.577 -53.905  1.00  0.00    -0.040 A 
HETATM    3  C   UNL     1     -43.258  62.411 -52.781  1.00  0.00     0.009 A 
HETATM    4  C   UNL     1     -43.230  61.874 -51.496  1.00  0.00     0.002 A 
HETATM    5  C   UNL     1     -43.097  60.498 -51.319  1.00  0.00     0.017 A 
HETATM    6  C   UNL     1     -42.990  59.645 -52.427  1.00  0.00     0.033 A 
HETATM    7  C   UNL     1     -43.047  60.188 -53.720  1.00  0.00     0.026 A 
BRANCH   6   8
HETATM    8  C   UNL     1     -42.841  58.180 -52.165  1.00  0.00     0.257 C 
HETATM    9  N   UNL     1     -41.690  57.601 -52.652  1.00  0.00    -0.301 N 
HETATM   10  H   UNL     1     -40.993  58.159 -53.121  1.00  0.00     0.171 HD
HETATM   11  O   UNL     1     -43.723  57.620 -51.523  1.00  0.00    -0.267 OA
BRANCH   9  12
HETATM   12  C   UNL     1     -41.311  56.289 -52.514  1.00  0.00     0.174 A 
HETATM   13  N   UNL     1     -40.969  55.562 -53.559  1.00  0.00    -0.228 NA
HETATM   14  C   UNL     1     -40.629  54.294 -53.148  1.00  0.00     0.050 A 
HETATM   15  C   UNL     1     -40.189  53.250 -54.118  1.00  0.00     0.062 C 
HETATM   16  C   UNL     1     -40.687  54.087 -51.787  1.00  0.00     0.013 A 
HETATM   17  C   UNL     1     -40.183  51.853 -53.464  1.00  0.00     0.039 C 
HETATM   18  C   UNL     1     -39.556  51.900 -52.049  1.00  0.00     0.192 C 
HETATM   19  C   UNL     1     -40.358  52.814 -51.087  1.00  0.00     0.081 C 
HETATM   20  S   UNL     1     -41.230  55.491 -51.004  1.00  0.00    -0.055 SA
BRANCH  18  21
HETATM   21  N   UNL     1     -39.367  50.482 -51.502  1.00  0.00    -0.074 N 
HETATM   22  C   UNL     1     -40.159  50.240 -50.238  1.00  0.00     0.269 C 
HETATM   23  H   UNL     1     -38.381  50.426 -51.212  1.00  0.00     0.279 HD
HETATM   24  C   UNL     1     -39.562  49.355 -52.484  1.00  0.00     0.269 C 
ENDBRANCH  18  21
ENDBRANCH   9  12
ENDBRANCH   6   8
ENDBRANCH   1   2
BRANCH   1  25
HETATM   25  N   UNL     1     -43.559  61.158 -56.265  1.00  0.00    -0.351 N 
HETATM   26  C   UNL     1     -42.598  60.658 -57.117  1.00  0.00     0.274 C 
HETATM   27  O   UNL     1     -41.406  60.920 -56.995  1.00  0.00    -0.266 OA
HETATM   28  H   UNL     1     -44.529  60.986 -56.503  1.00  0.00     0.163 HD
BRANCH  26  29
HETATM   29  C   UNL     1     -43.149  59.818 -58.175  1.00  0.00     0.177 A 
HETATM   30  N   UNL     1     -43.220  60.254 -59.473  1.00  0.00    -0.124 NA
HETATM   31  N   UNL     1     -43.758  59.297 -60.205  1.00  0.00    -0.058 NA
HETATM   32  N   UNL     1     -44.017  58.216 -59.410  1.00  0.00    -0.188 N 
HETATM   33  C   UNL     1     -43.673  58.534 -58.091  1.00  0.00     0.109 A 
BRANCH  32  34
HETATM   34  C   UNL     1     -44.528  57.010 -59.955  1.00  0.00     0.230 A 
HETATM   35  N   UNL     1     -43.811  56.267 -60.797  1.00  0.00    -0.081 NA
HETATM   36  O   UNL     1     -44.650  55.203 -61.117  1.00  0.00    -0.103 OA
HETATM   37  N   UNL     1     -45.874  55.313 -60.464  1.00  0.00    -0.083 NA
HETATM   38  C   UNL     1     -45.795  56.431 -59.745  1.00  0.00     0.201 A 
BRANCH  38  39
HETATM   39  N   UNL     1     -46.781  56.894 -58.953  1.00  0.00    -0.379 N 
HETATM   40  H   UNL     1     -47.115  56.320 -58.186  1.00  0.00     0.158 HD
HETATM   41  H   UNL     1     -47.429  57.613 -59.267  1.00  0.00     0.158 HD
ENDBRANCH  38  39
ENDBRANCH  32  34
BRANCH  33  42
HETATM   42  C   UNL     1     -43.872  57.675 -56.929  1.00  0.00    -0.005 A 
HETATM   43  C   UNL     1     -44.860  57.976 -55.984  1.00  0.00     0.014 A 
HETATM   44  C   UNL     1     -45.052  57.146 -54.877  1.00  0.00     0.001 A 
HETATM   45  C   UNL     1     -44.262  56.011 -54.709  1.00  0.00     0.000 A 
HETATM   46  C   UNL     1     -43.282  55.699 -55.650  1.00  0.00     0.001 A 
HETATM   47  C   UNL     1     -43.091  56.524 -56.759  1.00  0.00     0.014 A 
ENDBRANCH  33  42
ENDBRANCH  26  29
ENDBRANCH   1  25
TORSDOF 9
ENDMDL
MODEL 2
REMARK VINA RESULT:      -9.1      2.832      8.595
REMARK  9 active torsions:
REMARK  status: ('A' for Active; 'I' for Inactive)
REMARK    1  A    between atoms: N_2  and  C_5 
REMARK    2  A    between atoms: C_10  and  N_11 
REMARK       I    between atoms: N_11  and  C_12 
REMARK    3  A    between atoms: C_12  and  C_14 
REMARK    4  A    between atoms: C_18  and  C_19 
REMARK    5  A    between atoms: C_19  and  N_20 
REMARK       I    between atoms: N_20  and  C_21 
REMARK    6  A    between atoms: C_21  and  C_23 
REMARK    7  A    between atoms: N_26  and  C_34 
REMARK    8  A    between atoms: C_27  and  C_28 
REMARK    9  A    between atoms: C_38  and  N_39 
ROOT
HETATM    1  C   UNL     1     -40.765  54.677 -49.832  1.00  0.00     0.161 C 
ENDROOT
BRANCH   1   2
HETATM    2  C   UNL     1     -40.512  53.919 -51.109  1.00  0.00    -0.040 A 
HETATM    3  C   UNL     1     -39.979  52.623 -51.063  1.00  0.00     0.009 A 
HETATM    4  C   UNL     1     -39.772  51.899 -52.235  1.00  0.00     0.002 A 
HETATM    5  C   UNL     1     -40.085  52.468 -53.469  1.00  0.00     0.017 A 
HETATM    6  C   UNL     1     -40.609  53.767 -53.541  1.00  0.00     0.033 A 
HETATM    7  C   UNL     1     -40.841  54.481 -52.355  1.00  0.00     0.026 A 
BRANCH   6   8
HETATM    8  C   UNL     1     -40.915  54.320 -54.897  1.00  0.00     0.257 C 
HETATM    9  N   UNL     1     -42.035  55.118 -54.976  1.00  0.00    -0.301 N 
HETATM   10  H   UNL     1     -42.576  55.329 -54.151  1.00  0.00     0.171 HD
HETATM   11  O   UNL     1     -40.146  54.051 -55.812  1.00  0.00    -0.267 OA
BRANCH   9  12
HETATM   12  C   UNL     1     -42.504  55.763 -56.094  1.00  0.00     0.174 A 
HETATM   13  N   UNL     1     -42.909  55.091 -57.152  1.00  0.00    -0.228 NA
HETATM   14  C   UNL     1     -43.332  55.968 -58.123  1.00  0.00     0.050 A 
HETATM   15  C   UNL     1     -43.857  55.489 -59.434  1.00  0.00     0.062 C 
HETATM   16  C   UNL     1     -43.272  57.300 -57.772  1.00  0.00     0.013 A 
HETATM   17  C   UNL     1     -43.954  56.648 -60.449  1.00  0.00     0.039 C 
HETATM   18  C   UNL     1     -44.557  57.915 -59.796  1.00  0.00     0.192 C 
HETATM   19  C   UNL     1     -43.680  58.445 -58.633  1.00  0.00     0.081 C 
HETATM   20  S   UNL     1     -42.621  57.465 -56.214  1.00  0.00    -0.055 SA
BRANCH  18  21
HETATM   21  N   UNL     1     -44.839  58.980 -60.860  1.00  0.00    -0.074 N 
HETATM   22  C   UNL     1     -46.074  59.794 -60.551  1.00  0.00     0.269 C 
HETATM   23  H   UNL     1     -45.072  58.461 -61.718  1.00  0.00     0.279 HD
HETATM   24  C   UNL     1     -43.685  59.875 -61.233  1.00  0.00     0.269 C 
ENDBRANCH  18  21
ENDBRANCH   9  12
ENDBRANCH   6   8
ENDBRANCH   1   2
BRANCH   1  25
HETATM   25  N   UNL     1     -41.682  55.765 -50.049  1.00  0.00    -0.351 N 
HETATM   26  C   UNL     1     -43.012  55.528 -50.323  1.00  0.00     0.274 C 
HETATM   27  O   UNL     1     -43.513  54.412 -50.248  1.00  0.00    -0.266 OA
HETATM   28  H   UNL     1     -41.323  56.693 -50.247  1.00  0.00     0.163 HD
BRANCH  26  29
HETATM   29  C   UNL     1     -43.738  56.727 -50.731  1.00  0.00     0.177 A 
HETATM   30  N   UNL     1     -45.105  56.795 -50.662  1.00  0.00    -0.124 NA
HETATM   31  N   UNL     1     -45.484  57.984 -51.093  1.00  0.00    -0.058 NA
HETATM   32  N   UNL     1     -44.378  58.718 -51.419  1.00  0.00    -0.188 N 
HETATM   33  C   UNL     1     -43.240  57.922 -51.235  1.00  0.00     0.109 A 
BRANCH  32  34
HETATM   34  C   UNL     1     -44.490  60.068 -51.838  1.00  0.00     0.230 A 
HETATM   35  N   UNL     1     -43.992  61.067 -51.110  1.00  0.00    -0.081 NA
HETATM   36  O   UNL     1     -44.318  62.212 -51.832  1.00  0.00    -0.103 OA
HETATM   37  N   UNL     1     -45.013  61.895 -52.994  1.00  0.00    -0.083 NA
HETATM   38  C   UNL     1     -45.117  60.567 -52.996  1.00  0.00     0.201 A 
BRANCH  38  39
HETATM   39  N   UNL     1     -45.721  59.857 -53.967  1.00  0.00    -0.379 N 
HETATM   40  H   UNL     1     -45.368  59.907 -54.916  1.00  0.00     0.158 HD
HETATM   41  H   UNL     1     -46.687  59.546 -53.883  1.00  0.00     0.158 HD
ENDBRANCH  38  39
ENDBRANCH  32  34
BRANCH  33  42
HETATM   42  C   UNL     1     -41.870  58.313 -51.548  1.00  0.00    -0.005 A 
HETATM   43  C   UNL     1     -41.344  58.096 -52.827  1.00  0.00     0.014 A 
HETATM   44  C   UNL     1     -40.035  58.478 -53.124  1.00  0.00     0.001 A 
HETATM   45  C   UNL     1     -39.243  59.081 -52.148  1.00  0.00     0.000 A 
HETATM   46  C   UNL     1     -39.762  59.308 -50.874  1.00  0.00     0.001 A 
HETATM   47  C   UNL     1     -41.072  58.932 -50.576  1.00  0.00     0.014 A 
ENDBRANCH  33  42
ENDBRANCH  26  29
ENDBRANCH   1  25
TORSDOF 9
ENDMDL
MODEL 3
REMARK VINA RESULT:      -8.8      4.027      7.512
REMARK  9 active torsions:
REMARK  status: ('A' for Active; 'I' for Inactive)
REMARK    1  A    between atoms: N_2  and  C_5 
REMARK    2  A    between atoms: C_10  and  N_11 
REMARK       I    between atoms: N_11  and  C_12 
REMARK    3  A    between atoms: C_12  and  C_14 
REMARK    4  A    between atoms: C_18  and  C_19 
REMARK    5  A    between atoms: C_19  and  N_20 
REMARK       I    between atoms: N_20  and  C_21 
REMARK    6  A    between atoms: C_21  and  C_23 
REMARK    7  A    between atoms: N_26  and  C_34 
REMARK    8  A    between atoms: C_27  and  C_28 
REMARK    9  A    between atoms: C_38  and  N_39 
ROOT
HETATM    1  C   UNL     1     -43.739  63.803 -53.786  1.00  0.00     0.161 C 
ENDROOT
BRANCH   1   2
HETATM    2  C   UNL     1     -43.731  62.463 -54.474  1.00  0.00    -0.040 A 
HETATM    3  C   UNL     1     -44.561  62.237 -55.581  1.00  0.00     0.009 A 
HETATM    4  C   UNL     1     -44.537  61.013 -56.246  1.00  0.00     0.002 A 
HETATM    5  C   UNL     1     -43.692  59.996 -55.804  1.00  0.00     0.017 A 
HETATM    6  C   UNL     1     -42.861  60.196 -54.692  1.00  0.00     0.033 A 
HETATM    7  C   UNL     1     -42.868  61.439 -54.043  1.00  0.00     0.026 A 
BRANCH   6   8
HETATM    8  C   UNL     1     -41.984  59.060 -54.267  1.00  0.00     0.257 C 
HETATM    9  N   UNL     1     -42.578  57.817 -54.267  1.00  0.00    -0.301 N 
HETATM   10  H   UNL     1     -43.533  57.703 -54.571  1.00  0.00     0.171 HD
HETATM   11  O   UNL     1     -40.818  59.311 -53.985  1.00  0.00    -0.267 OA
BRANCH   9  12
HETATM   12  C   UNL     1     -41.979  56.623 -53.949  1.00  0.00     0.174 A 
HETATM   13  N   UNL     1     -41.840  56.239 -52.697  1.00  0.00    -0.228 NA
HETATM   14  C   UNL     1     -41.218  55.013 -52.656  1.00  0.00     0.050 A 
HETATM   15  C   UNL     1     -40.935  54.323 -51.364  1.00  0.00     0.062 C 
HETATM   16  C   UNL     1     -40.922  54.467 -53.886  1.00  0.00     0.013 A 
HETATM   17  C   UNL     1     -39.958  53.145 -51.566  1.00  0.00     0.039 C 
HETATM   18  C   UNL     1     -40.337  52.313 -52.815  1.00  0.00     0.192 C 
HETATM   19  C   UNL     1     -40.264  53.151 -54.118  1.00  0.00     0.081 C 
HETATM   20  S   UNL     1     -41.383  55.533 -55.124  1.00  0.00    -0.055 SA
BRANCH  18  21
HETATM   21  N   UNL     1     -39.492  51.038 -52.882  1.00  0.00    -0.074 N 
HETATM   22  C   UNL     1     -39.422  50.320 -51.554  1.00  0.00     0.269 C 
HETATM   23  H   UNL     1     -38.529  51.351 -53.064  1.00  0.00     0.279 HD
HETATM   24  C   UNL     1     -39.819  50.076 -53.996  1.00  0.00     0.269 C 
ENDBRANCH  18  21
ENDBRANCH   9  12
ENDBRANCH   6   8
ENDBRANCH   1   2
BRANCH   1  25
HETATM   25  N   UNL     1     -44.313  63.705 -52.469  1.00  0.00    -0.351 N 
HETATM   26  C   UNL     1     -43.626  64.151 -51.360  1.00  0.00     0.274 C 
HETATM   27  O   UNL     1     -42.579  64.782 -51.443  1.00  0.00    -0.266 OA
HETATM   28  H   UNL     1     -45.106  63.093 -52.311  1.00  0.00     0.163 HD
BRANCH  26  29
HETATM   29  C   UNL     1     -44.258  63.773 -50.101  1.00  0.00     0.177 A 
HETATM   30  N   UNL     1     -44.424  64.675 -49.082  1.00  0.00    -0.124 NA
HETATM   31  N   UNL     1     -45.016  64.061 -48.075  1.00  0.00    -0.058 NA
HETATM   32  N   UNL     1     -45.274  62.766 -48.427  1.00  0.00    -0.188 N 
HETATM   33  C   UNL     1     -44.762  62.538 -49.710  1.00  0.00     0.109 A 
BRANCH  32  34
HETATM   34  C   UNL     1     -45.978  61.894 -47.557  1.00  0.00     0.230 A 
HETATM   35  N   UNL     1     -47.308  61.914 -47.480  1.00  0.00    -0.081 NA
HETATM   36  O   UNL     1     -47.610  60.950 -46.520  1.00  0.00    -0.103 OA
HETATM   37  N   UNL     1     -46.455  60.355 -46.023  1.00  0.00    -0.083 NA
HETATM   38  C   UNL     1     -45.447  60.940 -46.668  1.00  0.00     0.201 A 
BRANCH  38  39
HETATM   39  N   UNL     1     -44.149  60.636 -46.479  1.00  0.00    -0.379 N 
HETATM   40  H   UNL     1     -43.849  59.669 -46.538  1.00  0.00     0.158 HD
HETATM   41  H   UNL     1     -43.524  61.249 -45.961  1.00  0.00     0.158 HD
ENDBRANCH  38  39
ENDBRANCH  32  34
BRANCH  33  42
HETATM   42  C   UNL     1     -44.765  61.259 -50.413  1.00  0.00    -0.005 A 
HETATM   43  C   UNL     1     -43.616  60.459 -50.434  1.00  0.00     0.014 A 
HETATM   44  C   UNL     1     -43.626  59.232 -51.101  1.00  0.00     0.001 A 
HETATM   45  C   UNL     1     -44.782  58.796 -51.748  1.00  0.00     0.000 A 
HETATM   46  C   UNL     1     -45.932  59.583 -51.724  1.00  0.00     0.001 A 
HETATM   47  C   UNL     1     -45.926  60.808 -51.054  1.00  0.00     0.014 A 
ENDBRANCH  33  42
ENDBRANCH  26  29
ENDBRANCH   1  25
TORSDOF 9
ENDMDL
MODEL 4
REMARK VINA RESULT:      -8.6      3.896      7.342
REMARK  9 active torsions:
REMARK  status: ('A' for Active; 'I' for Inactive)
REMARK    1  A    between atoms: N_2  and  C_5 
REMARK    2  A    between atoms: C_10  and  N_11 
REMARK       I    between atoms: N_11  and  C_12 
REMARK    3  A    between atoms: C_12  and  C_14 
REMARK    4  A    between atoms: C_18  and  C_19 
REMARK    5  A    between atoms: C_19  and  N_20 
REMARK       I    between atoms: N_20  and  C_21 
REMARK    6  A    between atoms: C_21  and  C_23 
REMARK    7  A    between atoms: N_26  and  C_34 
REMARK    8  A    between atoms: C_27  and  C_28 
REMARK    9  A    between atoms: C_38  and  N_39 
ROOT
HETATM    1  C   UNL     1     -46.430  61.709 -54.666  1.00  0.00     0.161 C 
ENDROOT
BRANCH   1   2
HETATM    2  C   UNL     1     -45.116  61.026 -54.942  1.00  0.00    -0.040 A 
HETATM    3  C   UNL     1     -44.053  61.749 -55.504  1.00  0.00     0.009 A 
HETATM    4  C   UNL     1     -42.822  61.136 -55.732  1.00  0.00     0.002 A 
HETATM    5  C   UNL     1     -42.644  59.791 -55.411  1.00  0.00     0.017 A 
HETATM    6  C   UNL     1     -43.696  59.046 -54.859  1.00  0.00     0.033 A 
HETATM    7  C   UNL     1     -44.924  59.674 -54.605  1.00  0.00     0.026 A 
BRANCH   6   8
HETATM    8  C   UNL     1     -43.438  57.605 -54.546  1.00  0.00     0.257 C 
HETATM    9  N   UNL     1     -42.176  57.314 -54.077  1.00  0.00    -0.301 N 
HETATM   10  H   UNL     1     -41.500  58.048 -53.930  1.00  0.00     0.171 HD
HETATM   11  O   UNL     1     -44.359  56.812 -54.699  1.00  0.00    -0.267 OA
BRANCH   9  12
HETATM   12  C   UNL     1     -41.709  56.082 -53.692  1.00  0.00     0.174 A 
HETATM   13  N   UNL     1     -41.223  55.230 -54.572  1.00  0.00    -0.228 NA
HETATM   14  C   UNL     1     -40.822  54.081 -53.931  1.00  0.00     0.050 A 
HETATM   15  C   UNL     1     -40.220  52.939 -54.677  1.00  0.00     0.062 C 
HETATM   16  C   UNL     1     -40.980  54.092 -52.562  1.00  0.00     0.013 A 
HETATM   17  C   UNL     1     -40.161  51.672 -53.797  1.00  0.00     0.039 C 
HETATM   18  C   UNL     1     -39.664  52.004 -52.370  1.00  0.00     0.192 C 
HETATM   19  C   UNL     1     -40.615  52.984 -51.636  1.00  0.00     0.081 C 
HETATM   20  S   UNL     1     -41.697  55.549 -52.068  1.00  0.00    -0.055 SA
BRANCH  18  21
HETATM   21  N   UNL     1     -39.413  50.717 -51.580  1.00  0.00    -0.074 N 
HETATM   22  C   UNL     1     -40.203  50.664 -50.293  1.00  0.00     0.269 C 
HETATM   23  H   UNL     1     -38.428  50.760 -51.283  1.00  0.00     0.279 HD
HETATM   24  C   UNL     1     -39.546  49.425 -52.345  1.00  0.00     0.269 C 
ENDBRANCH  18  21
ENDBRANCH   9  12
ENDBRANCH   6   8
ENDBRANCH   1   2
BRANCH   1  25
HETATM   25  N   UNL     1     -46.671  61.815 -53.251  1.00  0.00    -0.351 N 
HETATM   26  C   UNL     1     -46.254  62.919 -52.540  1.00  0.00     0.274 C 
HETATM   27  O   UNL     1     -45.802  63.921 -53.082  1.00  0.00    -0.266 OA
HETATM   28  H   UNL     1     -46.924  60.987 -52.721  1.00  0.00     0.163 HD
BRANCH  26  29
HETATM   29  C   UNL     1     -46.383  62.756 -51.095  1.00  0.00     0.177 A 
HETATM   30  N   UNL     1     -47.309  63.465 -50.374  1.00  0.00    -0.124 NA
HETATM   31  N   UNL     1     -47.200  63.120 -49.105  1.00  0.00    -0.058 NA
HETATM   32  N   UNL     1     -46.230  62.165 -48.980  1.00  0.00    -0.188 N 
HETATM   33  C   UNL     1     -45.658  61.938 -50.238  1.00  0.00     0.109 A 
BRANCH  32  34
HETATM   34  C   UNL     1     -45.956  61.556 -47.729  1.00  0.00     0.230 A 
HETATM   35  N   UNL     1     -46.202  60.264 -47.516  1.00  0.00    -0.081 NA
HETATM   36  O   UNL     1     -45.828  60.058 -46.190  1.00  0.00    -0.103 OA
HETATM   37  N   UNL     1     -45.357  61.233 -45.611  1.00  0.00    -0.083 NA
HETATM   38  C   UNL     1     -45.436  62.157 -46.566  1.00  0.00     0.201 A 
BRANCH  38  39
HETATM   39  N   UNL     1     -45.064  63.441 -46.410  1.00  0.00    -0.379 N 
HETATM   40  H   UNL     1     -44.162  63.652 -45.996  1.00  0.00     0.158 HD
HETATM   41  H   UNL     1     -45.744  64.197 -46.366  1.00  0.00     0.158 HD
ENDBRANCH  38  39
ENDBRANCH  32  34
BRANCH  33  42
HETATM   42  C   UNL     1     -44.535  61.049 -50.514  1.00  0.00    -0.005 A 
HETATM   43  C   UNL     1     -44.759  59.720 -50.895  1.00  0.00     0.014 A 
HETATM   44  C   UNL     1     -43.681  58.875 -51.166  1.00  0.00     0.001 A 
HETATM   45  C   UNL     1     -42.375  59.350 -51.060  1.00  0.00     0.000 A 
HETATM   46  C   UNL     1     -42.144  60.674 -50.689  1.00  0.00     0.001 A 
HETATM   47  C   UNL     1     -43.219  61.522 -50.423  1.00  0.00     0.014 A 
ENDBRANCH  33  42
ENDBRANCH  26  29
ENDBRANCH   1  25
TORSDOF 9
ENDMDL
MODEL 5
REMARK VINA RESULT:      -8.6      1.748      2.887
REMARK  9 active torsions:
REMARK  status: ('A' for Active; 'I' for Inactive)
REMARK    1  A    between atoms: N_2  and  C_5 
REMARK    2  A    between atoms: C_10  and  N_11 
REMARK       I    between atoms: N_11  and  C_12 
REMARK    3  A    between atoms: C_12  and  C_14 
REMARK    4  A    between atoms: C_18  and  C_19 
REMARK    5  A    between atoms: C_19  and  N_20 
REMARK       I    between atoms: N_20  and  C_21 
REMARK    6  A    between atoms: C_21  and  C_23 
REMARK    7  A    between atoms: N_26  and  C_34 
REMARK    8  A    between atoms: C_27  and  C_28 
REMARK    9  A    between atoms: C_38  and  N_39 
ROOT
HETATM    1  C   UNL     1     -43.487  62.220 -54.028  1.00  0.00     0.161 C 
ENDROOT
BRANCH   1   2
HETATM    2  C   UNL     1     -43.039  61.657 -52.705  1.00  0.00    -0.040 A 
HETATM    3  C   UNL     1     -43.260  62.379 -51.523  1.00  0.00     0.009 A 
HETATM    4  C   UNL     1     -42.880  61.853 -50.290  1.00  0.00     0.002 A 
HETATM    5  C   UNL     1     -42.263  60.604 -50.226  1.00  0.00     0.017 A 
HETATM    6  C   UNL     1     -42.022  59.869 -51.395  1.00  0.00     0.033 A 
HETATM    7  C   UNL     1     -42.431  60.390 -52.632  1.00  0.00     0.026 A 
BRANCH   6   8
HETATM    8  C   UNL     1     -41.350  58.539 -51.255  1.00  0.00     0.257 C 
HETATM    9  N   UNL     1     -41.952  57.494 -51.919  1.00  0.00    -0.301 N 
HETATM   10  H   UNL     1     -42.773  57.649 -52.485  1.00  0.00     0.171 HD
HETATM   11  O   UNL     1     -40.317  58.486 -50.597  1.00  0.00    -0.267 OA
BRANCH   9  12
HETATM   12  C   UNL     1     -41.513  56.194 -51.970  1.00  0.00     0.174 A 
HETATM   13  N   UNL     1     -41.200  55.623 -53.115  1.00  0.00    -0.228 NA
HETATM   14  C   UNL     1     -40.788  54.330 -52.889  1.00  0.00     0.050 A 
HETATM   15  C   UNL     1     -40.360  53.439 -54.006  1.00  0.00     0.062 C 
HETATM   16  C   UNL     1     -40.763  53.949 -51.565  1.00  0.00     0.013 A 
HETATM   17  C   UNL     1     -40.262  51.972 -53.538  1.00  0.00     0.039 C 
HETATM   18  C   UNL     1     -39.562  51.869 -52.162  1.00  0.00     0.192 C 
HETATM   19  C   UNL     1     -40.347  52.614 -51.052  1.00  0.00     0.081 C 
HETATM   20  S   UNL     1     -41.319  55.215 -50.582  1.00  0.00    -0.055 SA
BRANCH  18  21
HETATM   21  N   UNL     1     -39.287  50.403 -51.813  1.00  0.00    -0.074 N 
HETATM   22  C   UNL     1     -39.931  49.988 -50.510  1.00  0.00     0.269 C 
HETATM   23  H   UNL     1     -38.274  50.344 -51.637  1.00  0.00     0.279 HD
HETATM   24  C   UNL     1     -39.566  49.393 -52.896  1.00  0.00     0.269 C 
ENDBRANCH  18  21
ENDBRANCH   9  12
ENDBRANCH   6   8
ENDBRANCH   1   2
BRANCH   1  25
HETATM   25  N   UNL     1     -43.607  61.182 -55.018  1.00  0.00    -0.351 N 
HETATM   26  C   UNL     1     -44.843  60.715 -55.411  1.00  0.00     0.274 C 
HETATM   27  O   UNL     1     -45.891  61.249 -55.064  1.00  0.00    -0.266 OA
HETATM   28  H   UNL     1     -42.799  60.617 -55.254  1.00  0.00     0.163 HD
BRANCH  26  29
HETATM   29  C   UNL     1     -44.768  59.522 -56.248  1.00  0.00     0.177 A 
HETATM   30  N   UNL     1     -45.433  58.370 -55.915  1.00  0.00    -0.124 NA
HETATM   31  N   UNL     1     -45.185  57.465 -56.843  1.00  0.00    -0.058 NA
HETATM   32  N   UNL     1     -44.387  58.015 -57.806  1.00  0.00    -0.188 N 
HETATM   33  C   UNL     1     -44.069  59.326 -57.432  1.00  0.00     0.109 A 
BRANCH  32  34
HETATM   34  C   UNL     1     -44.027  57.284 -58.967  1.00  0.00     0.230 A 
HETATM   35  N   UNL     1     -42.795  57.341 -59.471  1.00  0.00    -0.081 NA
HETATM   36  O   UNL     1     -42.847  56.522 -60.597  1.00  0.00    -0.103 OA
HETATM   37  N   UNL     1     -44.116  55.976 -60.765  1.00  0.00    -0.083 NA
HETATM   38  C   UNL     1     -44.843  56.449 -59.755  1.00  0.00     0.201 A 
BRANCH  38  39
HETATM   39  N   UNL     1     -46.139  56.147 -59.549  1.00  0.00    -0.379 N 
HETATM   40  H   UNL     1     -46.521  56.200 -58.610  1.00  0.00     0.158 HD
HETATM   41  H   UNL     1     -46.663  55.559 -60.193  1.00  0.00     0.158 HD
ENDBRANCH  38  39
ENDBRANCH  32  34
BRANCH  33  42
HETATM   42  C   UNL     1     -43.173  60.223 -58.155  1.00  0.00    -0.005 A 
HETATM   43  C   UNL     1     -41.820  60.309 -57.805  1.00  0.00     0.014 A 
HETATM   44  C   UNL     1     -40.966  61.164 -58.505  1.00  0.00     0.001 A 
HETATM   45  C   UNL     1     -41.455  61.935 -59.558  1.00  0.00     0.000 A 
HETATM   46  C   UNL     1     -42.799  61.848 -59.918  1.00  0.00     0.001 A 
HETATM   47  C   UNL     1     -43.655  60.992 -59.224  1.00  0.00     0.014 A 
ENDBRANCH  33  42
ENDBRANCH  26  29
ENDBRANCH   1  25
TORSDOF 9
ENDMDL
MODEL 6
REMARK VINA RESULT:      -8.1      5.589      6.392
REMARK  9 active torsions:
REMARK  status: ('A' for Active; 'I' for Inactive)
REMARK    1  A    between atoms: N_2  and  C_5 
REMARK    2  A    between atoms: C_10  and  N_11 
REMARK       I    between atoms: N_11  and  C_12 
REMARK    3  A    between atoms: C_12  and  C_14 
REMARK    4  A    between atoms: C_18  and  C_19 
REMARK    5  A    between atoms: C_19  and  N_20 
REMARK       I    between atoms: N_20  and  C_21 
REMARK    6  A    between atoms: C_21  and  C_23 
REMARK    7  A    between atoms: N_26  and  C_34 
REMARK    8  A    between atoms: C_27  and  C_28 
REMARK    9  A    between atoms: C_38  and  N_39 
ROOT
HETATM    1  C   UNL     1     -46.707  62.505 -53.268  1.00  0.00     0.161 C 
ENDROOT
BRANCH   1   2
HETATM    2  C   UNL     1     -46.142  61.400 -52.415  1.00  0.00    -0.040 A 
HETATM    3  C   UNL     1     -46.197  61.495 -51.017  1.00  0.00     0.009 A 
HETATM    4  C   UNL     1     -45.708  60.463 -50.217  1.00  0.00     0.002 A 
HETATM    5  C   UNL     1     -45.148  59.331 -50.807  1.00  0.00     0.017 A 
HETATM    6  C   UNL     1     -45.073  59.219 -52.203  1.00  0.00     0.033 A 
HETATM    7  C   UNL     1     -45.592  60.248 -53.004  1.00  0.00     0.026 A 
BRANCH   6   8
HETATM    8  C   UNL     1     -44.453  57.980 -52.769  1.00  0.00     0.257 C 
HETATM    9  N   UNL     1     -43.428  57.435 -52.027  1.00  0.00    -0.301 N 
HETATM   10  H   UNL     1     -43.156  57.845 -51.147  1.00  0.00     0.171 HD
HETATM   11  O   UNL     1     -44.915  57.535 -53.813  1.00  0.00    -0.267 OA
BRANCH   9  12
HETATM   12  C   UNL     1     -42.727  56.291 -52.317  1.00  0.00     0.174 A 
HETATM   13  N   UNL     1     -42.060  56.165 -53.446  1.00  0.00    -0.228 NA
HETATM   14  C   UNL     1     -41.445  54.935 -53.485  1.00  0.00     0.050 A 
HETATM   15  C   UNL     1     -40.608  54.516 -54.646  1.00  0.00     0.062 C 
HETATM   16  C   UNL     1     -41.629  54.155 -52.363  1.00  0.00     0.013 A 
HETATM   17  C   UNL     1     -40.308  53.002 -54.596  1.00  0.00     0.039 C 
HETATM   18  C   UNL     1     -39.918  52.556 -53.166  1.00  0.00     0.192 C 
HETATM   19  C   UNL     1     -41.064  52.794 -52.148  1.00  0.00     0.081 C 
HETATM   20  S   UNL     1     -42.638  54.953 -51.256  1.00  0.00    -0.055 SA
BRANCH  18  21
HETATM   21  N   UNL     1     -39.424  51.107 -53.176  1.00  0.00    -0.074 N 
HETATM   22  C   UNL     1     -39.463  50.473 -51.805  1.00  0.00     0.269 C 
HETATM   23  H   UNL     1     -38.424  51.155 -53.416  1.00  0.00     0.279 HD
HETATM   24  C   UNL     1     -40.042  50.197 -54.207  1.00  0.00     0.269 C 
ENDBRANCH  18  21
ENDBRANCH   9  12
ENDBRANCH   6   8
ENDBRANCH   1   2
BRANCH   1  25
HETATM   25  N   UNL     1     -47.585  61.980 -54.281  1.00  0.00    -0.351 N 
HETATM   26  C   UNL     1     -48.251  62.819 -55.148  1.00  0.00     0.274 C 
HETATM   27  O   UNL     1     -48.022  64.022 -55.208  1.00  0.00    -0.266 OA
HETATM   28  H   UNL     1     -47.914  61.023 -54.213  1.00  0.00     0.163 HD
BRANCH  26  29
HETATM   29  C   UNL     1     -49.258  62.135 -55.952  1.00  0.00     0.177 A 
HETATM   30  N   UNL     1     -48.940  61.542 -57.147  1.00  0.00    -0.124 NA
HETATM   31  N   UNL     1     -50.036  61.007 -57.651  1.00  0.00    -0.058 NA
HETATM   32  N   UNL     1     -51.075  61.211 -56.786  1.00  0.00    -0.188 N 
HETATM   33  C   UNL     1     -50.614  61.969 -55.702  1.00  0.00     0.109 A 
BRANCH  32  34
HETATM   34  C   UNL     1     -52.361  60.671 -57.041  1.00  0.00     0.230 A 
HETATM   35  N   UNL     1     -53.083  61.059 -58.092  1.00  0.00    -0.081 NA
HETATM   36  O   UNL     1     -54.265  60.331 -57.983  1.00  0.00    -0.103 OA
HETATM   37  N   UNL     1     -54.248  59.507 -56.862  1.00  0.00    -0.083 NA
HETATM   38  C   UNL     1     -53.068  59.718 -56.282  1.00  0.00     0.201 A 
BRANCH  38  39
HETATM   39  N   UNL     1     -52.653  59.098 -55.162  1.00  0.00    -0.379 N 
HETATM   40  H   UNL     1     -52.338  58.135 -55.212  1.00  0.00     0.158 HD
HETATM   41  H   UNL     1     -52.944  59.408 -54.237  1.00  0.00     0.158 HD
ENDBRANCH  38  39
ENDBRANCH  32  34
BRANCH  33  42
HETATM   42  C   UNL     1     -51.434  62.465 -54.602  1.00  0.00    -0.005 A 
HETATM   43  C   UNL     1     -52.287  63.559 -54.789  1.00  0.00     0.014 A 
HETATM   44  C   UNL     1     -53.076  64.026 -53.735  1.00  0.00     0.001 A 
HETATM   45  C   UNL     1     -53.020  63.402 -52.490  1.00  0.00     0.000 A 
HETATM   46  C   UNL     1     -52.180  62.306 -52.298  1.00  0.00     0.001 A 
HETATM   47  C   UNL     1     -51.394  61.835 -53.350  1.00  0.00     0.014 A 
ENDBRANCH  33  42
ENDBRANCH  26  29
ENDBRANCH   1  25
TORSDOF 9
ENDMDL
MODEL 7
REMARK VINA RESULT:      -8.1      3.204      6.422
REMARK  9 active torsions:
REMARK  status: ('A' for Active; 'I' for Inactive)
REMARK    1  A    between atoms: N_2  and  C_5 
REMARK    2  A    between atoms: C_10  and  N_11 
REMARK       I    between atoms: N_11  and  C_12 
REMARK    3  A    between atoms: C_12  and  C_14 
REMARK    4  A    between atoms: C_18  and  C_19 
REMARK    5  A    between atoms: C_19  and  N_20 
REMARK       I    between atoms: N_20  and  C_21 
REMARK    6  A    between atoms: C_21  and  C_23 
REMARK    7  A    between atoms: N_26  and  C_34 
REMARK    8  A    between atoms: C_27  and  C_28 
REMARK    9  A    between atoms: C_38  and  N_39 
ROOT
HETATM    1  C   UNL     1     -46.753  61.113 -57.749  1.00  0.00     0.161 C 
ENDROOT
BRANCH   1   2
HETATM    2  C   UNL     1     -46.182  59.760 -58.086  1.00  0.00    -0.040 A 
HETATM    3  C   UNL     1     -46.640  59.067 -59.216  1.00  0.00     0.009 A 
HETATM    4  C   UNL     1     -46.096  57.830 -59.557  1.00  0.00     0.002 A 
HETATM    5  C   UNL     1     -45.096  57.267 -58.765  1.00  0.00     0.017 A 
HETATM    6  C   UNL     1     -44.630  57.937 -57.625  1.00  0.00     0.033 A 
HETATM    7  C   UNL     1     -45.162  59.195 -57.301  1.00  0.00     0.026 A 
BRANCH   6   8
HETATM    8  C   UNL     1     -43.561  57.273 -56.816  1.00  0.00     0.257 C 
HETATM    9  N   UNL     1     -43.964  56.181 -56.079  1.00  0.00    -0.301 N 
HETATM   10  H   UNL     1     -44.916  55.851 -56.126  1.00  0.00     0.171 HD
HETATM   11  O   UNL     1     -42.423  57.722 -56.891  1.00  0.00    -0.267 OA
BRANCH   9  12
HETATM   12  C   UNL     1     -43.169  55.389 -55.287  1.00  0.00     0.174 A 
HETATM   13  N   UNL     1     -42.086  54.811 -55.766  1.00  0.00    -0.228 NA
HETATM   14  C   UNL     1     -41.474  54.083 -54.772  1.00  0.00     0.050 A 
HETATM   15  C   UNL     1     -40.214  53.326 -55.022  1.00  0.00     0.062 C 
HETATM   16  C   UNL     1     -42.087  54.147 -53.540  1.00  0.00     0.013 A 
HETATM   17  C   UNL     1     -39.915  52.349 -53.865  1.00  0.00     0.039 C 
HETATM   18  C   UNL     1     -40.147  53.022 -52.491  1.00  0.00     0.192 C 
HETATM   19  C   UNL     1     -41.621  53.464 -52.301  1.00  0.00     0.081 C 
HETATM   20  S   UNL     1     -43.492  55.094 -53.634  1.00  0.00    -0.055 SA
BRANCH  18  21
HETATM   21  N   UNL     1     -39.649  52.114 -51.362  1.00  0.00    -0.074 N 
HETATM   22  C   UNL     1     -40.448  52.281 -50.091  1.00  0.00     0.269 C 
HETATM   23  H   UNL     1     -38.706  52.453 -51.129  1.00  0.00     0.279 HD
HETATM   24  C   UNL     1     -39.479  50.655 -51.702  1.00  0.00     0.269 C 
ENDBRANCH  18  21
ENDBRANCH   9  12
ENDBRANCH   6   8
ENDBRANCH   1   2
BRANCH   1  25
HETATM   25  N   UNL     1     -47.025  61.223 -56.340  1.00  0.00    -0.351 N 
HETATM   26  C   UNL     1     -46.361  62.143 -55.558  1.00  0.00     0.274 C 
HETATM   27  O   UNL     1     -45.629  63.006 -56.032  1.00  0.00    -0.266 OA
HETATM   28  H   UNL     1     -47.516  60.474 -55.863  1.00  0.00     0.163 HD
BRANCH  26  29
HETATM   29  C   UNL     1     -46.599  61.964 -54.130  1.00  0.00     0.177 A 
HETATM   30  N   UNL     1     -47.709  62.484 -53.517  1.00  0.00    -0.124 NA
HETATM   31  N   UNL     1     -47.662  62.171 -52.236  1.00  0.00    -0.058 NA
HETATM   32  N   UNL     1     -46.545  61.420 -51.997  1.00  0.00    -0.188 N 
HETATM   33  C   UNL     1     -45.819  61.303 -53.189  1.00  0.00     0.109 A 
BRANCH  32  34
HETATM   34  C   UNL     1     -46.284  60.879 -50.712  1.00  0.00     0.230 A 
HETATM   35  N   UNL     1     -46.242  59.563 -50.507  1.00  0.00    -0.081 NA
HETATM   36  O   UNL     1     -45.989  59.437 -49.143  1.00  0.00    -0.103 OA
HETATM   37  N   UNL     1     -45.882  60.683 -48.533  1.00  0.00    -0.083 NA
HETATM   38  C   UNL     1     -46.064  61.573 -49.507  1.00  0.00     0.201 A 
BRANCH  38  39
HETATM   39  N   UNL     1     -46.028  62.907 -49.329  1.00  0.00    -0.379 N 
HETATM   40  H   UNL     1     -45.248  63.439 -49.702  1.00  0.00     0.158 HD
HETATM   41  H   UNL     1     -46.539  63.363 -48.577  1.00  0.00     0.158 HD
ENDBRANCH  38  39
ENDBRANCH  32  34
BRANCH  33  42
HETATM   42  C   UNL     1     -44.526  60.644 -53.335  1.00  0.00    -0.005 A 
HETATM   43  C   UNL     1     -43.342  61.392 -53.320  1.00  0.00     0.014 A 
HETATM   44  C   UNL     1     -42.106  60.756 -53.453  1.00  0.00     0.001 A 
HETATM   45  C   UNL     1     -42.044  59.371 -53.599  1.00  0.00     0.000 A 
HETATM   46  C   UNL     1     -43.217  58.618 -53.607  1.00  0.00     0.001 A 
HETATM   47  C   UNL     1     -44.454  59.251 -53.469  1.00  0.00     0.014 A 
ENDBRANCH  33  42
ENDBRANCH  26  29
ENDBRANCH   1  25
TORSDOF 9
ENDMDL
MODEL 8
REMARK VINA RESULT:      -8.0      1.684      2.255
REMARK  9 active torsions:
REMARK  status: ('A' for Active; 'I' for Inactive)
REMARK    1  A    between atoms: N_2  and  C_5 
REMARK    2  A    between atoms: C_10  and  N_11 
REMARK       I    between atoms: N_11  and  C_12 
REMARK    3  A    between atoms: C_12  and  C_14 
REMARK    4  A    between atoms: C_18  and  C_19 
REMARK    5  A    between atoms: C_19  and  N_20 
REMARK       I    between atoms: N_20  and  C_21 
REMARK    6  A    between atoms: C_21  and  C_23 
REMARK    7  A    between atoms: N_26  and  C_34 
REMARK    8  A    between atoms: C_27  and  C_28 
REMARK    9  A    between atoms: C_38  and  N_39 
ROOT
HETATM    1  C   UNL     1     -43.257  63.284 -55.370  1.00  0.00     0.161 C 
ENDROOT
BRANCH   1   2
HETATM    2  C   UNL     1     -43.380  62.491 -54.095  1.00  0.00    -0.040 A 
HETATM    3  C   UNL     1     -44.333  62.854 -53.132  1.00  0.00     0.009 A 
HETATM    4  C   UNL     1     -44.479  62.108 -51.964  1.00  0.00     0.002 A 
HETATM    5  C   UNL     1     -43.665  60.998 -51.740  1.00  0.00     0.017 A 
HETATM    6  C   UNL     1     -42.697  60.624 -52.684  1.00  0.00     0.033 A 
HETATM    7  C   UNL     1     -42.574  61.361 -53.871  1.00  0.00     0.026 A 
BRANCH   6   8
HETATM    8  C   UNL     1     -41.853  59.427 -52.376  1.00  0.00     0.257 C 
HETATM    9  N   UNL     1     -42.542  58.266 -52.105  1.00  0.00    -0.301 N 
HETATM   10  H   UNL     1     -43.549  58.243 -52.150  1.00  0.00     0.171 HD
HETATM   11  O   UNL     1     -40.635  59.560 -52.418  1.00  0.00    -0.267 OA
BRANCH   9  12
HETATM   12  C   UNL     1     -41.998  57.037 -51.827  1.00  0.00     0.174 A 
HETATM   13  N   UNL     1     -41.826  56.629 -50.586  1.00  0.00    -0.228 NA
HETATM   14  C   UNL     1     -41.273  55.370 -50.585  1.00  0.00     0.050 A 
HETATM   15  C   UNL     1     -40.974  54.648 -49.315  1.00  0.00     0.062 C 
HETATM   16  C   UNL     1     -41.062  54.825 -51.833  1.00  0.00     0.013 A 
HETATM   17  C   UNL     1     -40.075  53.421 -49.572  1.00  0.00     0.039 C 
HETATM   18  C   UNL     1     -40.553  52.628 -50.813  1.00  0.00     0.192 C 
HETATM   19  C   UNL     1     -40.489  53.478 -52.108  1.00  0.00     0.081 C 
HETATM   20  S   UNL     1     -41.515  55.930 -53.038  1.00  0.00    -0.055 SA
BRANCH  18  21
HETATM   21  N   UNL     1     -39.784  51.308 -50.930  1.00  0.00    -0.074 N 
HETATM   22  C   UNL     1     -40.365  50.221 -50.055  1.00  0.00     0.269 C 
HETATM   23  H   UNL     1     -38.851  51.493 -50.537  1.00  0.00     0.279 HD
HETATM   24  C   UNL     1     -39.538  50.799 -52.327  1.00  0.00     0.269 C 
ENDBRANCH  18  21
ENDBRANCH   9  12
ENDBRANCH   6   8
ENDBRANCH   1   2
BRANCH   1  25
HETATM   25  N   UNL     1     -43.020  62.419 -56.496  1.00  0.00    -0.351 N 
HETATM   26  C   UNL     1     -43.809  62.490 -57.624  1.00  0.00     0.274 C 
HETATM   27  O   UNL     1     -44.640  63.375 -57.794  1.00  0.00    -0.266 OA
HETATM   28  H   UNL     1     -42.442  61.593 -56.382  1.00  0.00     0.163 HD
BRANCH  26  29
HETATM   29  C   UNL     1     -43.569  61.400 -58.564  1.00  0.00     0.177 A 
HETATM   30  N   UNL     1     -43.240  61.641 -59.873  1.00  0.00    -0.124 NA
HETATM   31  N   UNL     1     -43.084  60.481 -60.483  1.00  0.00    -0.058 NA
HETATM   32  N   UNL     1     -43.277  59.470 -59.583  1.00  0.00    -0.188 N 
HETATM   33  C   UNL     1     -43.630  60.029 -58.349  1.00  0.00     0.109 A 
BRANCH  32  34
HETATM   34  C   UNL     1     -43.095  58.113 -59.953  1.00  0.00     0.230 A 
HETATM   35  N   UNL     1     -41.897  57.532 -59.895  1.00  0.00    -0.081 NA
HETATM   36  O   UNL     1     -42.124  56.235 -60.350  1.00  0.00    -0.103 OA
HETATM   37  N   UNL     1     -43.462  56.044 -60.682  1.00  0.00    -0.083 NA
HETATM   38  C   UNL     1     -44.060  57.207 -60.433  1.00  0.00     0.201 A 
BRANCH  38  39
HETATM   39  N   UNL     1     -45.374  57.437 -60.616  1.00  0.00    -0.379 N 
HETATM   40  H   UNL     1     -45.682  58.353 -60.926  1.00  0.00     0.158 HD
HETATM   41  H   UNL     1     -46.087  56.878 -60.153  1.00  0.00     0.158 HD
ENDBRANCH  38  39
ENDBRANCH  32  34
BRANCH  33  42
HETATM   42  C   UNL     1     -43.995  59.281 -57.150  1.00  0.00    -0.005 A 
HETATM   43  C   UNL     1     -43.131  58.311 -56.628  1.00  0.00     0.014 A 
HETATM   44  C   UNL     1     -43.482  57.604 -55.476  1.00  0.00     0.001 A 
HETATM   45  C   UNL     1     -44.695  57.861 -54.838  1.00  0.00     0.000 A 
HETATM   46  C   UNL     1     -45.556  58.831 -55.348  1.00  0.00     0.001 A 
HETATM   47  C   UNL     1     -45.207  59.543 -56.496  1.00  0.00     0.014 A 
ENDBRANCH  33  42
ENDBRANCH  26  29
ENDBRANCH   1  25
TORSDOF 9
ENDMDL
MODEL 9
REMARK VINA RESULT:      -8.0      1.994      2.382
REMARK  9 active torsions:
REMARK  status: ('A' for Active; 'I' for Inactive)
REMARK    1  A    between atoms: N_2  and  C_5 
REMARK    2  A    between atoms: C_10  and  N_11 
REMARK       I    between atoms: N_11  and  C_12 
REMARK    3  A    between atoms: C_12  and  C_14 
REMARK    4  A    between atoms: C_18  and  C_19 
REMARK    5  A    between atoms: C_19  and  N_20 
REMARK       I    between atoms: N_20  and  C_21 
REMARK    6  A    between atoms: C_21  and  C_23 
REMARK    7  A    between atoms: N_26  and  C_34 
REMARK    8  A    between atoms: C_27  and  C_28 
REMARK    9  A    between atoms: C_38  and  N_39 
ROOT
HETATM    1  C   UNL     1     -46.329  61.310 -52.852  1.00  0.00     0.161 C 
ENDROOT
BRANCH   1   2
HETATM    2  C   UNL     1     -45.136  61.096 -51.958  1.00  0.00    -0.040 A 
HETATM    3  C   UNL     1     -44.841  62.023 -50.947  1.00  0.00     0.009 A 
HETATM    4  C   UNL     1     -43.760  61.818 -50.092  1.00  0.00     0.002 A 
HETATM    5  C   UNL     1     -42.954  60.690 -50.246  1.00  0.00     0.017 A 
HETATM    6  C   UNL     1     -43.223  59.756 -51.256  1.00  0.00     0.033 A 
HETATM    7  C   UNL     1     -44.330  59.952 -52.097  1.00  0.00     0.026 A 
BRANCH   6   8
HETATM    8  C   UNL     1     -42.314  58.573 -51.369  1.00  0.00     0.257 C 
HETATM    9  N   UNL     1     -42.938  57.347 -51.437  1.00  0.00    -0.301 N 
HETATM   10  H   UNL     1     -43.945  57.281 -51.443  1.00  0.00     0.171 HD
HETATM   11  O   UNL     1     -41.108  58.781 -51.422  1.00  0.00    -0.267 OA
BRANCH   9  12
HETATM   12  C   UNL     1     -42.329  56.124 -51.575  1.00  0.00     0.174 A 
HETATM   13  N   UNL     1     -41.922  55.692 -52.751  1.00  0.00    -0.228 NA
HETATM   14  C   UNL     1     -41.345  54.451 -52.613  1.00  0.00     0.050 A 
HETATM   15  C   UNL     1     -40.782  53.716 -53.782  1.00  0.00     0.062 C 
HETATM   16  C   UNL     1     -41.293  53.972 -51.322  1.00  0.00     0.013 A 
HETATM   17  C   UNL     1     -40.497  52.242 -53.426  1.00  0.00     0.039 C 
HETATM   18  C   UNL     1     -39.814  52.123 -52.042  1.00  0.00     0.192 C 
HETATM   19  C   UNL     1     -40.711  52.667 -50.901  1.00  0.00     0.081 C 
HETATM   20  S   UNL     1     -42.030  55.072 -50.261  1.00  0.00    -0.055 SA
BRANCH  18  21
HETATM   21  N   UNL     1     -39.352  50.683 -51.798  1.00  0.00    -0.074 N 
HETATM   22  C   UNL     1     -39.888  50.114 -50.505  1.00  0.00     0.269 C 
HETATM   23  H   UNL     1     -38.333  50.737 -51.661  1.00  0.00     0.279 HD
HETATM   24  C   UNL     1     -39.552  49.714 -52.935  1.00  0.00     0.269 C 
ENDBRANCH  18  21
ENDBRANCH   9  12
ENDBRANCH   6   8
ENDBRANCH   1   2
BRANCH   1  25
HETATM   25  N   UNL     1     -46.128  60.695 -54.139  1.00  0.00    -0.351 N 
HETATM   26  C   UNL     1     -46.169  61.442 -55.297  1.00  0.00     0.274 C 
HETATM   27  O   UNL     1     -46.224  62.666 -55.290  1.00  0.00    -0.266 OA
HETATM   28  H   UNL     1     -46.200  59.687 -54.230  1.00  0.00     0.163 HD
BRANCH  26  29
HETATM   29  C   UNL     1     -46.167  60.627 -56.507  1.00  0.00     0.177 A 
HETATM   30  N   UNL     1     -47.182  60.706 -57.426  1.00  0.00    -0.124 NA
HETATM   31  N   UNL     1     -46.920  59.864 -58.408  1.00  0.00    -0.058 NA
HETATM   32  N   UNL     1     -45.724  59.247 -58.164  1.00  0.00    -0.188 N 
HETATM   33  C   UNL     1     -45.235  59.688 -56.929  1.00  0.00     0.109 A 
BRANCH  32  34
HETATM   34  C   UNL     1     -45.159  58.345 -59.101  1.00  0.00     0.230 A 
HETATM   35  N   UNL     1     -43.973  58.576 -59.662  1.00  0.00    -0.081 NA
HETATM   36  O   UNL     1     -43.783  57.496 -60.521  1.00  0.00    -0.103 OA
HETATM   37  N   UNL     1     -44.862  56.619 -60.473  1.00  0.00    -0.083 NA
HETATM   38  C   UNL     1     -45.711  57.146 -59.593  1.00  0.00     0.201 A 
BRANCH  38  39
HETATM   39  N   UNL     1     -46.888  56.590 -59.250  1.00  0.00    -0.379 N 
HETATM   40  H   UNL     1     -47.128  56.493 -58.269  1.00  0.00     0.158 HD
HETATM   41  H   UNL     1     -47.393  55.969 -59.879  1.00  0.00     0.158 HD
ENDBRANCH  38  39
ENDBRANCH  32  34
BRANCH  33  42
HETATM   42  C   UNL     1     -44.022  59.207 -56.274  1.00  0.00    -0.005 A 
HETATM   43  C   UNL     1     -43.039  60.110 -55.850  1.00  0.00     0.014 A 
HETATM   44  C   UNL     1     -41.884  59.645 -55.217  1.00  0.00     0.001 A 
HETATM   45  C   UNL     1     -41.705  58.280 -55.002  1.00  0.00     0.000 A 
HETATM   46  C   UNL     1     -42.683  57.376 -55.413  1.00  0.00     0.001 A 
HETATM   47  C   UNL     1     -43.840  57.837 -56.042  1.00  0.00     0.014 A 
ENDBRANCH  33  42
ENDBRANCH  26  29
ENDBRANCH   1  25
TORSDOF 9
ENDMDL
MODEL 10
REMARK VINA RESULT:      -7.8      3.228      9.320
REMARK  9 active torsions:
REMARK  status: ('A' for Active; 'I' for Inactive)
REMARK    1  A    between atoms: N_2  and  C_5 
REMARK    2  A    between atoms: C_10  and  N_11 
REMARK       I    between atoms: N_11  and  C_12 
REMARK    3  A    between atoms: C_12  and  C_14 
REMARK    4  A    between atoms: C_18  and  C_19 
REMARK    5  A    between atoms: C_19  and  N_20 
REMARK       I    between atoms: N_20  and  C_21 
REMARK    6  A    between atoms: C_21  and  C_23 
REMARK    7  A    between atoms: N_26  and  C_34 
REMARK    8  A    between atoms: C_27  and  C_28 
REMARK    9  A    between atoms: C_38  and  N_39 
ROOT
HETATM    1  C   UNL     1     -41.668  54.549 -51.251  1.00  0.00     0.161 C 
ENDROOT
BRANCH   1   2
HETATM    2  C   UNL     1     -41.329  54.307 -52.699  1.00  0.00    -0.040 A 
HETATM    3  C   UNL     1     -40.324  53.391 -53.041  1.00  0.00     0.009 A 
HETATM    4  C   UNL     1     -40.025  53.134 -54.377  1.00  0.00     0.002 A 
HETATM    5  C   UNL     1     -40.719  53.799 -55.387  1.00  0.00     0.017 A 
HETATM    6  C   UNL     1     -41.720  54.728 -55.068  1.00  0.00     0.033 A 
HETATM    7  C   UNL     1     -42.037  54.962 -53.722  1.00  0.00     0.026 A 
BRANCH   6   8
HETATM    8  C   UNL     1     -42.419  55.411 -56.201  1.00  0.00     0.257 C 
HETATM    9  N   UNL     1     -42.103  56.739 -56.382  1.00  0.00    -0.301 N 
HETATM   10  H   UNL     1     -41.415  57.189 -55.797  1.00  0.00     0.171 HD
HETATM   11  O   UNL     1     -43.184  54.744 -56.888  1.00  0.00    -0.267 OA
BRANCH   9  12
HETATM   12  C   UNL     1     -42.583  57.570 -57.364  1.00  0.00     0.174 A 
HETATM   13  N   UNL     1     -41.787  58.397 -58.010  1.00  0.00    -0.228 NA
HETATM   14  C   UNL     1     -42.513  59.107 -58.939  1.00  0.00     0.050 A 
HETATM   15  C   UNL     1     -41.870  60.116 -59.828  1.00  0.00     0.062 C 
HETATM   16  C   UNL     1     -43.851  58.781 -59.006  1.00  0.00     0.013 A 
HETATM   17  C   UNL     1     -42.930  60.988 -60.534  1.00  0.00     0.039 C 
HETATM   18  C   UNL     1     -44.098  60.126 -61.069  1.00  0.00     0.192 C 
HETATM   19  C   UNL     1     -44.848  59.389 -59.930  1.00  0.00     0.081 C 
HETATM   20  S   UNL     1     -44.224  57.600 -57.846  1.00  0.00    -0.055 SA
BRANCH  18  21
HETATM   21  N   UNL     1     -45.029  60.972 -61.943  1.00  0.00    -0.074 N 
HETATM   22  C   UNL     1     -44.547  61.074 -63.372  1.00  0.00     0.269 C 
HETATM   23  H   UNL     1     -44.963  61.930 -61.573  1.00  0.00     0.279 HD
HETATM   24  C   UNL     1     -46.494  60.622 -61.894  1.00  0.00     0.269 C 
ENDBRANCH  18  21
ENDBRANCH   9  12
ENDBRANCH   6   8
ENDBRANCH   1   2
BRANCH   1  25
HETATM   25  N   UNL     1     -42.296  55.833 -51.075  1.00  0.00    -0.351 N 
HETATM   26  C   UNL     1     -43.654  55.936 -50.864  1.00  0.00     0.274 C 
HETATM   27  O   UNL     1     -44.367  54.958 -50.665  1.00  0.00    -0.266 OA
HETATM   28  H   UNL     1     -41.801  56.675 -51.345  1.00  0.00     0.163 HD
BRANCH  26  29
HETATM   29  C   UNL     1     -44.145  57.308 -50.929  1.00  0.00     0.177 A 
HETATM   30  N   UNL     1     -45.461  57.611 -50.697  1.00  0.00    -0.124 NA
HETATM   31  N   UNL     1     -45.617  58.916 -50.825  1.00  0.00    -0.058 NA
HETATM   32  N   UNL     1     -44.407  59.487 -51.109  1.00  0.00    -0.188 N 
HETATM   33  C   UNL     1     -43.448  58.474 -51.222  1.00  0.00     0.109 A 
BRANCH  32  34
HETATM   34  C   UNL     1     -44.268  60.894 -51.221  1.00  0.00     0.230 A 
HETATM   35  N   UNL     1     -43.947  61.471 -52.378  1.00  0.00    -0.081 NA
HETATM   36  O   UNL     1     -43.886  62.830 -52.078  1.00  0.00    -0.103 OA
HETATM   37  N   UNL     1     -44.170  63.063 -50.736  1.00  0.00    -0.083 NA
HETATM   38  C   UNL     1     -44.407  61.863 -50.209  1.00  0.00     0.201 A 
BRANCH  38  39
HETATM   39  N   UNL     1     -44.732  61.654 -48.919  1.00  0.00    -0.379 N 
HETATM   40  H   UNL     1     -44.163  62.067 -48.188  1.00  0.00     0.158 HD
HETATM   41  H   UNL     1     -45.292  60.855 -48.629  1.00  0.00     0.158 HD
ENDBRANCH  38  39
ENDBRANCH  32  34
BRANCH  33  42
HETATM   42  C   UNL     1     -42.050  58.665 -51.594  1.00  0.00    -0.005 A 
HETATM   43  C   UNL     1     -41.108  59.061 -50.638  1.00  0.00     0.014 A 
HETATM   44  C   UNL     1     -39.770  59.235 -50.998  1.00  0.00     0.001 A 
HETATM   45  C   UNL     1     -39.364  59.012 -52.312  1.00  0.00     0.000 A 
HETATM   46  C   UNL     1     -40.294  58.609 -53.269  1.00  0.00     0.001 A 
HETATM   47  C   UNL     1     -41.631  58.429 -52.911  1.00  0.00     0.014 A 
ENDBRANCH  33  42
ENDBRANCH  26  29
ENDBRANCH   1  25
TORSDOF 9
ENDMDL
