MODEL 1
REMARK VINA RESULT:      -9.6      0.000      0.000
REMARK  9 active torsions:
REMARK  status: ('A' for Active; 'I' for Inactive)
REMARK    1  A    between atoms: C_6  and  N_7 
REMARK    2  A    between atoms: C_6  and  C_31 
REMARK       I    between atoms: N_7  and  C_8 
REMARK    3  A    between atoms: N_7  and  C_23 
REMARK    4  A    between atoms: C_8  and  C_9 
REMARK    5  A    between atoms: C_9  and  N_10 
REMARK    6  A    between atoms: C_14  and  C_15 
REMARK    7  A    between atoms: C_23  and  C_24 
REMARK       I    between atoms: C_31  and  N_32 
REMARK    8  A    between atoms: N_32  and  C_33 
REMARK    9  A    between atoms: C_36  and  O_37 
ROOT
HETATM    1  N   UNL     1     -43.423  57.741 -54.368  1.00  0.00    -0.328 N 
HETATM    2  C   UNL     1     -43.656  56.354 -54.311  1.00  0.00     0.239 C 
HETATM    3  O   UNL     1     -43.880  55.701 -55.336  1.00  0.00    -0.271 OA
ENDROOT
BRANCH   1   4
HETATM    4  C   UNL     1     -43.378  58.439 -55.721  1.00  0.00     0.120 C 
HETATM    5  C   UNL     1     -43.312  59.985 -55.552  1.00  0.00     0.069 C 
HETATM    6  C   UNL     1     -43.122  60.706 -56.878  1.00  0.00     0.237 C 
HETATM    7  N   UNL     1     -41.855  60.220 -57.525  1.00  0.00    -0.075 N 
HETATM    8  C   UNL     1     -41.538  61.013 -58.767  1.00  0.00     0.269 C 
HETATM    9  H   UNL     1     -41.079  60.389 -56.866  1.00  0.00     0.279 HD
HETATM   10  C   UNL     1     -41.884  58.739 -57.812  1.00  0.00     0.237 C 
HETATM   11  C   UNL     1     -42.131  57.958 -56.522  1.00  0.00     0.069 C 
BRANCH   4  12
HETATM   12  C   UNL     1     -44.653  58.125 -56.603  1.00  0.00     0.251 C 
HETATM   13  N   UNL     1     -44.413  57.406 -57.757  1.00  0.00    -0.325 N 
HETATM   14  H   UNL     1     -43.455  57.166 -57.983  1.00  0.00     0.169 HD
HETATM   15  O   UNL     1     -45.771  58.447 -56.204  1.00  0.00    -0.270 OA
BRANCH  13  16
HETATM   16  C   UNL     1     -45.333  57.111 -58.788  1.00  0.00     0.035 A 
HETATM   17  C   UNL     1     -46.437  57.905 -59.104  1.00  0.00     0.032 A 
HETATM   18  C   UNL     1     -47.234  57.604 -60.215  1.00  0.00     0.039 A 
HETATM   19  C   UNL     1     -46.939  56.500 -61.013  1.00  0.00     0.068 A 
HETATM   20  C   UNL     1     -45.874  55.673 -60.668  1.00  0.00     0.039 A 
HETATM   21  C   UNL     1     -45.065  55.984 -59.574  1.00  0.00     0.032 A 
BRANCH  19  22
HETATM   22  O   UNL     1     -47.640  56.128 -62.124  1.00  0.00    -0.356 OA
HETATM   23  C   UNL     1     -48.779  56.934 -62.412  1.00  0.00     0.210 C 
ENDBRANCH  19  22
ENDBRANCH  13  16
ENDBRANCH   4  12
ENDBRANCH   1   4
BRANCH   1  24
HETATM   24  C   UNL     1     -43.660  58.564 -53.159  1.00  0.00     0.169 C 
BRANCH  24  25
HETATM   25  C   UNL     1     -42.425  58.901 -52.364  1.00  0.00    -0.002 A 
HETATM   26  C   UNL     1     -42.592  59.523 -51.119  1.00  0.00     0.124 A 
HETATM   27  F   UNL     1     -43.828  59.821 -50.692  1.00  0.00    -0.205 F 
HETATM   28  C   UNL     1     -41.508  59.861 -50.318  1.00  0.00     0.043 A 
HETATM   29  C   UNL     1     -40.218  59.561 -50.746  1.00  0.00     0.003 A 
HETATM   30  C   UNL     1     -40.024  58.922 -51.969  1.00  0.00     0.001 A 
HETATM   31  C   UNL     1     -41.119  58.590 -52.774  1.00  0.00     0.012 A 
ENDBRANCH  24  25
ENDBRANCH   1  24
BRANCH   2  32
HETATM   32  C   UNL     1     -43.605  55.622 -52.955  1.00  0.00     0.228 C 
BRANCH  32  33
HETATM   33  N   UNL     1     -42.412  54.824 -52.693  1.00  0.00    -0.347 N 
HETATM   34  C   UNL     1     -41.547  54.984 -51.610  1.00  0.00     0.171 A 
HETATM   35  S   UNL     1     -41.748  55.883 -50.238  1.00  0.00    -0.041 SA
HETATM   36  N   UNL     1     -40.413  54.237 -51.846  1.00  0.00    -0.357 N 
HETATM   37  C   UNL     1     -40.404  53.643 -53.160  1.00  0.00     0.135 A 
HETATM   38  H   UNL     1     -39.625  54.235 -51.210  1.00  0.00     0.162 HD
HETATM   39  C   UNL     1     -41.779  54.027 -53.740  1.00  0.00     0.155 A 
BRANCH  37  40
HETATM   40  C   UNL     1     -40.121  52.162 -53.092  1.00  0.00    -0.034 A 
HETATM   41  C   UNL     1     -39.736  51.543 -51.892  1.00  0.00     0.009 A 
HETATM   42  C   UNL     1     -39.450  50.176 -51.855  1.00  0.00     0.001 A 
HETATM   43  C   UNL     1     -39.545  49.413 -53.016  1.00  0.00     0.000 A 
HETATM   44  C   UNL     1     -39.925  50.012 -54.214  1.00  0.00     0.001 A 
HETATM   45  C   UNL     1     -40.212  51.378 -54.253  1.00  0.00     0.009 A 
ENDBRANCH  37  40
ENDBRANCH  32  33
ENDBRANCH   2  32
TORSDOF 9
ENDMDL
MODEL 2
REMARK VINA RESULT:      -9.0      3.009      8.844
REMARK  9 active torsions:
REMARK  status: ('A' for Active; 'I' for Inactive)
REMARK    1  A    between atoms: C_6  and  N_7 
REMARK    2  A    between atoms: C_6  and  C_31 
REMARK       I    between atoms: N_7  and  C_8 
REMARK    3  A    between atoms: N_7  and  C_23 
REMARK    4  A    between atoms: C_8  and  C_9 
REMARK    5  A    between atoms: C_9  and  N_10 
REMARK    6  A    between atoms: C_14  and  C_15 
REMARK    7  A    between atoms: C_23  and  C_24 
REMARK       I    between atoms: C_31  and  N_32 
REMARK    8  A    between atoms: N_32  and  C_33 
REMARK    9  A    between atoms: C_36  and  O_37 
ROOT
HETATM    1  N   UNL     1     -43.718  56.971 -55.112  1.00  0.00    -0.328 N 
HETATM    2  C   UNL     1     -43.025  56.445 -56.218  1.00  0.00     0.239 C 
HETATM    3  O   UNL     1     -41.807  56.242 -56.172  1.00  0.00    -0.271 OA
ENDROOT
BRANCH   1   4
HETATM    4  C   UNL     1     -42.969  57.229 -53.810  1.00  0.00     0.120 C 
HETATM    5  C   UNL     1     -41.663  58.036 -54.068  1.00  0.00     0.069 C 
HETATM    6  C   UNL     1     -40.964  58.434 -52.776  1.00  0.00     0.237 C 
HETATM    7  N   UNL     1     -41.905  59.257 -51.941  1.00  0.00    -0.075 N 
HETATM    8  C   UNL     1     -41.212  59.807 -50.721  1.00  0.00     0.269 C 
HETATM    9  H   UNL     1     -42.196  60.073 -52.503  1.00  0.00     0.279 HD
HETATM   10  C   UNL     1     -43.157  58.502 -51.567  1.00  0.00     0.237 C 
HETATM   11  C   UNL     1     -43.878  58.023 -52.826  1.00  0.00     0.069 C 
BRANCH   4  12
HETATM   12  C   UNL     1     -42.547  55.888 -53.084  1.00  0.00     0.251 C 
HETATM   13  N   UNL     1     -41.290  55.413 -53.400  1.00  0.00    -0.325 N 
HETATM   14  H   UNL     1     -40.745  55.918 -54.090  1.00  0.00     0.169 HD
HETATM   15  O   UNL     1     -43.289  55.385 -52.243  1.00  0.00    -0.270 OA
BRANCH  13  16
HETATM   16  C   UNL     1     -40.719  54.180 -53.014  1.00  0.00     0.035 A 
HETATM   17  C   UNL     1     -40.440  53.825 -51.693  1.00  0.00     0.032 A 
HETATM   18  C   UNL     1     -39.981  52.538 -51.385  1.00  0.00     0.039 A 
HETATM   19  C   UNL     1     -39.788  51.600 -52.397  1.00  0.00     0.068 A 
HETATM   20  C   UNL     1     -40.009  51.968 -53.721  1.00  0.00     0.039 A 
HETATM   21  C   UNL     1     -40.488  53.242 -54.028  1.00  0.00     0.032 A 
BRANCH  19  22
HETATM   22  O   UNL     1     -39.359  50.318 -52.204  1.00  0.00    -0.356 OA
HETATM   23  C   UNL     1     -39.516  49.828 -50.875  1.00  0.00     0.210 C 
ENDBRANCH  19  22
ENDBRANCH  13  16
ENDBRANCH   4  12
ENDBRANCH   1   4
BRANCH   1  24
HETATM   24  C   UNL     1     -45.009  57.664 -55.330  1.00  0.00     0.169 C 
BRANCH  24  25
HETATM   25  C   UNL     1     -44.928  58.922 -56.153  1.00  0.00    -0.002 A 
HETATM   26  C   UNL     1     -45.899  59.126 -57.143  1.00  0.00     0.124 A 
HETATM   27  F   UNL     1     -46.842  58.194 -57.343  1.00  0.00    -0.205 F 
HETATM   28  C   UNL     1     -45.903  60.263 -57.943  1.00  0.00     0.043 A 
HETATM   29  C   UNL     1     -44.931  61.241 -57.750  1.00  0.00     0.003 A 
HETATM   30  C   UNL     1     -43.967  61.075 -56.757  1.00  0.00     0.001 A 
HETATM   31  C   UNL     1     -43.965  59.925 -55.961  1.00  0.00     0.012 A 
ENDBRANCH  24  25
ENDBRANCH   1  24
BRANCH   2  32
HETATM   32  C   UNL     1     -43.793  56.086 -57.506  1.00  0.00     0.228 C 
BRANCH  32  33
HETATM   33  N   UNL     1     -43.685  57.032 -58.611  1.00  0.00    -0.347 N 
HETATM   34  C   UNL     1     -44.462  57.023 -59.771  1.00  0.00     0.171 A 
HETATM   35  S   UNL     1     -45.836  56.165 -60.099  1.00  0.00    -0.041 SA
HETATM   36  N   UNL     1     -43.896  57.890 -60.680  1.00  0.00    -0.357 N 
HETATM   37  C   UNL     1     -42.637  58.425 -60.226  1.00  0.00     0.135 A 
HETATM   38  H   UNL     1     -44.270  58.014 -61.613  1.00  0.00     0.162 HD
HETATM   39  C   UNL     1     -42.493  57.855 -58.801  1.00  0.00     0.155 A 
BRANCH  37  40
HETATM   40  C   UNL     1     -42.611  59.931 -60.325  1.00  0.00    -0.034 A 
HETATM   41  C   UNL     1     -41.679  60.698 -59.608  1.00  0.00     0.009 A 
HETATM   42  C   UNL     1     -41.690  62.093 -59.690  1.00  0.00     0.001 A 
HETATM   43  C   UNL     1     -42.632  62.736 -60.488  1.00  0.00     0.000 A 
HETATM   44  C   UNL     1     -43.564  61.990 -61.204  1.00  0.00     0.001 A 
HETATM   45  C   UNL     1     -43.554  60.595 -61.124  1.00  0.00     0.009 A 
ENDBRANCH  37  40
ENDBRANCH  32  33
ENDBRANCH   2  32
TORSDOF 9
ENDMDL
MODEL 3
REMARK VINA RESULT:      -9.0      1.872      2.618
REMARK  9 active torsions:
REMARK  status: ('A' for Active; 'I' for Inactive)
REMARK    1  A    between atoms: C_6  and  N_7 
REMARK    2  A    between atoms: C_6  and  C_31 
REMARK       I    between atoms: N_7  and  C_8 
REMARK    3  A    between atoms: N_7  and  C_23 
REMARK    4  A    between atoms: C_8  and  C_9 
REMARK    5  A    between atoms: C_9  and  N_10 
REMARK    6  A    between atoms: C_14  and  C_15 
REMARK    7  A    between atoms: C_23  and  C_24 
REMARK       I    between atoms: C_31  and  N_32 
REMARK    8  A    between atoms: N_32  and  C_33 
REMARK    9  A    between atoms: C_36  and  O_37 
ROOT
HETATM    1  N   UNL     1     -43.441  58.314 -52.729  1.00  0.00    -0.328 N 
HETATM    2  C   UNL     1     -44.042  57.043 -52.790  1.00  0.00     0.239 C 
HETATM    3  O   UNL     1     -44.793  56.735 -53.721  1.00  0.00    -0.271 OA
ENDROOT
BRANCH   1   4
HETATM    4  C   UNL     1     -43.666  59.305 -53.865  1.00  0.00     0.120 C 
HETATM    5  C   UNL     1     -45.178  59.633 -54.031  1.00  0.00     0.069 C 
HETATM    6  C   UNL     1     -45.425  60.725 -55.061  1.00  0.00     0.237 C 
HETATM    7  N   UNL     1     -44.687  61.967 -54.646  1.00  0.00    -0.075 N 
HETATM    8  C   UNL     1     -45.021  63.128 -55.549  1.00  0.00     0.269 C 
HETATM    9  H   UNL     1     -45.014  62.229 -53.703  1.00  0.00     0.279 HD
HETATM   10  C   UNL     1     -43.196  61.752 -54.559  1.00  0.00     0.237 C 
HETATM   11  C   UNL     1     -42.884  60.622 -53.579  1.00  0.00     0.069 C 
BRANCH   4  12
HETATM   12  C   UNL     1     -43.158  58.749 -55.256  1.00  0.00     0.251 C 
HETATM   13  N   UNL     1     -44.143  58.284 -56.104  1.00  0.00    -0.325 N 
HETATM   14  H   UNL     1     -45.102  58.291 -55.775  1.00  0.00     0.169 HD
HETATM   15  O   UNL     1     -41.966  58.823 -55.549  1.00  0.00    -0.270 OA
BRANCH  13  16
HETATM   16  C   UNL     1     -43.967  57.611 -57.334  1.00  0.00     0.035 A 
HETATM   17  C   UNL     1     -43.325  56.379 -57.467  1.00  0.00     0.032 A 
HETATM   18  C   UNL     1     -43.293  55.725 -58.705  1.00  0.00     0.039 A 
HETATM   19  C   UNL     1     -43.896  56.304 -59.821  1.00  0.00     0.068 A 
HETATM   20  C   UNL     1     -44.487  57.558 -59.705  1.00  0.00     0.039 A 
HETATM   21  C   UNL     1     -44.539  58.201 -58.468  1.00  0.00     0.032 A 
BRANCH  19  22
HETATM   22  O   UNL     1     -43.936  55.744 -61.066  1.00  0.00    -0.356 OA
HETATM   23  C   UNL     1     -45.078  54.933 -61.323  1.00  0.00     0.210 C 
ENDBRANCH  19  22
ENDBRANCH  13  16
ENDBRANCH   4  12
ENDBRANCH   1   4
BRANCH   1  24
HETATM   24  C   UNL     1     -42.984  58.836 -51.420  1.00  0.00     0.169 C 
BRANCH  24  25
HETATM   25  C   UNL     1     -41.495  59.030 -51.295  1.00  0.00    -0.002 A 
HETATM   26  C   UNL     1     -41.011  59.702 -50.164  1.00  0.00     0.124 A 
HETATM   27  F   UNL     1     -41.878  60.170 -49.254  1.00  0.00    -0.205 F 
HETATM   28  C   UNL     1     -39.652  59.917 -49.966  1.00  0.00     0.043 A 
HETATM   29  C   UNL     1     -38.738  59.439 -50.900  1.00  0.00     0.003 A 
HETATM   30  C   UNL     1     -39.190  58.748 -52.022  1.00  0.00     0.001 A 
HETATM   31  C   UNL     1     -40.559  58.540 -52.219  1.00  0.00     0.012 A 
ENDBRANCH  24  25
ENDBRANCH   1  24
BRANCH   2  32
HETATM   32  C   UNL     1     -43.740  55.998 -51.697  1.00  0.00     0.228 C 
BRANCH  32  33
HETATM   33  N   UNL     1     -42.514  55.224 -51.859  1.00  0.00    -0.347 N 
HETATM   34  C   UNL     1     -41.409  55.261 -51.008  1.00  0.00     0.171 A 
HETATM   35  S   UNL     1     -41.270  55.938 -49.506  1.00  0.00    -0.041 SA
HETATM   36  N   UNL     1     -40.363  54.608 -51.625  1.00  0.00    -0.357 N 
HETATM   37  C   UNL     1     -40.676  54.216 -52.977  1.00  0.00     0.135 A 
HETATM   38  H   UNL     1     -39.443  54.547 -51.208  1.00  0.00     0.162 HD
HETATM   39  C   UNL     1     -42.155  54.619 -53.139  1.00  0.00     0.155 A 
BRANCH  37  40
HETATM   40  C   UNL     1     -40.376  52.755 -53.208  1.00  0.00    -0.034 A 
HETATM   41  C   UNL     1     -40.715  52.117 -54.413  1.00  0.00     0.009 A 
HETATM   42  C   UNL     1     -40.455  50.757 -54.597  1.00  0.00     0.001 A 
HETATM   43  C   UNL     1     -39.855  50.018 -53.581  1.00  0.00     0.000 A 
HETATM   44  C   UNL     1     -39.514  50.635 -52.380  1.00  0.00     0.001 A 
HETATM   45  C   UNL     1     -39.772  51.995 -52.194  1.00  0.00     0.009 A 
ENDBRANCH  37  40
ENDBRANCH  32  33
ENDBRANCH   2  32
TORSDOF 9
ENDMDL
MODEL 4
REMARK VINA RESULT:      -9.0      3.179      8.958
REMARK  9 active torsions:
REMARK  status: ('A' for Active; 'I' for Inactive)
REMARK    1  A    between atoms: C_6  and  N_7 
REMARK    2  A    between atoms: C_6  and  C_31 
REMARK       I    between atoms: N_7  and  C_8 
REMARK    3  A    between atoms: N_7  and  C_23 
REMARK    4  A    between atoms: C_8  and  C_9 
REMARK    5  A    between atoms: C_9  and  N_10 
REMARK    6  A    between atoms: C_14  and  C_15 
REMARK    7  A    between atoms: C_23  and  C_24 
REMARK       I    between atoms: C_31  and  N_32 
REMARK    8  A    between atoms: N_32  and  C_33 
REMARK    9  A    between atoms: C_36  and  O_37 
ROOT
HETATM    1  N   UNL     1     -43.637  57.665 -55.122  1.00  0.00    -0.328 N 
HETATM    2  C   UNL     1     -44.844  58.383 -55.016  1.00  0.00     0.239 C 
HETATM    3  O   UNL     1     -45.146  58.975 -53.975  1.00  0.00    -0.271 OA
ENDROOT
BRANCH   1   4
HETATM    4  C   UNL     1     -42.654  57.676 -53.957  1.00  0.00     0.120 C 
HETATM    5  C   UNL     1     -41.820  58.990 -53.941  1.00  0.00     0.069 C 
HETATM    6  C   UNL     1     -40.930  59.096 -52.712  1.00  0.00     0.237 C 
HETATM    7  N   UNL     1     -41.786  59.031 -51.478  1.00  0.00    -0.075 N 
HETATM    8  C   UNL     1     -40.972  59.287 -50.235  1.00  0.00     0.269 C 
HETATM    9  H   UNL     1     -42.479  59.794 -51.534  1.00  0.00     0.279 HD
HETATM   10  C   UNL     1     -42.553  57.736 -51.374  1.00  0.00     0.237 C 
HETATM   11  C   UNL     1     -43.427  57.542 -52.612  1.00  0.00     0.069 C 
BRANCH   4  12
HETATM   12  C   UNL     1     -41.624  56.476 -54.030  1.00  0.00     0.251 C 
HETATM   13  N   UNL     1     -42.052  55.293 -53.462  1.00  0.00    -0.325 N 
HETATM   14  H   UNL     1     -42.959  55.278 -53.010  1.00  0.00     0.169 HD
HETATM   15  O   UNL     1     -40.562  56.614 -54.634  1.00  0.00    -0.270 OA
BRANCH  13  16
HETATM   16  C   UNL     1     -41.295  54.117 -53.261  1.00  0.00     0.035 A 
HETATM   17  C   UNL     1     -40.695  53.771 -52.049  1.00  0.00     0.032 A 
HETATM   18  C   UNL     1     -40.058  52.531 -51.901  1.00  0.00     0.039 A 
HETATM   19  C   UNL     1     -40.010  51.635 -52.967  1.00  0.00     0.068 A 
HETATM   20  C   UNL     1     -40.557  52.000 -54.194  1.00  0.00     0.039 A 
HETATM   21  C   UNL     1     -41.211  53.225 -54.337  1.00  0.00     0.032 A 
BRANCH  19  22
HETATM   22  O   UNL     1     -39.430  50.399 -52.924  1.00  0.00    -0.356 OA
HETATM   23  C   UNL     1     -39.484  49.668 -54.145  1.00  0.00     0.210 C 
ENDBRANCH  19  22
ENDBRANCH  13  16
ENDBRANCH   4  12
ENDBRANCH   1   4
BRANCH   1  24
HETATM   24  C   UNL     1     -43.523  56.585 -56.129  1.00  0.00     0.169 C 
BRANCH  24  25
HETATM   25  C   UNL     1     -42.867  56.986 -57.425  1.00  0.00    -0.002 A 
HETATM   26  C   UNL     1     -43.048  56.156 -58.539  1.00  0.00     0.124 A 
HETATM   27  F   UNL     1     -43.766  55.031 -58.414  1.00  0.00    -0.205 F 
HETATM   28  C   UNL     1     -42.484  56.456 -59.774  1.00  0.00     0.043 A 
HETATM   29  C   UNL     1     -41.734  57.619 -59.923  1.00  0.00     0.003 A 
HETATM   30  C   UNL     1     -41.558  58.474 -58.837  1.00  0.00     0.001 A 
HETATM   31  C   UNL     1     -42.123  58.164 -57.595  1.00  0.00     0.012 A 
ENDBRANCH  24  25
ENDBRANCH   1  24
BRANCH   2  32
HETATM   32  C   UNL     1     -45.799  58.461 -56.224  1.00  0.00     0.228 C 
BRANCH  32  33
HETATM   33  N   UNL     1     -45.495  59.476 -57.227  1.00  0.00    -0.347 N 
HETATM   34  C   UNL     1     -45.766  60.840 -57.112  1.00  0.00     0.171 A 
HETATM   35  S   UNL     1     -46.229  61.704 -55.781  1.00  0.00    -0.041 SA
HETATM   36  N   UNL     1     -45.584  61.425 -58.347  1.00  0.00    -0.357 N 
HETATM   37  C   UNL     1     -45.310  60.459 -59.382  1.00  0.00     0.135 A 
HETATM   38  H   UNL     1     -45.765  62.407 -58.512  1.00  0.00     0.162 HD
HETATM   39  C   UNL     1     -45.230  59.122 -58.619  1.00  0.00     0.155 A 
BRANCH  37  40
HETATM   40  C   UNL     1     -44.075  60.829 -60.166  1.00  0.00    -0.034 A 
HETATM   41  C   UNL     1     -43.845  60.326 -61.457  1.00  0.00     0.009 A 
HETATM   42  C   UNL     1     -42.682  60.658 -62.155  1.00  0.00     0.001 A 
HETATM   43  C   UNL     1     -41.734  61.494 -61.573  1.00  0.00     0.000 A 
HETATM   44  C   UNL     1     -41.945  62.000 -60.292  1.00  0.00     0.001 A 
HETATM   45  C   UNL     1     -43.108  61.671 -59.593  1.00  0.00     0.009 A 
ENDBRANCH  37  40
ENDBRANCH  32  33
ENDBRANCH   2  32
TORSDOF 9
ENDMDL
MODEL 5
REMARK VINA RESULT:      -8.9      3.052      8.985
REMARK  9 active torsions:
REMARK  status: ('A' for Active; 'I' for Inactive)
REMARK    1  A    between atoms: C_6  and  N_7 
REMARK    2  A    between atoms: C_6  and  C_31 
REMARK       I    between atoms: N_7  and  C_8 
REMARK    3  A    between atoms: N_7  and  C_23 
REMARK    4  A    between atoms: C_8  and  C_9 
REMARK    5  A    between atoms: C_9  and  N_10 
REMARK    6  A    between atoms: C_14  and  C_15 
REMARK    7  A    between atoms: C_23  and  C_24 
REMARK       I    between atoms: C_31  and  N_32 
REMARK    8  A    between atoms: N_32  and  C_33 
REMARK    9  A    between atoms: C_36  and  O_37 
ROOT
HETATM    1  N   UNL     1     -42.868  58.033 -54.410  1.00  0.00    -0.328 N 
HETATM    2  C   UNL     1     -42.614  59.021 -55.380  1.00  0.00     0.239 C 
HETATM    3  O   UNL     1     -42.602  60.220 -55.084  1.00  0.00    -0.271 OA
ENDROOT
BRANCH   1   4
HETATM    4  C   UNL     1     -43.063  58.443 -52.955  1.00  0.00     0.120 C 
HETATM    5  C   UNL     1     -41.987  59.478 -52.517  1.00  0.00     0.069 C 
HETATM    6  C   UNL     1     -42.238  60.016 -51.116  1.00  0.00     0.237 C 
HETATM    7  N   UNL     1     -43.596  60.657 -51.071  1.00  0.00    -0.075 N 
HETATM    8  C   UNL     1     -43.832  61.343 -49.749  1.00  0.00     0.269 C 
HETATM    9  H   UNL     1     -43.620  61.397 -51.790  1.00  0.00     0.279 HD
HETATM   10  C   UNL     1     -44.705  59.686 -51.390  1.00  0.00     0.237 C 
HETATM   11  C   UNL     1     -44.480  59.065 -52.767  1.00  0.00     0.069 C 
BRANCH   4  12
HETATM   12  C   UNL     1     -42.953  57.214 -51.965  1.00  0.00     0.251 C 
HETATM   13  N   UNL     1     -41.671  56.874 -51.584  1.00  0.00    -0.325 N 
HETATM   14  H   UNL     1     -40.897  57.392 -51.983  1.00  0.00     0.169 HD
HETATM   15  O   UNL     1     -43.973  56.684 -51.528  1.00  0.00    -0.270 OA
BRANCH  13  16
HETATM   16  C   UNL     1     -41.273  55.746 -50.831  1.00  0.00     0.035 A 
HETATM   17  C   UNL     1     -41.266  55.699 -49.436  1.00  0.00     0.032 A 
HETATM   18  C   UNL     1     -40.967  54.505 -48.767  1.00  0.00     0.039 A 
HETATM   19  C   UNL     1     -40.664  53.352 -49.489  1.00  0.00     0.068 A 
HETATM   20  C   UNL     1     -40.614  53.410 -50.879  1.00  0.00     0.039 A 
HETATM   21  C   UNL     1     -40.933  54.592 -51.548  1.00  0.00     0.032 A 
BRANCH  19  22
HETATM   22  O   UNL     1     -40.374  52.137 -48.938  1.00  0.00    -0.356 OA
HETATM   23  C   UNL     1     -40.395  51.044 -49.851  1.00  0.00     0.210 C 
ENDBRANCH  19  22
ENDBRANCH  13  16
ENDBRANCH   4  12
ENDBRANCH   1   4
BRANCH   1  24
HETATM   24  C   UNL     1     -43.371  56.708 -54.841  1.00  0.00     0.169 C 
BRANCH  24  25
HETATM   25  C   UNL     1     -42.346  55.604 -54.840  1.00  0.00    -0.002 A 
HETATM   26  C   UNL     1     -42.799  54.284 -54.706  1.00  0.00     0.124 A 
HETATM   27  F   UNL     1     -44.110  54.049 -54.557  1.00  0.00    -0.205 F 
HETATM   28  C   UNL     1     -41.921  53.206 -54.703  1.00  0.00     0.043 A 
HETATM   29  C   UNL     1     -40.556  53.431 -54.855  1.00  0.00     0.003 A 
HETATM   30  C   UNL     1     -40.081  54.732 -55.014  1.00  0.00     0.001 A 
HETATM   31  C   UNL     1     -40.968  55.813 -55.010  1.00  0.00     0.012 A 
ENDBRANCH  24  25
ENDBRANCH   1  24
BRANCH   2  32
HETATM   32  C   UNL     1     -42.316  58.608 -56.836  1.00  0.00     0.228 C 
BRANCH  32  33
HETATM   33  N   UNL     1     -43.354  58.898 -57.819  1.00  0.00    -0.347 N 
HETATM   34  C   UNL     1     -43.293  59.889 -58.799  1.00  0.00     0.171 A 
HETATM   35  S   UNL     1     -41.999  60.791 -59.292  1.00  0.00    -0.041 SA
HETATM   36  N   UNL     1     -44.548  60.032 -59.351  1.00  0.00    -0.357 N 
HETATM   37  C   UNL     1     -45.544  59.237 -58.677  1.00  0.00     0.135 A 
HETATM   38  H   UNL     1     -44.751  60.728 -60.059  1.00  0.00     0.162 HD
HETATM   39  C   UNL     1     -44.730  58.444 -57.636  1.00  0.00     0.155 A 
BRANCH  37  40
HETATM   40  C   UNL     1     -46.333  58.400 -59.654  1.00  0.00    -0.034 A 
HETATM   41  C   UNL     1     -47.197  58.987 -60.593  1.00  0.00     0.009 A 
HETATM   42  C   UNL     1     -47.942  58.195 -61.470  1.00  0.00     0.001 A 
HETATM   43  C   UNL     1     -47.832  56.808 -61.419  1.00  0.00     0.000 A 
HETATM   44  C   UNL     1     -46.981  56.210 -60.492  1.00  0.00     0.001 A 
HETATM   45  C   UNL     1     -46.236  57.001 -59.616  1.00  0.00     0.009 A 
ENDBRANCH  37  40
ENDBRANCH  32  33
ENDBRANCH   2  32
TORSDOF 9
ENDMDL
MODEL 6
REMARK VINA RESULT:      -8.9      2.869      8.437
REMARK  9 active torsions:
REMARK  status: ('A' for Active; 'I' for Inactive)
REMARK    1  A    between atoms: C_6  and  N_7 
REMARK    2  A    between atoms: C_6  and  C_31 
REMARK       I    between atoms: N_7  and  C_8 
REMARK    3  A    between atoms: N_7  and  C_23 
REMARK    4  A    between atoms: C_8  and  C_9 
REMARK    5  A    between atoms: C_9  and  N_10 
REMARK    6  A    between atoms: C_14  and  C_15 
REMARK    7  A    between atoms: C_23  and  C_24 
REMARK       I    between atoms: C_31  and  N_32 
REMARK    8  A    between atoms: N_32  and  C_33 
REMARK    9  A    between atoms: C_36  and  O_37 
ROOT
HETATM    1  N   UNL     1     -43.670  57.658 -54.865  1.00  0.00    -0.328 N 
HETATM    2  C   UNL     1     -43.094  57.153 -56.046  1.00  0.00     0.239 C 
HETATM    3  O   UNL     1     -41.932  56.733 -56.062  1.00  0.00    -0.271 OA
ENDROOT
BRANCH   1   4
HETATM    4  C   UNL     1     -42.873  57.621 -53.566  1.00  0.00     0.120 C 
HETATM    5  C   UNL     1     -41.515  58.366 -53.722  1.00  0.00     0.069 C 
HETATM    6  C   UNL     1     -40.758  58.471 -52.407  1.00  0.00     0.237 C 
HETATM    7  N   UNL     1     -41.613  59.194 -51.404  1.00  0.00    -0.075 N 
HETATM    8  C   UNL     1     -40.852  59.463 -50.131  1.00  0.00     0.269 C 
HETATM    9  H   UNL     1     -41.853  60.117 -51.799  1.00  0.00     0.279 HD
HETATM   10  C   UNL     1     -42.910  58.475 -51.126  1.00  0.00     0.237 C 
HETATM   11  C   UNL     1     -43.695  58.286 -52.422  1.00  0.00     0.069 C 
BRANCH   4  12
HETATM   12  C   UNL     1     -42.539  56.143 -53.108  1.00  0.00     0.251 C 
HETATM   13  N   UNL     1     -41.268  55.701 -53.417  1.00  0.00    -0.325 N 
HETATM   14  H   UNL     1     -40.657  56.318 -53.939  1.00  0.00     0.169 HD
HETATM   15  O   UNL     1     -43.359  55.503 -52.453  1.00  0.00    -0.270 OA
BRANCH  13  16
HETATM   16  C   UNL     1     -40.755  54.394 -53.256  1.00  0.00     0.035 A 
HETATM   17  C   UNL     1     -40.463  53.814 -52.020  1.00  0.00     0.032 A 
HETATM   18  C   UNL     1     -40.066  52.473 -51.940  1.00  0.00     0.039 A 
HETATM   19  C   UNL     1     -39.948  51.706 -53.098  1.00  0.00     0.068 A 
HETATM   20  C   UNL     1     -40.182  52.297 -54.337  1.00  0.00     0.039 A 
HETATM   21  C   UNL     1     -40.599  53.626 -54.416  1.00  0.00     0.032 A 
BRANCH  19  22
HETATM   22  O   UNL     1     -39.585  50.390 -53.130  1.00  0.00    -0.356 OA
HETATM   23  C   UNL     1     -39.596  49.797 -54.426  1.00  0.00     0.210 C 
ENDBRANCH  19  22
ENDBRANCH  13  16
ENDBRANCH   4  12
ENDBRANCH   1   4
BRANCH   1  24
HETATM   24  C   UNL     1     -44.817  58.590 -54.959  1.00  0.00     0.169 C 
BRANCH  24  25
HETATM   25  C   UNL     1     -44.449  60.047 -55.072  1.00  0.00    -0.002 A 
HETATM   26  C   UNL     1     -45.141  60.964 -54.269  1.00  0.00     0.124 A 
HETATM   27  F   UNL     1     -46.114  60.528 -53.458  1.00  0.00    -0.205 F 
HETATM   28  C   UNL     1     -44.859  62.325 -54.304  1.00  0.00     0.043 A 
HETATM   29  C   UNL     1     -43.851  62.797 -55.142  1.00  0.00     0.003 A 
HETATM   30  C   UNL     1     -43.132  61.903 -55.933  1.00  0.00     0.001 A 
HETATM   31  C   UNL     1     -43.425  60.536 -55.897  1.00  0.00     0.012 A 
ENDBRANCH  24  25
ENDBRANCH   1  24
BRANCH   2  32
HETATM   32  C   UNL     1     -43.928  57.094 -57.342  1.00  0.00     0.228 C 
BRANCH  32  33
HETATM   33  N   UNL     1     -43.693  58.155 -58.314  1.00  0.00    -0.347 N 
HETATM   34  C   UNL     1     -44.679  58.893 -58.970  1.00  0.00     0.171 A 
HETATM   35  S   UNL     1     -46.301  58.975 -58.657  1.00  0.00    -0.041 SA
HETATM   36  N   UNL     1     -44.085  59.603 -59.990  1.00  0.00    -0.357 N 
HETATM   37  C   UNL     1     -42.691  59.275 -60.154  1.00  0.00     0.135 A 
HETATM   38  H   UNL     1     -44.619  60.180 -60.629  1.00  0.00     0.162 HD
HETATM   39  C   UNL     1     -42.410  58.295 -58.998  1.00  0.00     0.155 A 
BRANCH  37  40
HETATM   40  C   UNL     1     -41.832  60.516 -60.173  1.00  0.00    -0.034 A 
HETATM   41  C   UNL     1     -41.327  61.077 -58.988  1.00  0.00     0.009 A 
HETATM   42  C   UNL     1     -40.558  62.243 -59.023  1.00  0.00     0.001 A 
HETATM   43  C   UNL     1     -40.287  62.863 -60.240  1.00  0.00     0.000 A 
HETATM   44  C   UNL     1     -40.783  62.321 -61.423  1.00  0.00     0.001 A 
HETATM   45  C   UNL     1     -41.550  61.154 -61.391  1.00  0.00     0.009 A 
ENDBRANCH  37  40
ENDBRANCH  32  33
ENDBRANCH   2  32
TORSDOF 9
ENDMDL
MODEL 7
REMARK VINA RESULT:      -8.7      1.949      2.928
REMARK  9 active torsions:
REMARK  status: ('A' for Active; 'I' for Inactive)
REMARK    1  A    between atoms: C_6  and  N_7 
REMARK    2  A    between atoms: C_6  and  C_31 
REMARK       I    between atoms: N_7  and  C_8 
REMARK    3  A    between atoms: N_7  and  C_23 
REMARK    4  A    between atoms: C_8  and  C_9 
REMARK    5  A    between atoms: C_9  and  N_10 
REMARK    6  A    between atoms: C_14  and  C_15 
REMARK    7  A    between atoms: C_23  and  C_24 
REMARK       I    between atoms: C_31  and  N_32 
REMARK    8  A    between atoms: N_32  and  C_33 
REMARK    9  A    between atoms: C_36  and  O_37 
ROOT
HETATM    1  N   UNL     1     -43.300  58.296 -52.929  1.00  0.00    -0.328 N 
HETATM    2  C   UNL     1     -43.992  57.070 -52.931  1.00  0.00     0.239 C 
HETATM    3  O   UNL     1     -44.807  56.797 -53.818  1.00  0.00    -0.271 OA
ENDROOT
BRANCH   1   4
HETATM    4  C   UNL     1     -43.508  59.276 -54.077  1.00  0.00     0.120 C 
HETATM    5  C   UNL     1     -45.008  59.671 -54.211  1.00  0.00     0.069 C 
HETATM    6  C   UNL     1     -45.230  60.755 -55.255  1.00  0.00     0.237 C 
HETATM    7  N   UNL     1     -44.425  61.969 -54.883  1.00  0.00    -0.075 N 
HETATM    8  C   UNL     1     -44.729  63.127 -55.798  1.00  0.00     0.269 C 
HETATM    9  H   UNL     1     -44.715  62.263 -53.936  1.00  0.00     0.279 HD
HETATM   10  C   UNL     1     -42.944  61.686 -54.829  1.00  0.00     0.237 C 
HETATM   11  C   UNL     1     -42.659  60.560 -53.836  1.00  0.00     0.069 C 
BRANCH   4  12
HETATM   12  C   UNL     1     -43.063  58.672 -55.470  1.00  0.00     0.251 C 
HETATM   13  N   UNL     1     -44.076  58.116 -56.225  1.00  0.00    -0.325 N 
HETATM   14  H   UNL     1     -45.011  58.093 -55.834  1.00  0.00     0.169 HD
HETATM   15  O   UNL     1     -41.899  58.788 -55.846  1.00  0.00    -0.270 OA
BRANCH  13  16
HETATM   16  C   UNL     1     -43.945  57.388 -57.429  1.00  0.00     0.035 A 
HETATM   17  C   UNL     1     -43.149  56.250 -57.573  1.00  0.00     0.032 A 
HETATM   18  C   UNL     1     -43.164  55.520 -58.769  1.00  0.00     0.039 A 
HETATM   19  C   UNL     1     -43.968  55.928 -59.831  1.00  0.00     0.068 A 
HETATM   20  C   UNL     1     -44.719  57.094 -59.712  1.00  0.00     0.039 A 
HETATM   21  C   UNL     1     -44.723  57.810 -58.514  1.00  0.00     0.032 A 
BRANCH  19  22
HETATM   22  O   UNL     1     -44.068  55.281 -61.030  1.00  0.00    -0.356 OA
HETATM   23  C   UNL     1     -45.388  55.200 -61.559  1.00  0.00     0.210 C 
ENDBRANCH  19  22
ENDBRANCH  13  16
ENDBRANCH   4  12
ENDBRANCH   1   4
BRANCH   1  24
HETATM   24  C   UNL     1     -42.744  58.812 -51.656  1.00  0.00     0.169 C 
BRANCH  24  25
HETATM   25  C   UNL     1     -43.684  59.670 -50.850  1.00  0.00    -0.002 A 
HETATM   26  C   UNL     1     -43.165  60.821 -50.241  1.00  0.00     0.124 A 
HETATM   27  F   UNL     1     -41.861  61.104 -50.369  1.00  0.00    -0.205 F 
HETATM   28  C   UNL     1     -43.964  61.673 -49.486  1.00  0.00     0.043 A 
HETATM   29  C   UNL     1     -45.320  61.394 -49.341  1.00  0.00     0.003 A 
HETATM   30  C   UNL     1     -45.866  60.269 -49.955  1.00  0.00     0.001 A 
HETATM   31  C   UNL     1     -45.056  59.413 -50.708  1.00  0.00     0.012 A 
ENDBRANCH  24  25
ENDBRANCH   1  24
BRANCH   2  32
HETATM   32  C   UNL     1     -43.712  56.030 -51.827  1.00  0.00     0.228 C 
BRANCH  32  33
HETATM   33  N   UNL     1     -42.481  55.259 -51.957  1.00  0.00    -0.347 N 
HETATM   34  C   UNL     1     -41.359  55.371 -51.136  1.00  0.00     0.171 A 
HETATM   35  S   UNL     1     -41.197  56.159 -49.692  1.00  0.00    -0.041 SA
HETATM   36  N   UNL     1     -40.318  54.685 -51.725  1.00  0.00    -0.357 N 
HETATM   37  C   UNL     1     -40.655  54.190 -53.037  1.00  0.00     0.135 A 
HETATM   38  H   UNL     1     -39.389  54.665 -51.324  1.00  0.00     0.162 HD
HETATM   39  C   UNL     1     -42.141  54.564 -53.196  1.00  0.00     0.155 A 
BRANCH  37  40
HETATM   40  C   UNL     1     -40.341  52.719 -53.166  1.00  0.00    -0.034 A 
HETATM   41  C   UNL     1     -40.623  52.008 -54.344  1.00  0.00     0.009 A 
HETATM   42  C   UNL     1     -40.353  50.641 -54.434  1.00  0.00     0.001 A 
HETATM   43  C   UNL     1     -39.798  49.968 -53.348  1.00  0.00     0.000 A 
HETATM   44  C   UNL     1     -39.514  50.658 -52.172  1.00  0.00     0.001 A 
HETATM   45  C   UNL     1     -39.783  52.025 -52.081  1.00  0.00     0.009 A 
ENDBRANCH  37  40
ENDBRANCH  32  33
ENDBRANCH   2  32
TORSDOF 9
ENDMDL
MODEL 8
REMARK VINA RESULT:      -8.6      3.062      8.894
REMARK  9 active torsions:
REMARK  status: ('A' for Active; 'I' for Inactive)
REMARK    1  A    between atoms: C_6  and  N_7 
REMARK    2  A    between atoms: C_6  and  C_31 
REMARK       I    between atoms: N_7  and  C_8 
REMARK    3  A    between atoms: N_7  and  C_23 
REMARK    4  A    between atoms: C_8  and  C_9 
REMARK    5  A    between atoms: C_9  and  N_10 
REMARK    6  A    between atoms: C_14  and  C_15 
REMARK    7  A    between atoms: C_23  and  C_24 
REMARK       I    between atoms: C_31  and  N_32 
REMARK    8  A    between atoms: N_32  and  C_33 
REMARK    9  A    between atoms: C_36  and  O_37 
ROOT
HETATM    1  N   UNL     1     -42.458  58.627 -56.252  1.00  0.00    -0.328 N 
HETATM    2  C   UNL     1     -42.394  57.684 -57.295  1.00  0.00     0.239 C 
HETATM    3  O   UNL     1     -42.535  56.477 -57.074  1.00  0.00    -0.271 OA
ENDROOT
BRANCH   1   4
HETATM    4  C   UNL     1     -42.775  58.160 -54.836  1.00  0.00     0.120 C 
HETATM    5  C   UNL     1     -42.802  59.359 -53.844  1.00  0.00     0.069 C 
HETATM    6  C   UNL     1     -43.255  58.948 -52.451  1.00  0.00     0.237 C 
HETATM    7  N   UNL     1     -44.627  58.340 -52.539  1.00  0.00    -0.075 N 
HETATM    8  C   UNL     1     -45.187  58.057 -51.169  1.00  0.00     0.269 C 
HETATM    9  H   UNL     1     -45.254  59.037 -52.971  1.00  0.00     0.279 HD
HETATM   10  C   UNL     1     -44.659  57.108 -53.410  1.00  0.00     0.237 C 
HETATM   11  C   UNL     1     -44.158  57.444 -54.814  1.00  0.00     0.069 C 
BRANCH   4  12
HETATM   12  C   UNL     1     -41.703  57.132 -54.289  1.00  0.00     0.251 C 
HETATM   13  N   UNL     1     -42.051  55.801 -54.398  1.00  0.00    -0.325 N 
HETATM   14  H   UNL     1     -42.964  55.571 -54.774  1.00  0.00     0.169 HD
HETATM   15  O   UNL     1     -40.616  57.536 -53.881  1.00  0.00    -0.270 OA
BRANCH  13  16
HETATM   16  C   UNL     1     -41.357  54.689 -53.869  1.00  0.00     0.035 A 
HETATM   17  C   UNL     1     -41.277  54.392 -52.507  1.00  0.00     0.032 A 
HETATM   18  C   UNL     1     -40.667  53.207 -52.074  1.00  0.00     0.039 A 
HETATM   19  C   UNL     1     -40.125  52.317 -52.999  1.00  0.00     0.068 A 
HETATM   20  C   UNL     1     -40.152  52.637 -54.353  1.00  0.00     0.039 A 
HETATM   21  C   UNL     1     -40.779  53.806 -54.789  1.00  0.00     0.032 A 
BRANCH  19  22
HETATM   22  O   UNL     1     -39.524  51.132 -52.684  1.00  0.00    -0.356 OA
HETATM   23  C   UNL     1     -39.707  50.094 -53.643  1.00  0.00     0.210 C 
ENDBRANCH  19  22
ENDBRANCH  13  16
ENDBRANCH   4  12
ENDBRANCH   1   4
BRANCH   1  24
HETATM   24  C   UNL     1     -41.806  59.946 -56.428  1.00  0.00     0.169 C 
BRANCH  24  25
HETATM   25  C   UNL     1     -42.684  61.018 -57.020  1.00  0.00    -0.002 A 
HETATM   26  C   UNL     1     -42.077  62.003 -57.812  1.00  0.00     0.124 A 
HETATM   27  F   UNL     1     -40.749  61.977 -57.993  1.00  0.00    -0.205 F 
HETATM   28  C   UNL     1     -42.814  63.023 -58.403  1.00  0.00     0.043 A 
HETATM   29  C   UNL     1     -44.193  63.066 -58.225  1.00  0.00     0.003 A 
HETATM   30  C   UNL     1     -44.825  62.086 -57.461  1.00  0.00     0.001 A 
HETATM   31  C   UNL     1     -44.078  61.066 -56.864  1.00  0.00     0.012 A 
ENDBRANCH  24  25
ENDBRANCH   1  24
BRANCH   2  32
HETATM   32  C   UNL     1     -42.174  58.158 -58.745  1.00  0.00     0.228 C 
BRANCH  32  33
HETATM   33  N   UNL     1     -43.360  58.598 -59.472  1.00  0.00    -0.347 N 
HETATM   34  C   UNL     1     -43.404  59.628 -60.412  1.00  0.00     0.171 A 
HETATM   35  S   UNL     1     -42.155  60.426 -61.145  1.00  0.00    -0.041 SA
HETATM   36  N   UNL     1     -44.725  59.919 -60.676  1.00  0.00    -0.357 N 
HETATM   37  C   UNL     1     -45.633  59.189 -59.828  1.00  0.00     0.135 A 
HETATM   38  H   UNL     1     -44.999  60.667 -61.302  1.00  0.00     0.162 HD
HETATM   39  C   UNL     1     -44.706  58.268 -59.011  1.00  0.00     0.155 A 
BRANCH  37  40
HETATM   40  C   UNL     1     -46.695  58.484 -60.636  1.00  0.00    -0.034 A 
HETATM   41  C   UNL     1     -46.802  57.083 -60.646  1.00  0.00     0.009 A 
HETATM   42  C   UNL     1     -47.772  56.448 -61.425  1.00  0.00     0.001 A 
HETATM   43  C   UNL     1     -48.646  57.203 -62.202  1.00  0.00     0.000 A 
HETATM   44  C   UNL     1     -48.552  58.593 -62.205  1.00  0.00     0.001 A 
HETATM   45  C   UNL     1     -47.583  59.230 -61.427  1.00  0.00     0.009 A 
ENDBRANCH  37  40
ENDBRANCH  32  33
ENDBRANCH   2  32
TORSDOF 9
ENDMDL
MODEL 9
REMARK VINA RESULT:      -8.3      2.897      5.385
REMARK  9 active torsions:
REMARK  status: ('A' for Active; 'I' for Inactive)
REMARK    1  A    between atoms: C_6  and  N_7 
REMARK    2  A    between atoms: C_6  and  C_31 
REMARK       I    between atoms: N_7  and  C_8 
REMARK    3  A    between atoms: N_7  and  C_23 
REMARK    4  A    between atoms: C_8  and  C_9 
REMARK    5  A    between atoms: C_9  and  N_10 
REMARK    6  A    between atoms: C_14  and  C_15 
REMARK    7  A    between atoms: C_23  and  C_24 
REMARK       I    between atoms: C_31  and  N_32 
REMARK    8  A    between atoms: N_32  and  C_33 
REMARK    9  A    between atoms: C_36  and  O_37 
ROOT
HETATM    1  N   UNL     1     -44.068  58.032 -54.190  1.00  0.00    -0.328 N 
HETATM    2  C   UNL     1     -43.177  57.071 -53.678  1.00  0.00     0.239 C 
HETATM    3  O   UNL     1     -42.152  57.406 -53.074  1.00  0.00    -0.271 OA
ENDROOT
BRANCH   1   4
HETATM    4  C   UNL     1     -43.803  59.512 -53.936  1.00  0.00     0.120 C 
HETATM    5  C   UNL     1     -45.100  60.352 -54.117  1.00  0.00     0.069 C 
HETATM    6  C   UNL     1     -44.903  61.811 -53.733  1.00  0.00     0.237 C 
HETATM    7  N   UNL     1     -44.454  61.886 -52.301  1.00  0.00    -0.075 N 
HETATM    8  C   UNL     1     -44.394  63.314 -51.822  1.00  0.00     0.269 C 
HETATM    9  H   UNL     1     -45.167  61.415 -51.720  1.00  0.00     0.279 HD
HETATM   10  C   UNL     1     -43.145  61.173 -52.067  1.00  0.00     0.237 C 
HETATM   11  C   UNL     1     -43.260  59.710 -52.490  1.00  0.00     0.069 C 
BRANCH   4  12
HETATM   12  C   UNL     1     -42.724  60.107 -54.930  1.00  0.00     0.251 C 
HETATM   13  N   UNL     1     -43.221  60.936 -55.915  1.00  0.00    -0.325 N 
HETATM   14  H   UNL     1     -44.223  61.076 -55.966  1.00  0.00     0.169 HD
HETATM   15  O   UNL     1     -41.529  59.884 -54.745  1.00  0.00    -0.270 OA
BRANCH  13  16
HETATM   16  C   UNL     1     -42.513  61.485 -57.008  1.00  0.00     0.035 A 
HETATM   17  C   UNL     1     -41.628  60.763 -57.810  1.00  0.00     0.032 A 
HETATM   18  C   UNL     1     -41.055  61.352 -58.945  1.00  0.00     0.039 A 
HETATM   19  C   UNL     1     -41.356  62.671 -59.279  1.00  0.00     0.068 A 
HETATM   20  C   UNL     1     -42.193  63.413 -58.450  1.00  0.00     0.039 A 
HETATM   21  C   UNL     1     -42.782  62.821 -57.332  1.00  0.00     0.032 A 
BRANCH  19  22
HETATM   22  O   UNL     1     -40.866  63.334 -60.368  1.00  0.00    -0.356 OA
HETATM   23  C   UNL     1     -39.865  64.306 -60.078  1.00  0.00     0.210 C 
ENDBRANCH  19  22
ENDBRANCH  13  16
ENDBRANCH   4  12
ENDBRANCH   1   4
BRANCH   1  24
HETATM   24  C   UNL     1     -44.972  57.661 -55.303  1.00  0.00     0.169 C 
BRANCH  24  25
HETATM   25  C   UNL     1     -44.363  57.747 -56.678  1.00  0.00    -0.002 A 
HETATM   26  C   UNL     1     -45.012  58.536 -57.638  1.00  0.00     0.124 A 
HETATM   27  F   UNL     1     -46.154  59.159 -57.316  1.00  0.00    -0.205 F 
HETATM   28  C   UNL     1     -44.513  58.677 -58.928  1.00  0.00     0.043 A 
HETATM   29  C   UNL     1     -43.328  58.036 -59.280  1.00  0.00     0.003 A 
HETATM   30  C   UNL     1     -42.650  57.265 -58.338  1.00  0.00     0.001 A 
HETATM   31  C   UNL     1     -43.160  57.122 -57.044  1.00  0.00     0.012 A 
ENDBRANCH  24  25
ENDBRANCH   1  24
BRANCH   2  32
HETATM   32  C   UNL     1     -43.489  55.570 -53.843  1.00  0.00     0.228 C 
BRANCH  32  33
HETATM   33  N   UNL     1     -42.580  54.641 -53.182  1.00  0.00    -0.347 N 
HETATM   34  C   UNL     1     -42.546  54.366 -51.815  1.00  0.00     0.171 A 
HETATM   35  S   UNL     1     -43.637  54.774 -50.642  1.00  0.00    -0.041 SA
HETATM   36  N   UNL     1     -41.398  53.655 -51.542  1.00  0.00    -0.357 N 
HETATM   37  C   UNL     1     -40.537  53.530 -52.692  1.00  0.00     0.135 A 
HETATM   38  H   UNL     1     -41.142  53.382 -50.601  1.00  0.00     0.162 HD
HETATM   39  C   UNL     1     -41.348  54.188 -53.825  1.00  0.00     0.155 A 
BRANCH  37  40
HETATM   40  C   UNL     1     -40.144  52.092 -52.930  1.00  0.00    -0.034 A 
HETATM   41  C   UNL     1     -40.177  51.525 -54.214  1.00  0.00     0.009 A 
HETATM   42  C   UNL     1     -39.837  50.184 -54.410  1.00  0.00     0.001 A 
HETATM   43  C   UNL     1     -39.461  49.395 -53.326  1.00  0.00     0.000 A 
HETATM   44  C   UNL     1     -39.424  49.942 -52.046  1.00  0.00     0.001 A 
HETATM   45  C   UNL     1     -39.763  51.283 -51.848  1.00  0.00     0.009 A 
ENDBRANCH  37  40
ENDBRANCH  32  33
ENDBRANCH   2  32
TORSDOF 9
ENDMDL
MODEL 10
REMARK VINA RESULT:      -8.2      2.750      3.725
REMARK  9 active torsions:
REMARK  status: ('A' for Active; 'I' for Inactive)
REMARK    1  A    between atoms: C_6  and  N_7 
REMARK    2  A    between atoms: C_6  and  C_31 
REMARK       I    between atoms: N_7  and  C_8 
REMARK    3  A    between atoms: N_7  and  C_23 
REMARK    4  A    between atoms: C_8  and  C_9 
REMARK    5  A    between atoms: C_9  and  N_10 
REMARK    6  A    between atoms: C_14  and  C_15 
REMARK    7  A    between atoms: C_23  and  C_24 
REMARK       I    between atoms: C_31  and  N_32 
REMARK    8  A    between atoms: N_32  and  C_33 
REMARK    9  A    between atoms: C_36  and  O_37 
ROOT
HETATM    1  N   UNL     1     -43.718  59.933 -52.630  1.00  0.00    -0.328 N 
HETATM    2  C   UNL     1     -44.025  58.565 -52.502  1.00  0.00     0.239 C 
HETATM    3  O   UNL     1     -44.972  58.063 -53.115  1.00  0.00    -0.271 OA
ENDROOT
BRANCH   1   4
HETATM    4  C   UNL     1     -44.525  60.796 -53.593  1.00  0.00     0.120 C 
HETATM    5  C   UNL     1     -46.039  60.768 -53.235  1.00  0.00     0.069 C 
HETATM    6  C   UNL     1     -46.853  61.729 -54.088  1.00  0.00     0.237 C 
HETATM    7  N   UNL     1     -46.321  63.123 -53.903  1.00  0.00    -0.075 N 
HETATM    8  C   UNL     1     -47.189  64.136 -54.604  1.00  0.00     0.269 C 
HETATM    9  H   UNL     1     -46.367  63.348 -52.896  1.00  0.00     0.279 HD
HETATM   10  C   UNL     1     -44.878  63.251 -54.325  1.00  0.00     0.237 C 
HETATM   11  C   UNL     1     -44.012  62.266 -53.542  1.00  0.00     0.069 C 
BRANCH   4  12
HETATM   12  C   UNL     1     -44.395  60.304 -55.092  1.00  0.00     0.251 C 
HETATM   13  N   UNL     1     -45.381  59.437 -55.518  1.00  0.00    -0.325 N 
HETATM   14  H   UNL     1     -46.085  59.145 -54.851  1.00  0.00     0.169 HD
HETATM   15  O   UNL     1     -43.507  60.756 -55.812  1.00  0.00    -0.270 OA
BRANCH  13  16
HETATM   16  C   UNL     1     -45.434  58.739 -56.746  1.00  0.00     0.035 A 
HETATM   17  C   UNL     1     -44.332  58.132 -57.350  1.00  0.00     0.032 A 
HETATM   18  C   UNL     1     -44.492  57.361 -58.509  1.00  0.00     0.039 A 
HETATM   19  C   UNL     1     -45.755  57.201 -59.076  1.00  0.00     0.068 A 
HETATM   20  C   UNL     1     -46.847  57.851 -58.510  1.00  0.00     0.039 A 
HETATM   21  C   UNL     1     -46.693  58.601 -57.343  1.00  0.00     0.032 A 
BRANCH  19  22
HETATM   22  O   UNL     1     -46.022  56.460 -60.192  1.00  0.00    -0.356 OA
HETATM   23  C   UNL     1     -47.369  56.531 -60.650  1.00  0.00     0.210 C 
ENDBRANCH  19  22
ENDBRANCH  13  16
ENDBRANCH   4  12
ENDBRANCH   1   4
BRANCH   1  24
HETATM   24  C   UNL     1     -42.951  60.607 -51.556  1.00  0.00     0.169 C 
BRANCH  24  25
HETATM   25  C   UNL     1     -43.785  61.193 -50.447  1.00  0.00    -0.002 A 
HETATM   26  C   UNL     1     -43.511  62.506 -50.041  1.00  0.00     0.124 A 
HETATM   27  F   UNL     1     -42.510  63.181 -50.624  1.00  0.00    -0.205 F 
HETATM   28  C   UNL     1     -44.237  63.127 -49.030  1.00  0.00     0.043 A 
HETATM   29  C   UNL     1     -45.279  62.441 -48.413  1.00  0.00     0.003 A 
HETATM   30  C   UNL     1     -45.588  61.142 -48.814  1.00  0.00     0.001 A 
HETATM   31  C   UNL     1     -44.850  60.522 -49.827  1.00  0.00     0.012 A 
ENDBRANCH  24  25
ENDBRANCH   1  24
BRANCH   2  32
HETATM   32  C   UNL     1     -43.151  57.664 -51.607  1.00  0.00     0.228 C 
BRANCH  32  33
HETATM   33  N   UNL     1     -42.268  56.727 -52.293  1.00  0.00    -0.347 N 
HETATM   34  C   UNL     1     -41.139  57.067 -53.038  1.00  0.00     0.171 A 
HETATM   35  S   UNL     1     -40.350  58.517 -53.133  1.00  0.00    -0.041 SA
HETATM   36  N   UNL     1     -40.729  55.955 -53.740  1.00  0.00    -0.357 N 
HETATM   37  C   UNL     1     -41.641  54.847 -53.603  1.00  0.00     0.135 A 
HETATM   38  H   UNL     1     -39.947  55.980 -54.383  1.00  0.00     0.162 HD
HETATM   39  C   UNL     1     -42.690  55.362 -52.599  1.00  0.00     0.155 A 
BRANCH  37  40
HETATM   40  C   UNL     1     -40.918  53.587 -53.193  1.00  0.00    -0.034 A 
HETATM   41  C   UNL     1     -40.615  53.319 -51.848  1.00  0.00     0.009 A 
HETATM   42  C   UNL     1     -39.920  52.161 -51.491  1.00  0.00     0.001 A 
HETATM   43  C   UNL     1     -39.518  51.259 -52.472  1.00  0.00     0.000 A 
HETATM   44  C   UNL     1     -39.808  51.511 -53.811  1.00  0.00     0.001 A 
HETATM   45  C   UNL     1     -40.505  52.667 -54.170  1.00  0.00     0.009 A 
ENDBRANCH  37  40
ENDBRANCH  32  33
ENDBRANCH   2  32
TORSDOF 9
ENDMDL
