MODEL 1
REMARK VINA RESULT:      -7.9      0.000      0.000
REMARK  9 active torsions:
REMARK  status: ('A' for Active; 'I' for Inactive)
REMARK    1  A    between atoms: C_4  and  S_5 
REMARK    2  A    between atoms: S_5  and  C_6 
REMARK    3  A    between atoms: C_6  and  C_7 
REMARK       I    between atoms: C_7  and  N_8 
REMARK    4  A    between atoms: N_8  and  C_9 
REMARK    5  A    between atoms: N_11  and  C_12 
REMARK    6  A    between atoms: C_12  and  C_13 
REMARK       I    between atoms: C_13  and  N_14 
REMARK    7  A    between atoms: N_14  and  C_15 
REMARK    8  A    between atoms: C_15  and  C_16 
REMARK    9  A    between atoms: C_16  and  N_17 
ROOT
HETATM    1  C   UNL     1     -41.984  59.356 -55.262  1.00  0.00     0.253 C 
ENDROOT
BRANCH   1   2
HETATM    2  N   UNL     1     -42.192  58.597 -54.037  1.00  0.00    -0.270 N 
HETATM    3  C   UNL     1     -41.352  57.615 -53.590  1.00  0.00     0.144 A 
HETATM    4  C   UNL     1     -41.986  56.997 -52.543  1.00  0.00     0.071 A 
HETATM    5  C   UNL     1     -43.196  57.711 -52.401  1.00  0.00     0.169 A 
HETATM    6  N   UNL     1     -43.351  58.664 -53.332  1.00  0.00    -0.183 NA
BRANCH   4   7
HETATM    7  N   UNL     1     -41.568  55.894 -51.822  1.00  0.00    -0.324 N 
HETATM    8  C   UNL     1     -42.212  54.668 -51.811  1.00  0.00     0.231 C 
HETATM    9  O   UNL     1     -43.109  54.330 -52.583  1.00  0.00    -0.272 OA
HETATM   10  H   UNL     1     -40.845  56.040 -51.124  1.00  0.00     0.169 HD
BRANCH   8  11
HETATM   11  C   UNL     1     -41.707  53.693 -50.758  1.00  0.00     0.182 C 
BRANCH  11  12
HETATM   12  S   UNL     1     -39.929  53.303 -50.923  1.00  0.00    -0.121 SA
BRANCH  12  13
HETATM   13  C   UNL     1     -39.875  51.897 -52.033  1.00  0.00     0.001 A 
HETATM   14  C   UNL     1     -39.563  50.583 -51.675  1.00  0.00     0.018 A 
HETATM   15  C   UNL     1     -39.520  49.569 -52.640  1.00  0.00     0.001 A 
HETATM   16  C   UNL     1     -39.801  49.854 -53.973  1.00  0.00     0.000 A 
HETATM   17  C   UNL     1     -40.126  51.154 -54.344  1.00  0.00     0.001 A 
HETATM   18  C   UNL     1     -40.160  52.167 -53.381  1.00  0.00     0.018 A 
ENDBRANCH  12  13
ENDBRANCH  11  12
ENDBRANCH   8  11
ENDBRANCH   4   7
ENDBRANCH   1   2
BRANCH   1  19
HETATM   19  C   UNL     1     -43.142  59.431 -56.235  1.00  0.00     0.237 C 
HETATM   20  N   UNL     1     -43.734  58.245 -56.618  1.00  0.00    -0.357 N 
HETATM   21  H   UNL     1     -43.619  57.484 -55.936  1.00  0.00     0.162 HD
HETATM   22  O   UNL     1     -43.451  60.492 -56.776  1.00  0.00    -0.272 OA
BRANCH  20  23
HETATM   23  C   UNL     1     -44.880  58.218 -57.506  1.00  0.00     0.161 C 
BRANCH  23  24
HETATM   24  C   UNL     1     -44.682  57.432 -58.849  1.00  0.00     0.143 C 
HETATM   25  C   UNL     1     -46.017  56.863 -59.399  1.00  0.00     0.041 C 
HETATM   26  C   UNL     1     -45.849  55.945 -60.610  1.00  0.00     0.002 C 
HETATM   27  C   UNL     1     -44.902  54.789 -60.309  1.00  0.00     0.000 C 
HETATM   28  C   UNL     1     -43.567  55.271 -59.752  1.00  0.00     0.002 C 
HETATM   29  C   UNL     1     -43.759  56.211 -58.560  1.00  0.00     0.041 C 
BRANCH  24  30
HETATM   30  N   UNL     1     -43.997  58.327 -59.950  1.00  0.00    -0.057 N 
HETATM   31  H   UNL     1     -44.086  57.803 -60.826  1.00  0.00     0.281 HD
HETATM   32  C   UNL     1     -44.660  59.686 -60.241  1.00  0.00     0.262 C 
HETATM   33  C   UNL     1     -43.991  60.324 -61.468  1.00  0.00     0.195 C 
HETATM   34  O   UNL     1     -42.590  60.507 -61.253  1.00  0.00    -0.388 OA
HETATM   35  C   UNL     1     -41.924  59.267 -61.003  1.00  0.00     0.195 C 
HETATM   36  C   UNL     1     -42.494  58.575 -59.758  1.00  0.00     0.262 C 
ENDBRANCH  24  30
ENDBRANCH  23  24
ENDBRANCH  20  23
ENDBRANCH   1  19
TORSDOF 9
ENDMDL
MODEL 2
REMARK VINA RESULT:      -7.5      1.503      2.951
REMARK  9 active torsions:
REMARK  status: ('A' for Active; 'I' for Inactive)
REMARK    1  A    between atoms: C_4  and  S_5 
REMARK    2  A    between atoms: S_5  and  C_6 
REMARK    3  A    between atoms: C_6  and  C_7 
REMARK       I    between atoms: C_7  and  N_8 
REMARK    4  A    between atoms: N_8  and  C_9 
REMARK    5  A    between atoms: N_11  and  C_12 
REMARK    6  A    between atoms: C_12  and  C_13 
REMARK       I    between atoms: C_13  and  N_14 
REMARK    7  A    between atoms: N_14  and  C_15 
REMARK    8  A    between atoms: C_15  and  C_16 
REMARK    9  A    between atoms: C_16  and  N_17 
ROOT
HETATM    1  C   UNL     1     -41.716  59.602 -54.357  1.00  0.00     0.253 C 
ENDROOT
BRANCH   1   2
HETATM    2  N   UNL     1     -41.565  58.770 -53.171  1.00  0.00    -0.270 N 
HETATM    3  C   UNL     1     -41.103  57.484 -53.191  1.00  0.00     0.144 A 
HETATM    4  C   UNL     1     -41.308  56.969 -51.936  1.00  0.00     0.071 A 
HETATM    5  C   UNL     1     -41.864  58.044 -51.209  1.00  0.00     0.169 A 
HETATM    6  N   UNL     1     -42.062  59.136 -51.962  1.00  0.00    -0.183 NA
BRANCH   4   7
HETATM    7  N   UNL     1     -41.076  55.682 -51.491  1.00  0.00    -0.324 N 
HETATM    8  C   UNL     1     -42.053  54.825 -51.011  1.00  0.00     0.231 C 
HETATM    9  O   UNL     1     -43.266  55.010 -51.100  1.00  0.00    -0.272 OA
HETATM   10  H   UNL     1     -40.110  55.404 -51.347  1.00  0.00     0.169 HD
BRANCH   8  11
HETATM   11  C   UNL     1     -41.522  53.558 -50.356  1.00  0.00     0.182 C 
BRANCH  11  12
HETATM   12  S   UNL     1     -39.780  53.200 -50.774  1.00  0.00    -0.121 SA
BRANCH  12  13
HETATM   13  C   UNL     1     -39.870  52.020 -52.121  1.00  0.00     0.001 A 
HETATM   14  C   UNL     1     -40.273  52.301 -53.430  1.00  0.00     0.018 A 
HETATM   15  C   UNL     1     -40.334  51.287 -54.393  1.00  0.00     0.001 A 
HETATM   16  C   UNL     1     -39.981  49.982 -54.063  1.00  0.00     0.000 A 
HETATM   17  C   UNL     1     -39.565  49.688 -52.769  1.00  0.00     0.001 A 
HETATM   18  C   UNL     1     -39.513  50.699 -51.806  1.00  0.00     0.018 A 
ENDBRANCH  12  13
ENDBRANCH  11  12
ENDBRANCH   8  11
ENDBRANCH   4   7
ENDBRANCH   1   2
BRANCH   1  19
HETATM   19  C   UNL     1     -42.897  59.312 -55.261  1.00  0.00     0.237 C 
HETATM   20  N   UNL     1     -42.732  58.355 -56.240  1.00  0.00    -0.357 N 
HETATM   21  H   UNL     1     -42.002  57.663 -56.027  1.00  0.00     0.162 HD
HETATM   22  O   UNL     1     -43.914  60.003 -55.219  1.00  0.00    -0.272 OA
BRANCH  20  23
HETATM   23  C   UNL     1     -43.819  57.973 -57.122  1.00  0.00     0.161 C 
BRANCH  23  24
HETATM   24  C   UNL     1     -43.601  58.281 -58.644  1.00  0.00     0.143 C 
HETATM   25  C   UNL     1     -42.128  58.061 -59.082  1.00  0.00     0.041 C 
HETATM   26  C   UNL     1     -41.831  58.514 -60.512  1.00  0.00     0.002 C 
HETATM   27  C   UNL     1     -42.199  59.978 -60.723  1.00  0.00     0.000 C 
HETATM   28  C   UNL     1     -43.635  60.275 -60.303  1.00  0.00     0.002 C 
HETATM   29  C   UNL     1     -43.919  59.788 -58.881  1.00  0.00     0.041 C 
BRANCH  24  30
HETATM   30  N   UNL     1     -44.555  57.420 -59.554  1.00  0.00    -0.057 N 
HETATM   31  H   UNL     1     -44.538  57.868 -60.475  1.00  0.00     0.281 HD
HETATM   32  C   UNL     1     -44.123  55.966 -59.821  1.00  0.00     0.262 C 
HETATM   33  C   UNL     1     -45.050  55.348 -60.879  1.00  0.00     0.195 C 
HETATM   34  O   UNL     1     -46.413  55.375 -60.449  1.00  0.00    -0.388 OA
HETATM   35  C   UNL     1     -46.869  56.708 -60.211  1.00  0.00     0.195 C 
HETATM   36  C   UNL     1     -46.030  57.395 -59.126  1.00  0.00     0.262 C 
ENDBRANCH  24  30
ENDBRANCH  23  24
ENDBRANCH  20  23
ENDBRANCH   1  19
TORSDOF 9
ENDMDL
MODEL 3
REMARK VINA RESULT:      -7.4      2.857      8.050
REMARK  9 active torsions:
REMARK  status: ('A' for Active; 'I' for Inactive)
REMARK    1  A    between atoms: C_4  and  S_5 
REMARK    2  A    between atoms: S_5  and  C_6 
REMARK    3  A    between atoms: C_6  and  C_7 
REMARK       I    between atoms: C_7  and  N_8 
REMARK    4  A    between atoms: N_8  and  C_9 
REMARK    5  A    between atoms: N_11  and  C_12 
REMARK    6  A    between atoms: C_12  and  C_13 
REMARK       I    between atoms: C_13  and  N_14 
REMARK    7  A    between atoms: N_14  and  C_15 
REMARK    8  A    between atoms: C_15  and  C_16 
REMARK    9  A    between atoms: C_16  and  N_17 
ROOT
HETATM    1  C   UNL     1     -45.572  59.053 -52.494  1.00  0.00     0.253 C 
ENDROOT
BRANCH   1   2
HETATM    2  N   UNL     1     -44.705  59.598 -53.530  1.00  0.00    -0.270 N 
HETATM    3  C   UNL     1     -44.866  59.364 -54.866  1.00  0.00     0.144 A 
HETATM    4  C   UNL     1     -43.750  59.856 -55.493  1.00  0.00     0.071 A 
HETATM    5  C   UNL     1     -42.983  60.413 -54.446  1.00  0.00     0.169 A 
HETATM    6  N   UNL     1     -43.537  60.227 -53.239  1.00  0.00    -0.183 NA
BRANCH   4   7
HETATM    7  N   UNL     1     -43.417  59.781 -56.832  1.00  0.00    -0.324 N 
HETATM    8  C   UNL     1     -42.619  58.798 -57.393  1.00  0.00     0.231 C 
HETATM    9  O   UNL     1     -42.267  57.762 -56.831  1.00  0.00    -0.272 OA
HETATM   10  H   UNL     1     -43.629  60.587 -57.411  1.00  0.00     0.169 HD
BRANCH   8  11
HETATM   11  C   UNL     1     -42.197  59.064 -58.831  1.00  0.00     0.182 C 
BRANCH  11  12
HETATM   12  S   UNL     1     -42.052  57.546 -59.837  1.00  0.00    -0.121 SA
BRANCH  12  13
HETATM   13  C   UNL     1     -43.737  56.973 -60.041  1.00  0.00     0.001 A 
HETATM   14  C   UNL     1     -44.870  57.785 -60.152  1.00  0.00     0.018 A 
HETATM   15  C   UNL     1     -46.145  57.221 -60.276  1.00  0.00     0.001 A 
HETATM   16  C   UNL     1     -46.304  55.839 -60.304  1.00  0.00     0.000 A 
HETATM   17  C   UNL     1     -45.186  55.017 -60.207  1.00  0.00     0.001 A 
HETATM   18  C   UNL     1     -43.915  55.581 -60.075  1.00  0.00     0.018 A 
ENDBRANCH  12  13
ENDBRANCH  11  12
ENDBRANCH   8  11
ENDBRANCH   4   7
ENDBRANCH   1   2
BRANCH   1  19
HETATM   19  C   UNL     1     -45.010  57.937 -51.637  1.00  0.00     0.237 C 
HETATM   20  N   UNL     1     -44.281  56.951 -52.269  1.00  0.00    -0.357 N 
HETATM   21  H   UNL     1     -43.852  57.254 -53.153  1.00  0.00     0.162 HD
HETATM   22  O   UNL     1     -45.313  57.834 -50.449  1.00  0.00    -0.272 OA
BRANCH  20  23
HETATM   23  C   UNL     1     -43.661  55.869 -51.527  1.00  0.00     0.161 C 
BRANCH  23  24
HETATM   24  C   UNL     1     -42.235  55.439 -52.016  1.00  0.00     0.143 C 
HETATM   25  C   UNL     1     -42.265  54.811 -53.435  1.00  0.00     0.041 C 
HETATM   26  C   UNL     1     -40.928  54.219 -53.882  1.00  0.00     0.002 C 
HETATM   27  C   UNL     1     -40.416  53.181 -52.890  1.00  0.00     0.000 C 
HETATM   28  C   UNL     1     -40.368  53.723 -51.465  1.00  0.00     0.002 C 
HETATM   29  C   UNL     1     -41.707  54.337 -51.049  1.00  0.00     0.041 C 
BRANCH  24  30
HETATM   30  N   UNL     1     -41.225  56.647 -51.996  1.00  0.00    -0.057 N 
HETATM   31  H   UNL     1     -40.291  56.226 -51.959  1.00  0.00     0.281 HD
HETATM   32  C   UNL     1     -41.197  57.541 -53.250  1.00  0.00     0.262 C 
HETATM   33  C   UNL     1     -40.026  58.530 -53.143  1.00  0.00     0.195 C 
HETATM   34  O   UNL     1     -40.144  59.342 -51.972  1.00  0.00    -0.388 OA
HETATM   35  C   UNL     1     -40.148  58.557 -50.778  1.00  0.00     0.195 C 
HETATM   36  C   UNL     1     -41.321  57.568 -50.771  1.00  0.00     0.262 C 
ENDBRANCH  24  30
ENDBRANCH  23  24
ENDBRANCH  20  23
ENDBRANCH   1  19
TORSDOF 9
ENDMDL
MODEL 4
REMARK VINA RESULT:      -7.4      1.994      2.884
REMARK  9 active torsions:
REMARK  status: ('A' for Active; 'I' for Inactive)
REMARK    1  A    between atoms: C_4  and  S_5 
REMARK    2  A    between atoms: S_5  and  C_6 
REMARK    3  A    between atoms: C_6  and  C_7 
REMARK       I    between atoms: C_7  and  N_8 
REMARK    4  A    between atoms: N_8  and  C_9 
REMARK    5  A    between atoms: N_11  and  C_12 
REMARK    6  A    between atoms: C_12  and  C_13 
REMARK       I    between atoms: C_13  and  N_14 
REMARK    7  A    between atoms: N_14  and  C_15 
REMARK    8  A    between atoms: C_15  and  C_16 
REMARK    9  A    between atoms: C_16  and  N_17 
ROOT
HETATM    1  C   UNL     1     -42.668  60.827 -53.250  1.00  0.00     0.253 C 
ENDROOT
BRANCH   1   2
HETATM    2  N   UNL     1     -41.919  59.579 -53.181  1.00  0.00    -0.270 N 
HETATM    3  C   UNL     1     -42.370  58.447 -52.562  1.00  0.00     0.144 A 
HETATM    4  C   UNL     1     -41.315  57.571 -52.519  1.00  0.00     0.071 A 
HETATM    5  C   UNL     1     -40.272  58.254 -53.182  1.00  0.00     0.169 A 
HETATM    6  N   UNL     1     -40.616  59.495 -53.556  1.00  0.00    -0.183 NA
BRANCH   4   7
HETATM    7  N   UNL     1     -41.260  56.327 -51.919  1.00  0.00    -0.324 N 
HETATM    8  C   UNL     1     -42.009  55.230 -52.309  1.00  0.00     0.231 C 
HETATM    9  O   UNL     1     -42.664  55.149 -53.348  1.00  0.00    -0.272 OA
HETATM   10  H   UNL     1     -40.769  56.258 -51.033  1.00  0.00     0.169 HD
BRANCH   8  11
HETATM   11  C   UNL     1     -41.957  54.050 -51.350  1.00  0.00     0.182 C 
BRANCH  11  12
HETATM   12  S   UNL     1     -40.257  53.506 -50.960  1.00  0.00    -0.121 SA
BRANCH  12  13
HETATM   13  C   UNL     1     -40.021  52.020 -51.934  1.00  0.00     0.001 A 
HETATM   14  C   UNL     1     -39.685  50.759 -51.434  1.00  0.00     0.018 A 
HETATM   15  C   UNL     1     -39.494  49.674 -52.299  1.00  0.00     0.001 A 
HETATM   16  C   UNL     1     -39.651  49.834 -53.672  1.00  0.00     0.000 A 
HETATM   17  C   UNL     1     -39.998  51.079 -54.185  1.00  0.00     0.001 A 
HETATM   18  C   UNL     1     -40.179  52.163 -53.322  1.00  0.00     0.018 A 
ENDBRANCH  12  13
ENDBRANCH  11  12
ENDBRANCH   8  11
ENDBRANCH   4   7
ENDBRANCH   1   2
BRANCH   1  19
HETATM   19  C   UNL     1     -43.082  61.311 -54.624  1.00  0.00     0.237 C 
HETATM   20  N   UNL     1     -42.857  60.469 -55.693  1.00  0.00    -0.357 N 
HETATM   21  H   UNL     1     -42.810  59.474 -55.436  1.00  0.00     0.162 HD
HETATM   22  O   UNL     1     -43.469  62.465 -54.801  1.00  0.00    -0.272 OA
BRANCH  20  23
HETATM   23  C   UNL     1     -43.264  60.823 -57.040  1.00  0.00     0.161 C 
BRANCH  23  24
HETATM   24  C   UNL     1     -43.364  59.633 -58.056  1.00  0.00     0.143 C 
HETATM   25  C   UNL     1     -42.641  58.360 -57.541  1.00  0.00     0.041 C 
HETATM   26  C   UNL     1     -42.563  57.231 -58.569  1.00  0.00     0.002 C 
HETATM   27  C   UNL     1     -41.895  57.694 -59.859  1.00  0.00     0.000 C 
HETATM   28  C   UNL     1     -42.546  58.953 -60.422  1.00  0.00     0.002 C 
HETATM   29  C   UNL     1     -42.641  60.059 -59.369  1.00  0.00     0.041 C 
BRANCH  24  30
HETATM   30  N   UNL     1     -44.861  59.286 -58.399  1.00  0.00    -0.057 N 
HETATM   31  H   UNL     1     -44.818  58.534 -59.093  1.00  0.00     0.281 HD
HETATM   32  C   UNL     1     -45.713  58.709 -57.253  1.00  0.00     0.262 C 
HETATM   33  C   UNL     1     -47.066  58.243 -57.812  1.00  0.00     0.195 C 
HETATM   34  O   UNL     1     -47.765  59.322 -58.436  1.00  0.00    -0.388 OA
HETATM   35  C   UNL     1     -47.023  59.876 -59.525  1.00  0.00     0.195 C 
HETATM   36  C   UNL     1     -45.668  60.418 -59.053  1.00  0.00     0.262 C 
ENDBRANCH  24  30
ENDBRANCH  23  24
ENDBRANCH  20  23
ENDBRANCH   1  19
TORSDOF 9
ENDMDL
MODEL 5
REMARK VINA RESULT:      -7.2      2.374      4.264
REMARK  9 active torsions:
REMARK  status: ('A' for Active; 'I' for Inactive)
REMARK    1  A    between atoms: C_4  and  S_5 
REMARK    2  A    between atoms: S_5  and  C_6 
REMARK    3  A    between atoms: C_6  and  C_7 
REMARK       I    between atoms: C_7  and  N_8 
REMARK    4  A    between atoms: N_8  and  C_9 
REMARK    5  A    between atoms: N_11  and  C_12 
REMARK    6  A    between atoms: C_12  and  C_13 
REMARK       I    between atoms: C_13  and  N_14 
REMARK    7  A    between atoms: N_14  and  C_15 
REMARK    8  A    between atoms: C_15  and  C_16 
REMARK    9  A    between atoms: C_16  and  N_17 
ROOT
HETATM    1  C   UNL     1     -43.032  55.783 -58.526  1.00  0.00     0.253 C 
ENDROOT
BRANCH   1   2
HETATM    2  N   UNL     1     -43.132  56.348 -57.188  1.00  0.00    -0.270 N 
HETATM    3  C   UNL     1     -42.487  55.846 -56.093  1.00  0.00     0.144 A 
HETATM    4  C   UNL     1     -42.992  56.501 -54.999  1.00  0.00     0.071 A 
HETATM    5  C   UNL     1     -43.916  57.420 -55.543  1.00  0.00     0.169 A 
HETATM    6  N   UNL     1     -44.038  57.310 -56.874  1.00  0.00    -0.183 NA
BRANCH   4   7
HETATM    7  N   UNL     1     -42.710  56.281 -53.664  1.00  0.00    -0.324 N 
HETATM    8  C   UNL     1     -41.537  56.660 -53.033  1.00  0.00     0.231 C 
HETATM    9  O   UNL     1     -40.684  57.408 -53.509  1.00  0.00    -0.272 OA
HETATM   10  H   UNL     1     -43.325  55.655 -53.154  1.00  0.00     0.169 HD
BRANCH   8  11
HETATM   11  C   UNL     1     -41.357  56.095 -51.632  1.00  0.00     0.182 C 
BRANCH  11  12
HETATM   12  S   UNL     1     -42.158  54.470 -51.395  1.00  0.00    -0.121 SA
BRANCH  12  13
HETATM   13  C   UNL     1     -41.123  53.318 -52.297  1.00  0.00     0.001 A 
HETATM   14  C   UNL     1     -41.175  53.076 -53.673  1.00  0.00     0.018 A 
HETATM   15  C   UNL     1     -40.335  52.125 -54.264  1.00  0.00     0.001 A 
HETATM   16  C   UNL     1     -39.423  51.414 -53.490  1.00  0.00     0.000 A 
HETATM   17  C   UNL     1     -39.349  51.653 -52.122  1.00  0.00     0.001 A 
HETATM   18  C   UNL     1     -40.194  52.596 -51.531  1.00  0.00     0.018 A 
ENDBRANCH  12  13
ENDBRANCH  11  12
ENDBRANCH   8  11
ENDBRANCH   4   7
ENDBRANCH   1   2
BRANCH   1  19
HETATM   19  C   UNL     1     -43.026  56.753 -59.689  1.00  0.00     0.237 C 
HETATM   20  N   UNL     1     -42.452  57.991 -59.487  1.00  0.00    -0.357 N 
HETATM   21  H   UNL     1     -41.747  58.004 -58.738  1.00  0.00     0.162 HD
HETATM   22  O   UNL     1     -43.638  56.504 -60.728  1.00  0.00    -0.272 OA
BRANCH  20  23
HETATM   23  C   UNL     1     -42.354  58.969 -60.554  1.00  0.00     0.161 C 
BRANCH  23  24
HETATM   24  C   UNL     1     -42.189  60.460 -60.097  1.00  0.00     0.143 C 
HETATM   25  C   UNL     1     -41.282  61.271 -61.060  1.00  0.00     0.041 C 
HETATM   26  C   UNL     1     -40.951  62.679 -60.563  1.00  0.00     0.002 C 
HETATM   27  C   UNL     1     -40.308  62.648 -59.182  1.00  0.00     0.000 C 
HETATM   28  C   UNL     1     -41.139  61.855 -58.179  1.00  0.00     0.002 C 
HETATM   29  C   UNL     1     -41.483  60.462 -58.707  1.00  0.00     0.041 C 
BRANCH  24  30
HETATM   30  N   UNL     1     -43.581  61.181 -59.952  1.00  0.00    -0.057 N 
HETATM   31  H   UNL     1     -43.365  62.148 -59.689  1.00  0.00     0.281 HD
HETATM   32  C   UNL     1     -44.428  61.306 -61.232  1.00  0.00     0.262 C 
HETATM   33  C   UNL     1     -45.641  62.205 -60.952  1.00  0.00     0.195 C 
HETATM   34  O   UNL     1     -46.443  61.674 -59.894  1.00  0.00    -0.388 OA
HETATM   35  C   UNL     1     -45.706  61.563 -58.674  1.00  0.00     0.195 C 
HETATM   36  C   UNL     1     -44.494  60.637 -58.842  1.00  0.00     0.262 C 
ENDBRANCH  24  30
ENDBRANCH  23  24
ENDBRANCH  20  23
ENDBRANCH   1  19
TORSDOF 9
ENDMDL
MODEL 6
REMARK VINA RESULT:      -7.0      3.330      8.333
REMARK  9 active torsions:
REMARK  status: ('A' for Active; 'I' for Inactive)
REMARK    1  A    between atoms: C_4  and  S_5 
REMARK    2  A    between atoms: S_5  and  C_6 
REMARK    3  A    between atoms: C_6  and  C_7 
REMARK       I    between atoms: C_7  and  N_8 
REMARK    4  A    between atoms: N_8  and  C_9 
REMARK    5  A    between atoms: N_11  and  C_12 
REMARK    6  A    between atoms: C_12  and  C_13 
REMARK       I    between atoms: C_13  and  N_14 
REMARK    7  A    between atoms: N_14  and  C_15 
REMARK    8  A    between atoms: C_15  and  C_16 
REMARK    9  A    between atoms: C_16  and  N_17 
ROOT
HETATM    1  C   UNL     1     -44.602  59.992 -50.693  1.00  0.00     0.253 C 
ENDROOT
BRANCH   1   2
HETATM    2  N   UNL     1     -44.144  60.767 -51.837  1.00  0.00    -0.270 N 
HETATM    3  C   UNL     1     -44.265  60.362 -53.137  1.00  0.00     0.144 A 
HETATM    4  C   UNL     1     -43.535  61.240 -53.896  1.00  0.00     0.071 A 
HETATM    5  C   UNL     1     -43.039  62.176 -52.962  1.00  0.00     0.169 A 
HETATM    6  N   UNL     1     -43.372  61.876 -51.698  1.00  0.00    -0.183 NA
BRANCH   4   7
HETATM    7  N   UNL     1     -43.289  61.196 -55.256  1.00  0.00    -0.324 N 
HETATM    8  C   UNL     1     -42.240  60.513 -55.847  1.00  0.00     0.231 C 
HETATM    9  O   UNL     1     -41.512  59.699 -55.279  1.00  0.00    -0.272 OA
HETATM   10  H   UNL     1     -43.807  61.841 -55.844  1.00  0.00     0.169 HD
BRANCH   8  11
HETATM   11  C   UNL     1     -42.037  60.813 -57.325  1.00  0.00     0.182 C 
BRANCH  11  12
HETATM   12  S   UNL     1     -43.462  60.337 -58.365  1.00  0.00    -0.121 SA
BRANCH  12  13
HETATM   13  C   UNL     1     -43.233  58.587 -58.676  1.00  0.00     0.001 A 
HETATM   14  C   UNL     1     -43.729  57.544 -57.887  1.00  0.00     0.018 A 
HETATM   15  C   UNL     1     -43.458  56.210 -58.214  1.00  0.00     0.001 A 
HETATM   16  C   UNL     1     -42.699  55.901 -59.339  1.00  0.00     0.000 A 
HETATM   17  C   UNL     1     -42.210  56.926 -60.141  1.00  0.00     0.001 A 
HETATM   18  C   UNL     1     -42.474  58.258 -59.810  1.00  0.00     0.018 A 
ENDBRANCH  12  13
ENDBRANCH  11  12
ENDBRANCH   8  11
ENDBRANCH   4   7
ENDBRANCH   1   2
BRANCH   1  19
HETATM   19  C   UNL     1     -44.698  58.491 -50.867  1.00  0.00     0.237 C 
HETATM   20  N   UNL     1     -43.522  57.791 -51.047  1.00  0.00    -0.357 N 
HETATM   21  H   UNL     1     -42.695  58.262 -50.657  1.00  0.00     0.162 HD
HETATM   22  O   UNL     1     -45.788  57.933 -50.989  1.00  0.00    -0.272 OA
BRANCH  20  23
HETATM   23  C   UNL     1     -43.508  56.346 -51.173  1.00  0.00     0.161 C 
BRANCH  23  24
HETATM   24  C   UNL     1     -42.445  55.761 -52.167  1.00  0.00     0.143 C 
HETATM   25  C   UNL     1     -41.715  56.872 -52.967  1.00  0.00     0.041 C 
HETATM   26  C   UNL     1     -40.797  56.343 -54.070  1.00  0.00     0.002 C 
HETATM   27  C   UNL     1     -41.552  55.445 -55.042  1.00  0.00     0.000 C 
HETATM   28  C   UNL     1     -42.307  54.330 -54.327  1.00  0.00     0.002 C 
HETATM   29  C   UNL     1     -43.196  54.878 -53.209  1.00  0.00     0.041 C 
BRANCH  24  30
HETATM   30  N   UNL     1     -41.385  54.864 -51.423  1.00  0.00    -0.057 N 
HETATM   31  H   UNL     1     -40.581  54.805 -52.056  1.00  0.00     0.281 HD
HETATM   32  C   UNL     1     -40.807  55.428 -50.112  1.00  0.00     0.262 C 
HETATM   33  C   UNL     1     -39.655  54.530 -49.638  1.00  0.00     0.195 C 
HETATM   34  O   UNL     1     -40.099  53.187 -49.432  1.00  0.00    -0.388 OA
HETATM   35  C   UNL     1     -40.622  52.611 -50.631  1.00  0.00     0.195 C 
HETATM   36  C   UNL     1     -41.818  53.415 -51.156  1.00  0.00     0.262 C 
ENDBRANCH  24  30
ENDBRANCH  23  24
ENDBRANCH  20  23
ENDBRANCH   1  19
TORSDOF 9
ENDMDL
MODEL 7
REMARK VINA RESULT:      -6.9      1.857      2.924
REMARK  9 active torsions:
REMARK  status: ('A' for Active; 'I' for Inactive)
REMARK    1  A    between atoms: C_4  and  S_5 
REMARK    2  A    between atoms: S_5  and  C_6 
REMARK    3  A    between atoms: C_6  and  C_7 
REMARK       I    between atoms: C_7  and  N_8 
REMARK    4  A    between atoms: N_8  and  C_9 
REMARK    5  A    between atoms: N_11  and  C_12 
REMARK    6  A    between atoms: C_12  and  C_13 
REMARK       I    between atoms: C_13  and  N_14 
REMARK    7  A    between atoms: N_14  and  C_15 
REMARK    8  A    between atoms: C_15  and  C_16 
REMARK    9  A    between atoms: C_16  and  N_17 
ROOT
HETATM    1  C   UNL     1     -45.012  59.784 -54.118  1.00  0.00     0.253 C 
ENDROOT
BRANCH   1   2
HETATM    2  N   UNL     1     -43.907  58.851 -53.942  1.00  0.00    -0.270 N 
HETATM    3  C   UNL     1     -43.960  57.739 -53.150  1.00  0.00     0.144 A 
HETATM    4  C   UNL     1     -42.683  57.247 -53.070  1.00  0.00     0.071 A 
HETATM    5  C   UNL     1     -41.927  58.112 -53.891  1.00  0.00     0.169 A 
HETATM    6  N   UNL     1     -42.655  59.118 -54.397  1.00  0.00    -0.183 NA
BRANCH   4   7
HETATM    7  N   UNL     1     -42.222  56.182 -52.319  1.00  0.00    -0.324 N 
HETATM    8  C   UNL     1     -42.605  54.864 -52.501  1.00  0.00     0.231 C 
HETATM    9  O   UNL     1     -43.240  54.435 -53.464  1.00  0.00    -0.272 OA
HETATM   10  H   UNL     1     -41.702  56.397 -51.474  1.00  0.00     0.169 HD
BRANCH   8  11
HETATM   11  C   UNL     1     -42.154  53.912 -51.402  1.00  0.00     0.182 C 
BRANCH  11  12
HETATM   12  S   UNL     1     -40.345  53.658 -51.361  1.00  0.00    -0.121 SA
BRANCH  12  13
HETATM   13  C   UNL     1     -40.082  52.122 -52.245  1.00  0.00     0.001 A 
HETATM   14  C   UNL     1     -39.718  50.899 -51.672  1.00  0.00     0.018 A 
HETATM   15  C   UNL     1     -39.509  49.769 -52.471  1.00  0.00     0.001 A 
HETATM   16  C   UNL     1     -39.674  49.842 -53.851  1.00  0.00     0.000 A 
HETATM   17  C   UNL     1     -40.049  51.047 -54.436  1.00  0.00     0.001 A 
HETATM   18  C   UNL     1     -40.249  52.177 -53.638  1.00  0.00     0.018 A 
ENDBRANCH  12  13
ENDBRANCH  11  12
ENDBRANCH   8  11
ENDBRANCH   4   7
ENDBRANCH   1   2
BRANCH   1  19
HETATM   19  C   UNL     1     -45.458  60.070 -55.537  1.00  0.00     0.237 C 
HETATM   20  N   UNL     1     -45.930  59.012 -56.284  1.00  0.00    -0.357 N 
HETATM   21  H   UNL     1     -46.308  58.240 -55.719  1.00  0.00     0.162 HD
HETATM   22  O   UNL     1     -45.270  61.172 -56.052  1.00  0.00    -0.272 OA
BRANCH  20  23
HETATM   23  C   UNL     1     -46.426  59.195 -57.635  1.00  0.00     0.161 C 
BRANCH  23  24
HETATM   24  C   UNL     1     -45.440  58.782 -58.783  1.00  0.00     0.143 C 
HETATM   25  C   UNL     1     -44.331  57.817 -58.286  1.00  0.00     0.041 C 
HETATM   26  C   UNL     1     -43.249  57.524 -59.326  1.00  0.00     0.002 C 
HETATM   27  C   UNL     1     -42.600  58.807 -59.833  1.00  0.00     0.000 C 
HETATM   28  C   UNL     1     -43.632  59.814 -60.331  1.00  0.00     0.002 C 
HETATM   29  C   UNL     1     -44.721  60.069 -59.287  1.00  0.00     0.041 C 
BRANCH  24  30
HETATM   30  N   UNL     1     -46.203  58.127 -59.996  1.00  0.00    -0.057 N 
HETATM   31  H   UNL     1     -45.539  58.139 -60.777  1.00  0.00     0.281 HD
HETATM   32  C   UNL     1     -46.597  56.647 -59.842  1.00  0.00     0.262 C 
HETATM   33  C   UNL     1     -47.139  56.125 -61.181  1.00  0.00     0.195 C 
HETATM   34  O   UNL     1     -48.272  56.884 -61.610  1.00  0.00    -0.388 OA
HETATM   35  C   UNL     1     -47.949  58.264 -61.791  1.00  0.00     0.195 C 
HETATM   36  C   UNL     1     -47.443  58.890 -60.485  1.00  0.00     0.262 C 
ENDBRANCH  24  30
ENDBRANCH  23  24
ENDBRANCH  20  23
ENDBRANCH   1  19
TORSDOF 9
ENDMDL
MODEL 8
REMARK VINA RESULT:      -6.8     16.004     19.630
REMARK  9 active torsions:
REMARK  status: ('A' for Active; 'I' for Inactive)
REMARK    1  A    between atoms: C_4  and  S_5 
REMARK    2  A    between atoms: S_5  and  C_6 
REMARK    3  A    between atoms: C_6  and  C_7 
REMARK       I    between atoms: C_7  and  N_8 
REMARK    4  A    between atoms: N_8  and  C_9 
REMARK    5  A    between atoms: N_11  and  C_12 
REMARK    6  A    between atoms: C_12  and  C_13 
REMARK       I    between atoms: C_13  and  N_14 
REMARK    7  A    between atoms: N_14  and  C_15 
REMARK    8  A    between atoms: C_15  and  C_16 
REMARK    9  A    between atoms: C_16  and  N_17 
ROOT
HETATM    1  C   UNL     1     -37.220  42.463 -56.481  1.00  0.00     0.253 C 
ENDROOT
BRANCH   1   2
HETATM    2  N   UNL     1     -37.376  41.287 -57.325  1.00  0.00    -0.270 N 
HETATM    3  C   UNL     1     -37.302  41.306 -58.690  1.00  0.00     0.144 A 
HETATM    4  C   UNL     1     -37.711  40.074 -59.128  1.00  0.00     0.071 A 
HETATM    5  C   UNL     1     -37.974  39.355 -57.941  1.00  0.00     0.169 A 
HETATM    6  N   UNL     1     -37.811  40.096 -56.836  1.00  0.00    -0.183 NA
BRANCH   4   7
HETATM    7  N   UNL     1     -37.883  39.641 -60.429  1.00  0.00    -0.324 N 
HETATM    8  C   UNL     1     -36.917  38.991 -61.179  1.00  0.00     0.231 C 
HETATM    9  O   UNL     1     -35.864  38.533 -60.736  1.00  0.00    -0.272 OA
HETATM   10  H   UNL     1     -38.705  39.970 -60.926  1.00  0.00     0.169 HD
BRANCH   8  11
HETATM   11  C   UNL     1     -37.253  38.835 -62.654  1.00  0.00     0.182 C 
BRANCH  11  12
HETATM   12  S   UNL     1     -38.065  37.246 -63.049  1.00  0.00    -0.121 SA
BRANCH  12  13
HETATM   13  C   UNL     1     -39.755  37.448 -62.489  1.00  0.00     0.001 A 
HETATM   14  C   UNL     1     -40.207  37.290 -61.176  1.00  0.00     0.018 A 
HETATM   15  C   UNL     1     -41.562  37.444 -60.862  1.00  0.00     0.001 A 
HETATM   16  C   UNL     1     -42.482  37.770 -61.854  1.00  0.00     0.000 A 
HETATM   17  C   UNL     1     -42.047  37.944 -63.163  1.00  0.00     0.001 A 
HETATM   18  C   UNL     1     -40.695  37.782 -63.477  1.00  0.00     0.018 A 
ENDBRANCH  12  13
ENDBRANCH  11  12
ENDBRANCH   8  11
ENDBRANCH   4   7
ENDBRANCH   1   2
BRANCH   1  19
HETATM   19  C   UNL     1     -36.175  42.395 -55.386  1.00  0.00     0.237 C 
HETATM   20  N   UNL     1     -36.618  42.284 -54.085  1.00  0.00    -0.357 N 
HETATM   21  H   UNL     1     -37.553  41.865 -53.998  1.00  0.00     0.162 HD
HETATM   22  O   UNL     1     -34.983  42.578 -55.633  1.00  0.00    -0.272 OA
BRANCH  20  23
HETATM   23  C   UNL     1     -35.693  42.163 -52.974  1.00  0.00     0.161 C 
BRANCH  23  24
HETATM   24  C   UNL     1     -35.710  40.788 -52.221  1.00  0.00     0.143 C 
HETATM   25  C   UNL     1     -37.124  40.149 -52.198  1.00  0.00     0.041 C 
HETATM   26  C   UNL     1     -37.226  38.895 -51.328  1.00  0.00     0.002 C 
HETATM   27  C   UNL     1     -36.781  39.170 -49.897  1.00  0.00     0.000 C 
HETATM   28  C   UNL     1     -35.399  39.811 -49.838  1.00  0.00     0.002 C 
HETATM   29  C   UNL     1     -35.310  41.046 -50.737  1.00  0.00     0.041 C 
BRANCH  24  30
HETATM   30  N   UNL     1     -34.683  39.770 -52.846  1.00  0.00    -0.057 N 
HETATM   31  H   UNL     1     -34.654  38.975 -52.200  1.00  0.00     0.281 HD
HETATM   32  C   UNL     1     -35.066  39.154 -54.204  1.00  0.00     0.262 C 
HETATM   33  C   UNL     1     -34.063  38.046 -54.559  1.00  0.00     0.195 C 
HETATM   34  O   UNL     1     -32.730  38.558 -54.621  1.00  0.00    -0.388 OA
HETATM   35  C   UNL     1     -32.319  39.121 -53.373  1.00  0.00     0.195 C 
HETATM   36  C   UNL     1     -33.237  40.277 -52.957  1.00  0.00     0.262 C 
ENDBRANCH  24  30
ENDBRANCH  23  24
ENDBRANCH  20  23
ENDBRANCH   1  19
TORSDOF 9
ENDMDL
MODEL 9
REMARK VINA RESULT:      -6.8     16.071     18.870
REMARK  9 active torsions:
REMARK  status: ('A' for Active; 'I' for Inactive)
REMARK    1  A    between atoms: C_4  and  S_5 
REMARK    2  A    between atoms: S_5  and  C_6 
REMARK    3  A    between atoms: C_6  and  C_7 
REMARK       I    between atoms: C_7  and  N_8 
REMARK    4  A    between atoms: N_8  and  C_9 
REMARK    5  A    between atoms: N_11  and  C_12 
REMARK    6  A    between atoms: C_12  and  C_13 
REMARK       I    between atoms: C_13  and  N_14 
REMARK    7  A    between atoms: N_14  and  C_15 
REMARK    8  A    between atoms: C_15  and  C_16 
REMARK    9  A    between atoms: C_16  and  N_17 
ROOT
HETATM    1  C   UNL     1     -37.453  41.287 -52.116  1.00  0.00     0.253 C 
ENDROOT
BRANCH   1   2
HETATM    2  N   UNL     1     -36.810  40.057 -51.673  1.00  0.00    -0.270 N 
HETATM    3  C   UNL     1     -36.100  39.937 -50.512  1.00  0.00     0.144 A 
HETATM    4  C   UNL     1     -35.477  38.716 -50.552  1.00  0.00     0.071 A 
HETATM    5  C   UNL     1     -35.912  38.146 -51.769  1.00  0.00     0.169 A 
HETATM    6  N   UNL     1     -36.694  38.970 -52.480  1.00  0.00    -0.183 NA
BRANCH   4   7
HETATM    7  N   UNL     1     -34.586  38.180 -49.642  1.00  0.00    -0.324 N 
HETATM    8  C   UNL     1     -33.235  38.480 -49.589  1.00  0.00     0.231 C 
HETATM    9  O   UNL     1     -32.687  39.398 -50.199  1.00  0.00    -0.272 OA
HETATM   10  H   UNL     1     -34.903  37.390 -49.088  1.00  0.00     0.169 HD
BRANCH   8  11
HETATM   11  C   UNL     1     -32.419  37.586 -48.667  1.00  0.00     0.182 C 
BRANCH  11  12
HETATM   12  S   UNL     1     -32.975  37.639 -46.927  1.00  0.00    -0.121 SA
BRANCH  12  13
HETATM   13  C   UNL     1     -31.781  38.690 -46.101  1.00  0.00     0.001 A 
HETATM   14  C   UNL     1     -31.592  38.785 -44.719  1.00  0.00     0.018 A 
HETATM   15  C   UNL     1     -30.646  39.668 -44.186  1.00  0.00     0.001 A 
HETATM   16  C   UNL     1     -29.869  40.459 -45.027  1.00  0.00     0.000 A 
HETATM   17  C   UNL     1     -30.035  40.367 -46.404  1.00  0.00     0.001 A 
HETATM   18  C   UNL     1     -30.985  39.491 -46.935  1.00  0.00     0.018 A 
ENDBRANCH  12  13
ENDBRANCH  11  12
ENDBRANCH   8  11
ENDBRANCH   4   7
ENDBRANCH   1   2
BRANCH   1  19
HETATM   19  C   UNL     1     -36.913  41.936 -53.373  1.00  0.00     0.237 C 
HETATM   20  N   UNL     1     -37.508  41.601 -54.572  1.00  0.00    -0.357 N 
HETATM   21  H   UNL     1     -38.479  41.275 -54.477  1.00  0.00     0.162 HD
HETATM   22  O   UNL     1     -35.893  42.623 -53.346  1.00  0.00    -0.272 OA
BRANCH  20  23
HETATM   23  C   UNL     1     -37.094  42.208 -55.823  1.00  0.00     0.161 C 
BRANCH  23  24
HETATM   24  C   UNL     1     -36.899  41.220 -57.026  1.00  0.00     0.143 C 
HETATM   25  C   UNL     1     -36.969  41.944 -58.396  1.00  0.00     0.041 C 
HETATM   26  C   UNL     1     -36.958  41.000 -59.599  1.00  0.00     0.002 C 
HETATM   27  C   UNL     1     -38.086  39.979 -59.519  1.00  0.00     0.000 C 
HETATM   28  C   UNL     1     -38.090  39.231 -58.190  1.00  0.00     0.002 C 
HETATM   29  C   UNL     1     -38.071  40.193 -57.000  1.00  0.00     0.041 C 
BRANCH  24  30
HETATM   30  N   UNL     1     -35.540  40.431 -56.915  1.00  0.00    -0.057 N 
HETATM   31  H   UNL     1     -35.338  40.096 -57.863  1.00  0.00     0.281 HD
HETATM   32  C   UNL     1     -34.299  41.251 -56.520  1.00  0.00     0.262 C 
HETATM   33  C   UNL     1     -33.045  40.375 -56.660  1.00  0.00     0.195 C 
HETATM   34  O   UNL     1     -33.136  39.210 -55.837  1.00  0.00    -0.388 OA
HETATM   35  C   UNL     1     -34.262  38.401 -56.184  1.00  0.00     0.195 C 
HETATM   36  C   UNL     1     -35.574  39.180 -56.025  1.00  0.00     0.262 C 
ENDBRANCH  24  30
ENDBRANCH  23  24
ENDBRANCH  20  23
ENDBRANCH   1  19
TORSDOF 9
ENDMDL
MODEL 10
REMARK VINA RESULT:      -6.7      2.460      4.203
REMARK  9 active torsions:
REMARK  status: ('A' for Active; 'I' for Inactive)
REMARK    1  A    between atoms: C_4  and  S_5 
REMARK    2  A    between atoms: S_5  and  C_6 
REMARK    3  A    between atoms: C_6  and  C_7 
REMARK       I    between atoms: C_7  and  N_8 
REMARK    4  A    between atoms: N_8  and  C_9 
REMARK    5  A    between atoms: N_11  and  C_12 
REMARK    6  A    between atoms: C_12  and  C_13 
REMARK       I    between atoms: C_13  and  N_14 
REMARK    7  A    between atoms: N_14  and  C_15 
REMARK    8  A    between atoms: C_15  and  C_16 
REMARK    9  A    between atoms: C_16  and  N_17 
ROOT
HETATM    1  C   UNL     1     -43.292  56.090 -58.474  1.00  0.00     0.253 C 
ENDROOT
BRANCH   1   2
HETATM    2  N   UNL     1     -43.261  56.550 -57.093  1.00  0.00    -0.270 N 
HETATM    3  C   UNL     1     -42.635  55.886 -56.076  1.00  0.00     0.144 A 
HETATM    4  C   UNL     1     -43.007  56.503 -54.910  1.00  0.00     0.071 A 
HETATM    5  C   UNL     1     -43.834  57.568 -55.331  1.00  0.00     0.169 A 
HETATM    6  N   UNL     1     -44.028  57.584 -56.658  1.00  0.00    -0.183 NA
BRANCH   4   7
HETATM    7  N   UNL     1     -42.695  56.142 -53.613  1.00  0.00    -0.324 N 
HETATM    8  C   UNL     1     -41.699  56.727 -52.849  1.00  0.00     0.231 C 
HETATM    9  O   UNL     1     -41.100  57.763 -53.135  1.00  0.00    -0.272 OA
HETATM   10  H   UNL     1     -43.103  55.283 -53.256  1.00  0.00     0.169 HD
BRANCH   8  11
HETATM   11  C   UNL     1     -41.382  55.999 -51.550  1.00  0.00     0.182 C 
BRANCH  11  12
HETATM   12  S   UNL     1     -42.232  54.389 -51.395  1.00  0.00    -0.121 SA
BRANCH  12  13
HETATM   13  C   UNL     1     -41.102  53.207 -52.130  1.00  0.00     0.001 A 
HETATM   14  C   UNL     1     -40.150  52.449 -51.443  1.00  0.00     0.018 A 
HETATM   15  C   UNL     1     -39.297  51.577 -52.131  1.00  0.00     0.001 A 
HETATM   16  C   UNL     1     -39.394  51.443 -53.512  1.00  0.00     0.000 A 
HETATM   17  C   UNL     1     -40.345  52.181 -54.210  1.00  0.00     0.001 A 
HETATM   18  C   UNL     1     -41.189  53.057 -53.523  1.00  0.00     0.018 A 
ENDBRANCH  12  13
ENDBRANCH  11  12
ENDBRANCH   8  11
ENDBRANCH   4   7
ENDBRANCH   1   2
BRANCH   1  19
HETATM   19  C   UNL     1     -42.732  57.024 -59.528  1.00  0.00     0.237 C 
HETATM   20  N   UNL     1     -42.674  58.368 -59.225  1.00  0.00    -0.357 N 
HETATM   21  H   UNL     1     -42.631  58.565 -58.216  1.00  0.00     0.162 HD
HETATM   22  O   UNL     1     -42.476  56.621 -60.662  1.00  0.00    -0.272 OA
BRANCH  20  23
HETATM   23  C   UNL     1     -42.109  59.333 -60.149  1.00  0.00     0.161 C 
BRANCH  23  24
HETATM   24  C   UNL     1     -42.335  60.841 -59.781  1.00  0.00     0.143 C 
HETATM   25  C   UNL     1     -41.145  61.434 -58.982  1.00  0.00     0.041 C 
HETATM   26  C   UNL     1     -41.395  62.847 -58.452  1.00  0.00     0.002 C 
HETATM   27  C   UNL     1     -42.651  62.907 -57.590  1.00  0.00     0.000 C 
HETATM   28  C   UNL     1     -43.866  62.328 -58.306  1.00  0.00     0.002 C 
HETATM   29  C   UNL     1     -43.585  60.928 -58.854  1.00  0.00     0.041 C 
BRANCH  24  30
HETATM   30  N   UNL     1     -42.600  61.718 -61.061  1.00  0.00    -0.057 N 
HETATM   31  H   UNL     1     -42.826  62.655 -60.712  1.00  0.00     0.281 HD
HETATM   32  C   UNL     1     -41.404  61.934 -62.007  1.00  0.00     0.262 C 
HETATM   33  C   UNL     1     -41.784  62.968 -63.077  1.00  0.00     0.195 C 
HETATM   34  O   UNL     1     -42.921  62.538 -63.829  1.00  0.00    -0.388 OA
HETATM   35  C   UNL     1     -44.067  62.348 -62.996  1.00  0.00     0.195 C 
HETATM   36  C   UNL     1     -43.800  61.288 -61.919  1.00  0.00     0.262 C 
ENDBRANCH  24  30
ENDBRANCH  23  24
ENDBRANCH  20  23
ENDBRANCH   1  19
TORSDOF 9
ENDMDL
