MODEL 1
REMARK VINA RESULT:      -7.2      0.000      0.000
REMARK  6 active torsions:
REMARK  status: ('A' for Active; 'I' for Inactive)
REMARK    1  A    between atoms: C_2  and  O_3 
REMARK    2  A    between atoms: O_3  and  C_4 
REMARK    3  A    between atoms: C_4  and  C_5 
REMARK    4  A    between atoms: C_6  and  O_7 
REMARK    5  A    between atoms: C_12  and  O_13 
REMARK    6  A    between atoms: C_17  and  C_18 
ROOT
HETATM    1  C   UNL     1     -40.789  54.762 -51.045  1.00  0.00     0.133 C 
HETATM    2  C   UNL     1     -40.353  54.120 -49.692  1.00  0.00     0.073 C 
HETATM    3  C   UNL     1     -40.994  54.802 -48.473  1.00  0.00     0.047 C 
HETATM    4  C   UNL     1     -40.610  52.585 -49.617  1.00  0.00     0.097 C 
HETATM    5  C   UNL     1     -40.248  51.948 -50.909  1.00  0.00     0.042 A 
HETATM    6  C   UNL     1     -40.074  52.571 -52.126  1.00  0.00     0.030 A 
HETATM    7  C   UNL     1     -39.636  51.525 -52.958  1.00  0.00     0.190 A 
HETATM    8  N   UNL     1     -39.592  50.344 -52.353  1.00  0.00    -0.149 NA
HETATM    9  N   UNL     1     -39.960  50.628 -51.092  1.00  0.00    -0.279 N 
HETATM   10  H   UNL     1     -39.966  49.874 -50.413  1.00  0.00     0.189 HD
HETATM   11  C   UNL     1     -40.217  54.048 -52.307  1.00  0.00     0.075 C 
ENDROOT
BRANCH  11  12
HETATM   12  C   UNL     1     -40.977  54.327 -53.597  1.00  0.00    -0.045 A 
HETATM   13  C   UNL     1     -42.074  53.562 -54.032  1.00  0.00     0.050 A 
HETATM   14  C   UNL     1     -42.765  53.907 -55.190  1.00  0.00     0.117 A 
HETATM   15  F   UNL     1     -43.810  53.164 -55.578  1.00  0.00    -0.206 F 
HETATM   16  C   UNL     1     -42.394  55.012 -55.941  1.00  0.00     0.042 A 
HETATM   17  C   UNL     1     -41.317  55.789 -55.526  1.00  0.00     0.004 A 
HETATM   18  C   UNL     1     -40.616  55.452 -54.362  1.00  0.00     0.008 A 
ENDBRANCH  11  12
BRANCH   1  19
HETATM   19  C   UNL     1     -42.283  55.009 -51.107  1.00  0.00     0.267 C 
HETATM   20  O   UNL     1     -43.101  54.102 -51.008  1.00  0.00    -0.265 OA
BRANCH  19  21
HETATM   21  O   UNL     1     -42.593  56.313 -51.314  1.00  0.00    -0.316 OA
BRANCH  21  22
HETATM   22  C   UNL     1     -43.844  56.565 -51.986  1.00  0.00     0.123 C 
HETATM   23  C   UNL     1     -43.593  57.370 -53.257  1.00  0.00     0.040 C 
HETATM   24  C   UNL     1     -44.729  57.348 -51.024  1.00  0.00     0.040 C 
ENDBRANCH  21  22
ENDBRANCH  19  21
ENDBRANCH   1  19
BRANCH   2  25
HETATM   25  O   UNL     1     -38.927  54.319 -49.557  1.00  0.00    -0.389 OA
HETATM   26  H   UNL     1     -38.496  53.450 -49.468  1.00  0.00     0.210 HD
ENDBRANCH   2  25
BRANCH   7  27
HETATM   27  O   UNL     1     -39.263  51.547 -54.239  1.00  0.00    -0.343 OA
HETATM   28  H   UNL     1     -38.393  51.965 -54.318  1.00  0.00     0.219 HD
ENDBRANCH   7  27
TORSDOF 6
ENDMDL
MODEL 2
REMARK VINA RESULT:      -6.9      3.633      5.806
REMARK  6 active torsions:
REMARK  status: ('A' for Active; 'I' for Inactive)
REMARK    1  A    between atoms: C_2  and  O_3 
REMARK    2  A    between atoms: O_3  and  C_4 
REMARK    3  A    between atoms: C_4  and  C_5 
REMARK    4  A    between atoms: C_6  and  O_7 
REMARK    5  A    between atoms: C_12  and  O_13 
REMARK    6  A    between atoms: C_17  and  C_18 
ROOT
HETATM    1  C   UNL     1     -40.966  55.258 -53.515  1.00  0.00     0.133 C 
HETATM    2  C   UNL     1     -41.167  54.149 -54.594  1.00  0.00     0.073 C 
HETATM    3  C   UNL     1     -41.025  52.729 -54.024  1.00  0.00     0.047 C 
HETATM    4  C   UNL     1     -42.517  54.263 -55.363  1.00  0.00     0.097 C 
HETATM    5  C   UNL     1     -42.801  55.686 -55.679  1.00  0.00     0.042 A 
HETATM    6  C   UNL     1     -42.227  56.799 -55.101  1.00  0.00     0.030 A 
HETATM    7  C   UNL     1     -42.774  57.859 -55.847  1.00  0.00     0.190 A 
HETATM    8  N   UNL     1     -43.650  57.472 -56.765  1.00  0.00    -0.149 NA
HETATM    9  N   UNL     1     -43.644  56.132 -56.654  1.00  0.00    -0.279 N 
HETATM   10  H   UNL     1     -44.221  55.595 -57.293  1.00  0.00     0.189 HD
HETATM   11  C   UNL     1     -41.178  56.711 -54.041  1.00  0.00     0.075 C 
ENDROOT
BRANCH  11  12
HETATM   12  C   UNL     1     -41.462  57.746 -52.961  1.00  0.00    -0.045 A 
HETATM   13  C   UNL     1     -42.750  58.014 -52.465  1.00  0.00     0.050 A 
HETATM   14  C   UNL     1     -42.937  58.930 -51.433  1.00  0.00     0.117 A 
HETATM   15  F   UNL     1     -44.174  59.162 -50.976  1.00  0.00    -0.206 F 
HETATM   16  C   UNL     1     -41.861  59.595 -50.865  1.00  0.00     0.042 A 
HETATM   17  C   UNL     1     -40.576  59.339 -51.334  1.00  0.00     0.004 A 
HETATM   18  C   UNL     1     -40.378  58.420 -52.371  1.00  0.00     0.008 A 
ENDBRANCH  11  12
BRANCH   1  19
HETATM   19  C   UNL     1     -41.722  54.957 -52.236  1.00  0.00     0.267 C 
HETATM   20  O   UNL     1     -42.924  54.721 -52.226  1.00  0.00    -0.265 OA
BRANCH  19  21
HETATM   21  O   UNL     1     -40.934  55.013 -51.133  1.00  0.00    -0.316 OA
BRANCH  21  22
HETATM   22  C   UNL     1     -41.200  54.025 -50.117  1.00  0.00     0.123 C 
HETATM   23  C   UNL     1     -40.896  54.607 -48.740  1.00  0.00     0.040 C 
HETATM   24  C   UNL     1     -40.302  52.827 -50.400  1.00  0.00     0.040 C 
ENDBRANCH  21  22
ENDBRANCH  19  21
ENDBRANCH   1  19
BRANCH   2  25
HETATM   25  O   UNL     1     -40.109  54.296 -55.567  1.00  0.00    -0.389 OA
HETATM   26  H   UNL     1     -39.327  53.804 -55.258  1.00  0.00     0.210 HD
ENDBRANCH   2  25
BRANCH   7  27
HETATM   27  O   UNL     1     -42.540  59.171 -55.769  1.00  0.00    -0.343 OA
HETATM   28  H   UNL     1     -42.634  59.572 -56.647  1.00  0.00     0.219 HD
ENDBRANCH   7  27
TORSDOF 6
ENDMDL
MODEL 3
REMARK VINA RESULT:      -6.7      3.448      5.428
REMARK  6 active torsions:
REMARK  status: ('A' for Active; 'I' for Inactive)
REMARK    1  A    between atoms: C_2  and  O_3 
REMARK    2  A    between atoms: O_3  and  C_4 
REMARK    3  A    between atoms: C_4  and  C_5 
REMARK    4  A    between atoms: C_6  and  O_7 
REMARK    5  A    between atoms: C_12  and  O_13 
REMARK    6  A    between atoms: C_17  and  C_18 
ROOT
HETATM    1  C   UNL     1     -43.357  56.404 -52.851  1.00  0.00     0.133 C 
HETATM    2  C   UNL     1     -44.072  57.789 -52.774  1.00  0.00     0.073 C 
HETATM    3  C   UNL     1     -44.221  58.304 -51.334  1.00  0.00     0.047 C 
HETATM    4  C   UNL     1     -43.398  58.889 -53.648  1.00  0.00     0.097 C 
HETATM    5  C   UNL     1     -42.994  58.318 -54.958  1.00  0.00     0.042 A 
HETATM    6  C   UNL     1     -42.853  56.984 -55.278  1.00  0.00     0.030 A 
HETATM    7  C   UNL     1     -42.569  57.019 -56.655  1.00  0.00     0.190 A 
HETATM    8  N   UNL     1     -42.479  58.246 -57.153  1.00  0.00    -0.149 NA
HETATM    9  N   UNL     1     -42.755  59.029 -56.097  1.00  0.00    -0.279 N 
HETATM   10  H   UNL     1     -42.785  60.034 -56.239  1.00  0.00     0.189 HD
HETATM   11  C   UNL     1     -43.120  55.885 -54.302  1.00  0.00     0.075 C 
ENDROOT
BRANCH  11  12
HETATM   12  C   UNL     1     -42.038  54.821 -54.431  1.00  0.00    -0.045 A 
HETATM   13  C   UNL     1     -42.290  53.442 -54.327  1.00  0.00     0.050 A 
HETATM   14  C   UNL     1     -41.267  52.517 -54.516  1.00  0.00     0.117 A 
HETATM   15  F   UNL     1     -41.537  51.209 -54.417  1.00  0.00    -0.206 F 
HETATM   16  C   UNL     1     -39.978  52.929 -54.815  1.00  0.00     0.042 A 
HETATM   17  C   UNL     1     -39.706  54.289 -54.931  1.00  0.00     0.004 A 
HETATM   18  C   UNL     1     -40.728  55.227 -54.744  1.00  0.00     0.008 A 
ENDBRANCH  11  12
BRANCH   1  19
HETATM   19  C   UNL     1     -42.123  56.347 -51.974  1.00  0.00     0.267 C 
HETATM   20  O   UNL     1     -41.210  57.159 -52.073  1.00  0.00    -0.265 OA
BRANCH  19  21
HETATM   21  O   UNL     1     -42.136  55.297 -51.114  1.00  0.00    -0.316 OA
BRANCH  21  22
HETATM   22  C   UNL     1     -40.866  54.949 -50.525  1.00  0.00     0.123 C 
HETATM   23  C   UNL     1     -40.402  53.599 -51.063  1.00  0.00     0.040 C 
HETATM   24  C   UNL     1     -41.067  54.882 -49.016  1.00  0.00     0.040 C 
ENDBRANCH  21  22
ENDBRANCH  19  21
ENDBRANCH   1  19
BRANCH   2  25
HETATM   25  O   UNL     1     -45.416  57.611 -53.276  1.00  0.00    -0.389 OA
HETATM   26  H   UNL     1     -45.707  58.441 -53.694  1.00  0.00     0.210 HD
ENDBRANCH   2  25
BRANCH   7  27
HETATM   27  O   UNL     1     -42.385  56.016 -57.518  1.00  0.00    -0.343 OA
HETATM   28  H   UNL     1     -43.206  55.509 -57.608  1.00  0.00     0.219 HD
ENDBRANCH   7  27
TORSDOF 6
ENDMDL
MODEL 4
REMARK VINA RESULT:      -6.5      3.257      5.294
REMARK  6 active torsions:
REMARK  status: ('A' for Active; 'I' for Inactive)
REMARK    1  A    between atoms: C_2  and  O_3 
REMARK    2  A    between atoms: O_3  and  C_4 
REMARK    3  A    between atoms: C_4  and  C_5 
REMARK    4  A    between atoms: C_6  and  O_7 
REMARK    5  A    between atoms: C_12  and  O_13 
REMARK    6  A    between atoms: C_17  and  C_18 
ROOT
HETATM    1  C   UNL     1     -42.828  56.061 -53.050  1.00  0.00     0.133 C 
HETATM    2  C   UNL     1     -42.834  54.582 -53.545  1.00  0.00     0.073 C 
HETATM    3  C   UNL     1     -43.045  54.461 -55.063  1.00  0.00     0.047 C 
HETATM    4  C   UNL     1     -41.562  53.781 -53.137  1.00  0.00     0.097 C 
HETATM    5  C   UNL     1     -41.185  54.109 -51.739  1.00  0.00     0.042 A 
HETATM    6  C   UNL     1     -41.597  55.195 -50.997  1.00  0.00     0.030 A 
HETATM    7  C   UNL     1     -41.034  54.946 -49.732  1.00  0.00     0.190 A 
HETATM    8  N   UNL     1     -40.291  53.847 -49.684  1.00  0.00    -0.149 NA
HETATM    9  N   UNL     1     -40.406  53.341 -50.924  1.00  0.00    -0.279 N 
HETATM   10  H   UNL     1     -39.945  52.460 -51.127  1.00  0.00     0.189 HD
HETATM   11  C   UNL     1     -42.541  56.226 -51.526  1.00  0.00     0.075 C 
ENDROOT
BRANCH  11  12
HETATM   12  C   UNL     1     -42.059  57.610 -51.113  1.00  0.00    -0.045 A 
HETATM   13  C   UNL     1     -40.706  57.932 -50.911  1.00  0.00     0.050 A 
HETATM   14  C   UNL     1     -40.325  59.233 -50.595  1.00  0.00     0.117 A 
HETATM   15  F   UNL     1     -39.028  59.513 -50.413  1.00  0.00    -0.206 F 
HETATM   16  C   UNL     1     -41.266  60.244 -50.475  1.00  0.00     0.042 A 
HETATM   17  C   UNL     1     -42.612  59.951 -50.678  1.00  0.00     0.004 A 
HETATM   18  C   UNL     1     -43.005  58.646 -50.998  1.00  0.00     0.008 A 
ENDBRANCH  11  12
BRANCH   1  19
HETATM   19  C   UNL     1     -41.980  56.956 -53.931  1.00  0.00     0.267 C 
HETATM   20  O   UNL     1     -40.775  56.784 -54.074  1.00  0.00    -0.265 OA
BRANCH  19  21
HETATM   21  O   UNL     1     -42.691  57.963 -54.498  1.00  0.00    -0.316 OA
BRANCH  21  22
HETATM   22  C   UNL     1     -41.920  59.072 -55.005  1.00  0.00     0.123 C 
HETATM   23  C   UNL     1     -42.280  60.342 -54.241  1.00  0.00     0.040 C 
HETATM   24  C   UNL     1     -42.258  59.224 -56.483  1.00  0.00     0.040 C 
ENDBRANCH  21  22
ENDBRANCH  19  21
ENDBRANCH   1  19
BRANCH   2  25
HETATM   25  O   UNL     1     -43.966  53.925 -52.932  1.00  0.00    -0.389 OA
HETATM   26  H   UNL     1     -43.664  53.465 -52.128  1.00  0.00     0.210 HD
ENDBRANCH   2  25
BRANCH   7  27
HETATM   27  O   UNL     1     -41.141  55.637 -48.595  1.00  0.00    -0.343 OA
HETATM   28  H   UNL     1     -42.075  55.733 -48.358  1.00  0.00     0.219 HD
ENDBRANCH   7  27
TORSDOF 6
ENDMDL
MODEL 5
REMARK VINA RESULT:      -6.5      4.116      7.017
REMARK  6 active torsions:
REMARK  status: ('A' for Active; 'I' for Inactive)
REMARK    1  A    between atoms: C_2  and  O_3 
REMARK    2  A    between atoms: O_3  and  C_4 
REMARK    3  A    between atoms: C_4  and  C_5 
REMARK    4  A    between atoms: C_6  and  O_7 
REMARK    5  A    between atoms: C_12  and  O_13 
REMARK    6  A    between atoms: C_17  and  C_18 
ROOT
HETATM    1  C   UNL     1     -42.113  58.173 -53.739  1.00  0.00     0.133 C 
HETATM    2  C   UNL     1     -42.614  59.207 -54.795  1.00  0.00     0.073 C 
HETATM    3  C   UNL     1     -42.108  58.905 -56.214  1.00  0.00     0.047 C 
HETATM    4  C   UNL     1     -44.163  59.370 -54.824  1.00  0.00     0.097 C 
HETATM    5  C   UNL     1     -44.696  59.384 -53.438  1.00  0.00     0.042 A 
HETATM    6  C   UNL     1     -44.058  58.954 -52.294  1.00  0.00     0.030 A 
HETATM    7  C   UNL     1     -44.965  59.300 -51.276  1.00  0.00     0.190 A 
HETATM    8  N   UNL     1     -46.091  59.841 -51.724  1.00  0.00    -0.149 NA
HETATM    9  N   UNL     1     -45.901  59.895 -53.053  1.00  0.00    -0.279 N 
HETATM   10  H   UNL     1     -46.627  60.314 -53.625  1.00  0.00     0.189 HD
HETATM   11  C   UNL     1     -42.667  58.406 -52.301  1.00  0.00     0.075 C 
ENDROOT
BRANCH  11  12
HETATM   12  C   UNL     1     -42.600  57.190 -51.386  1.00  0.00    -0.045 A 
HETATM   13  C   UNL     1     -43.622  56.229 -51.298  1.00  0.00     0.050 A 
HETATM   14  C   UNL     1     -43.474  55.106 -50.488  1.00  0.00     0.117 A 
HETATM   15  F   UNL     1     -44.461  54.204 -50.427  1.00  0.00    -0.206 F 
HETATM   16  C   UNL     1     -42.314  54.904 -49.754  1.00  0.00     0.042 A 
HETATM   17  C   UNL     1     -41.285  55.837 -49.833  1.00  0.00     0.004 A 
HETATM   18  C   UNL     1     -41.425  56.968 -50.644  1.00  0.00     0.008 A 
ENDBRANCH  11  12
BRANCH   1  19
HETATM   19  C   UNL     1     -42.255  56.745 -54.225  1.00  0.00     0.267 C 
HETATM   20  O   UNL     1     -43.324  56.287 -54.612  1.00  0.00    -0.265 OA
BRANCH  19  21
HETATM   21  O   UNL     1     -41.095  56.045 -54.147  1.00  0.00    -0.316 OA
BRANCH  21  22
HETATM   22  C   UNL     1     -41.212  54.614 -54.286  1.00  0.00     0.123 C 
HETATM   23  C   UNL     1     -40.957  53.943 -52.940  1.00  0.00     0.040 C 
HETATM   24  C   UNL     1     -40.174  54.169 -55.309  1.00  0.00     0.040 C 
ENDBRANCH  21  22
ENDBRANCH  19  21
ENDBRANCH   1  19
BRANCH   2  25
HETATM   25  O   UNL     1     -42.058  60.493 -54.439  1.00  0.00    -0.389 OA
HETATM   26  H   UNL     1     -41.205  60.604 -54.897  1.00  0.00     0.210 HD
ENDBRANCH   2  25
BRANCH   7  27
HETATM   27  O   UNL     1     -44.857  59.170 -49.952  1.00  0.00    -0.343 OA
HETATM   28  H   UNL     1     -45.379  59.859 -49.513  1.00  0.00     0.219 HD
ENDBRANCH   7  27
TORSDOF 6
ENDMDL
MODEL 6
REMARK VINA RESULT:      -6.4      4.155      6.406
REMARK  6 active torsions:
REMARK  status: ('A' for Active; 'I' for Inactive)
REMARK    1  A    between atoms: C_2  and  O_3 
REMARK    2  A    between atoms: O_3  and  C_4 
REMARK    3  A    between atoms: C_4  and  C_5 
REMARK    4  A    between atoms: C_6  and  O_7 
REMARK    5  A    between atoms: C_12  and  O_13 
REMARK    6  A    between atoms: C_17  and  C_18 
ROOT
HETATM    1  C   UNL     1     -43.673  58.164 -53.944  1.00  0.00     0.133 C 
HETATM    2  C   UNL     1     -44.262  59.464 -54.574  1.00  0.00     0.073 C 
HETATM    3  C   UNL     1     -44.128  60.687 -53.653  1.00  0.00     0.047 C 
HETATM    4  C   UNL     1     -43.668  59.805 -55.973  1.00  0.00     0.097 C 
HETATM    5  C   UNL     1     -43.534  58.567 -56.781  1.00  0.00     0.042 A 
HETATM    6  C   UNL     1     -43.546  57.266 -56.323  1.00  0.00     0.030 A 
HETATM    7  C   UNL     1     -43.497  56.513 -57.510  1.00  0.00     0.190 A 
HETATM    8  N   UNL     1     -43.404  57.251 -58.609  1.00  0.00    -0.149 NA
HETATM    9  N   UNL     1     -43.439  58.510 -58.141  1.00  0.00    -0.279 N 
HETATM   10  H   UNL     1     -43.420  59.272 -58.811  1.00  0.00     0.189 HD
HETATM   11  C   UNL     1     -43.723  56.918 -54.881  1.00  0.00     0.075 C 
ENDROOT
BRANCH  11  12
HETATM   12  C   UNL     1     -42.758  55.801 -54.509  1.00  0.00    -0.045 A 
HETATM   13  C   UNL     1     -41.480  55.659 -55.078  1.00  0.00     0.050 A 
HETATM   14  C   UNL     1     -40.620  54.651 -54.650  1.00  0.00     0.117 A 
HETATM   15  F   UNL     1     -39.406  54.542 -55.205  1.00  0.00    -0.206 F 
HETATM   16  C   UNL     1     -40.998  53.766 -53.651  1.00  0.00     0.042 A 
HETATM   17  C   UNL     1     -42.256  53.892 -53.068  1.00  0.00     0.004 A 
HETATM   18  C   UNL     1     -43.127  54.903 -53.490  1.00  0.00     0.008 A 
ENDBRANCH  11  12
BRANCH   1  19
HETATM   19  C   UNL     1     -42.315  58.398 -53.313  1.00  0.00     0.267 C 
HETATM   20  O   UNL     1     -41.345  58.770 -53.962  1.00  0.00    -0.265 OA
BRANCH  19  21
HETATM   21  O   UNL     1     -42.297  58.119 -51.985  1.00  0.00    -0.316 OA
BRANCH  21  22
HETATM   22  C   UNL     1     -41.014  57.759 -51.433  1.00  0.00     0.123 C 
HETATM   23  C   UNL     1     -41.142  56.470 -50.628  1.00  0.00     0.040 C 
HETATM   24  C   UNL     1     -40.566  58.906 -50.536  1.00  0.00     0.040 C 
ENDBRANCH  21  22
ENDBRANCH  19  21
ENDBRANCH   1  19
BRANCH   2  25
HETATM   25  O   UNL     1     -45.681  59.254 -54.754  1.00  0.00    -0.389 OA
HETATM   26  H   UNL     1     -46.088  59.101 -53.882  1.00  0.00     0.210 HD
ENDBRANCH   2  25
BRANCH   7  27
HETATM   27  O   UNL     1     -43.535  55.190 -57.687  1.00  0.00    -0.343 OA
HETATM   28  H   UNL     1     -42.919  54.761 -57.074  1.00  0.00     0.219 HD
ENDBRANCH   7  27
TORSDOF 6
ENDMDL
MODEL 7
REMARK VINA RESULT:      -6.3     14.356     16.006
REMARK  6 active torsions:
REMARK  status: ('A' for Active; 'I' for Inactive)
REMARK    1  A    between atoms: C_2  and  O_3 
REMARK    2  A    between atoms: O_3  and  C_4 
REMARK    3  A    between atoms: C_4  and  C_5 
REMARK    4  A    between atoms: C_6  and  O_7 
REMARK    5  A    between atoms: C_12  and  O_13 
REMARK    6  A    between atoms: C_17  and  C_18 
ROOT
HETATM    1  C   UNL     1     -33.851  40.813 -53.434  1.00  0.00     0.133 C 
HETATM    2  C   UNL     1     -32.936  40.333 -52.265  1.00  0.00     0.073 C 
HETATM    3  C   UNL     1     -33.660  40.310 -50.910  1.00  0.00     0.047 C 
HETATM    4  C   UNL     1     -32.276  38.945 -52.519  1.00  0.00     0.097 C 
HETATM    5  C   UNL     1     -31.814  38.854 -53.928  1.00  0.00     0.042 A 
HETATM    6  C   UNL     1     -32.201  39.650 -54.985  1.00  0.00     0.030 A 
HETATM    7  C   UNL     1     -31.381  39.201 -56.035  1.00  0.00     0.190 A 
HETATM    8  N   UNL     1     -30.594  38.184 -55.704  1.00  0.00    -0.149 NA
HETATM    9  N   UNL     1     -30.867  37.994 -54.402  1.00  0.00    -0.279 N 
HETATM   10  H   UNL     1     -30.350  37.278 -53.902  1.00  0.00     0.189 HD
HETATM   11  C   UNL     1     -33.171  40.777 -54.837  1.00  0.00     0.075 C 
ENDROOT
BRANCH  11  12
HETATM   12  C   UNL     1     -34.137  40.770 -56.014  1.00  0.00    -0.045 A 
HETATM   13  C   UNL     1     -34.577  39.595 -56.648  1.00  0.00     0.050 A 
HETATM   14  C   UNL     1     -35.510  39.651 -57.681  1.00  0.00     0.117 A 
HETATM   15  F   UNL     1     -35.916  38.516 -58.263  1.00  0.00    -0.206 F 
HETATM   16  C   UNL     1     -36.031  40.864 -58.106  1.00  0.00     0.042 A 
HETATM   17  C   UNL     1     -35.616  42.040 -57.487  1.00  0.00     0.004 A 
HETATM   18  C   UNL     1     -34.680  41.993 -56.448  1.00  0.00     0.008 A 
ENDBRANCH  11  12
BRANCH   1  19
HETATM   19  C   UNL     1     -35.216  40.157 -53.400  1.00  0.00     0.267 C 
HETATM   20  O   UNL     1     -35.362  38.943 -53.487  1.00  0.00    -0.265 OA
BRANCH  19  21
HETATM   21  O   UNL     1     -36.230  41.053 -53.301  1.00  0.00    -0.316 OA
BRANCH  21  22
HETATM   22  C   UNL     1     -37.545  40.555 -53.617  1.00  0.00     0.123 C 
HETATM   23  C   UNL     1     -37.994  41.106 -54.967  1.00  0.00     0.040 C 
HETATM   24  C   UNL     1     -38.486  41.019 -52.512  1.00  0.00     0.040 C 
ENDBRANCH  21  22
ENDBRANCH  19  21
ENDBRANCH   1  19
BRANCH   2  25
HETATM   25  O   UNL     1     -31.865  41.294 -52.129  1.00  0.00    -0.389 OA
HETATM   26  H   UNL     1     -32.147  42.136 -52.531  1.00  0.00     0.210 HD
ENDBRANCH   2  25
BRANCH   7  27
HETATM   27  O   UNL     1     -31.278  39.642 -57.291  1.00  0.00    -0.343 OA
HETATM   28  H   UNL     1     -30.444  40.123 -57.401  1.00  0.00     0.219 HD
ENDBRANCH   7  27
TORSDOF 6
ENDMDL
MODEL 8
REMARK VINA RESULT:      -6.3      3.562      5.651
REMARK  6 active torsions:
REMARK  status: ('A' for Active; 'I' for Inactive)
REMARK    1  A    between atoms: C_2  and  O_3 
REMARK    2  A    between atoms: O_3  and  C_4 
REMARK    3  A    between atoms: C_4  and  C_5 
REMARK    4  A    between atoms: C_6  and  O_7 
REMARK    5  A    between atoms: C_12  and  O_13 
REMARK    6  A    between atoms: C_17  and  C_18 
ROOT
HETATM    1  C   UNL     1     -43.920  56.197 -52.750  1.00  0.00     0.133 C 
HETATM    2  C   UNL     1     -43.416  55.947 -51.295  1.00  0.00     0.073 C 
HETATM    3  C   UNL     1     -43.500  54.470 -50.880  1.00  0.00     0.047 C 
HETATM    4  C   UNL     1     -41.974  56.474 -51.034  1.00  0.00     0.097 C 
HETATM    5  C   UNL     1     -41.795  57.800 -51.680  1.00  0.00     0.042 A 
HETATM    6  C   UNL     1     -42.578  58.358 -52.668  1.00  0.00     0.030 A 
HETATM    7  C   UNL     1     -42.029  59.644 -52.817  1.00  0.00     0.190 A 
HETATM    8  N   UNL     1     -40.969  59.866 -52.049  1.00  0.00    -0.149 NA
HETATM    9  N   UNL     1     -40.849  58.725 -51.350  1.00  0.00    -0.279 N 
HETATM   10  H   UNL     1     -40.115  58.665 -50.651  1.00  0.00     0.189 HD
HETATM   11  C   UNL     1     -43.780  57.673 -53.232  1.00  0.00     0.075 C 
ENDROOT
BRANCH  11  12
HETATM   12  C   UNL     1     -43.802  57.855 -54.744  1.00  0.00    -0.045 A 
HETATM   13  C   UNL     1     -42.651  57.786 -55.549  1.00  0.00     0.050 A 
HETATM   14  C   UNL     1     -42.746  57.900 -56.934  1.00  0.00     0.117 A 
HETATM   15  F   UNL     1     -41.635  57.825 -57.677  1.00  0.00    -0.206 F 
HETATM   16  C   UNL     1     -43.974  58.079 -57.553  1.00  0.00     0.042 A 
HETATM   17  C   UNL     1     -45.127  58.141 -56.777  1.00  0.00     0.004 A 
HETATM   18  C   UNL     1     -45.043  58.027 -55.385  1.00  0.00     0.008 A 
ENDBRANCH  11  12
BRANCH   1  19
HETATM   19  C   UNL     1     -43.371  55.180 -53.729  1.00  0.00     0.267 C 
HETATM   20  O   UNL     1     -44.097  54.498 -54.443  1.00  0.00    -0.265 OA
BRANCH  19  21
HETATM   21  O   UNL     1     -42.017  55.094 -53.695  1.00  0.00    -0.316 OA
BRANCH  21  22
HETATM   22  C   UNL     1     -41.452  53.846 -54.147  1.00  0.00     0.123 C 
HETATM   23  C   UNL     1     -40.782  53.130 -52.979  1.00  0.00     0.040 C 
HETATM   24  C   UNL     1     -40.430  54.174 -55.229  1.00  0.00     0.040 C 
ENDBRANCH  21  22
ENDBRANCH  19  21
ENDBRANCH   1  19
BRANCH   2  25
HETATM   25  O   UNL     1     -44.299  56.663 -50.402  1.00  0.00    -0.389 OA
HETATM   26  H   UNL     1     -44.210  56.288 -49.507  1.00  0.00     0.210 HD
ENDBRANCH   2  25
BRANCH   7  27
HETATM   27  O   UNL     1     -42.413  60.655 -53.600  1.00  0.00    -0.343 OA
HETATM   28  H   UNL     1     -41.804  61.401 -53.493  1.00  0.00     0.219 HD
ENDBRANCH   7  27
TORSDOF 6
ENDMDL
MODEL 9
REMARK VINA RESULT:      -6.2      2.939      5.016
REMARK  6 active torsions:
REMARK  status: ('A' for Active; 'I' for Inactive)
REMARK    1  A    between atoms: C_2  and  O_3 
REMARK    2  A    between atoms: O_3  and  C_4 
REMARK    3  A    between atoms: C_4  and  C_5 
REMARK    4  A    between atoms: C_6  and  O_7 
REMARK    5  A    between atoms: C_12  and  O_13 
REMARK    6  A    between atoms: C_17  and  C_18 
ROOT
HETATM    1  C   UNL     1     -42.092  54.158 -51.796  1.00  0.00     0.133 C 
HETATM    2  C   UNL     1     -41.665  54.391 -50.314  1.00  0.00     0.073 C 
HETATM    3  C   UNL     1     -40.757  53.277 -49.772  1.00  0.00     0.047 C 
HETATM    4  C   UNL     1     -40.987  55.772 -50.069  1.00  0.00     0.097 C 
HETATM    5  C   UNL     1     -41.705  56.830 -50.824  1.00  0.00     0.042 A 
HETATM    6  C   UNL     1     -42.581  56.656 -51.875  1.00  0.00     0.030 A 
HETATM    7  C   UNL     1     -43.039  57.962 -52.124  1.00  0.00     0.190 A 
HETATM    8  N   UNL     1     -42.473  58.884 -51.356  1.00  0.00    -0.149 NA
HETATM    9  N   UNL     1     -41.665  58.167 -50.556  1.00  0.00    -0.279 N 
HETATM   10  H   UNL     1     -41.141  58.657 -49.839  1.00  0.00     0.189 HD
HETATM   11  C   UNL     1     -42.953  55.308 -52.403  1.00  0.00     0.075 C 
ENDROOT
BRANCH  11  12
HETATM   12  C   UNL     1     -42.977  55.352 -53.925  1.00  0.00    -0.045 A 
HETATM   13  C   UNL     1     -42.415  56.397 -54.679  1.00  0.00     0.050 A 
HETATM   14  C   UNL     1     -42.415  56.348 -56.071  1.00  0.00     0.117 A 
HETATM   15  F   UNL     1     -41.868  57.354 -56.764  1.00  0.00    -0.206 F 
HETATM   16  C   UNL     1     -42.962  55.268 -56.747  1.00  0.00     0.042 A 
HETATM   17  C   UNL     1     -43.517  54.218 -56.022  1.00  0.00     0.004 A 
HETATM   18  C   UNL     1     -43.521  54.258 -54.623  1.00  0.00     0.008 A 
ENDBRANCH  11  12
BRANCH   1  19
HETATM   19  C   UNL     1     -40.926  53.742 -52.669  1.00  0.00     0.267 C 
HETATM   20  O   UNL     1     -40.002  54.502 -52.935  1.00  0.00    -0.265 OA
BRANCH  19  21
HETATM   21  O   UNL     1     -41.044  52.473 -53.136  1.00  0.00    -0.316 OA
BRANCH  21  22
HETATM   22  C   UNL     1     -39.808  51.762 -53.348  1.00  0.00     0.123 C 
HETATM   23  C   UNL     1     -40.002  50.703 -54.428  1.00  0.00     0.040 C 
HETATM   24  C   UNL     1     -39.425  51.110 -52.025  1.00  0.00     0.040 C 
ENDBRANCH  21  22
ENDBRANCH  19  21
ENDBRANCH   1  19
BRANCH   2  25
HETATM   25  O   UNL     1     -42.864  54.357 -49.507  1.00  0.00    -0.389 OA
HETATM   26  H   UNL     1     -42.891  55.157 -48.951  1.00  0.00     0.210 HD
ENDBRANCH   2  25
BRANCH   7  27
HETATM   27  O   UNL     1     -43.945  58.399 -53.002  1.00  0.00    -0.343 OA
HETATM   28  H   UNL     1     -44.404  59.172 -52.639  1.00  0.00     0.219 HD
ENDBRANCH   7  27
TORSDOF 6
ENDMDL
MODEL 10
REMARK VINA RESULT:      -6.2      4.008      6.569
REMARK  6 active torsions:
REMARK  status: ('A' for Active; 'I' for Inactive)
REMARK    1  A    between atoms: C_2  and  O_3 
REMARK    2  A    between atoms: O_3  and  C_4 
REMARK    3  A    between atoms: C_4  and  C_5 
REMARK    4  A    between atoms: C_6  and  O_7 
REMARK    5  A    between atoms: C_12  and  O_13 
REMARK    6  A    between atoms: C_17  and  C_18 
ROOT
HETATM    1  C   UNL     1     -42.221  58.068 -55.648  1.00  0.00     0.133 C 
HETATM    2  C   UNL     1     -42.715  59.546 -55.710  1.00  0.00     0.073 C 
HETATM    3  C   UNL     1     -43.479  59.866 -57.004  1.00  0.00     0.047 C 
HETATM    4  C   UNL     1     -43.579  59.968 -54.485  1.00  0.00     0.097 C 
HETATM    5  C   UNL     1     -42.989  59.419 -53.237  1.00  0.00     0.042 A 
HETATM    6  C   UNL     1     -42.070  58.397 -53.128  1.00  0.00     0.030 A 
HETATM    7  C   UNL     1     -41.785  58.373 -51.751  1.00  0.00     0.190 A 
HETATM    8  N   UNL     1     -42.491  59.247 -51.044  1.00  0.00    -0.149 NA
HETATM    9  N   UNL     1     -43.216  59.888 -51.976  1.00  0.00    -0.279 N 
HETATM   10  H   UNL     1     -43.821  60.646 -51.677  1.00  0.00     0.189 HD
HETATM   11  C   UNL     1     -41.507  57.686 -54.316  1.00  0.00     0.075 C 
ENDROOT
BRANCH  11  12
HETATM   12  C   UNL     1     -41.448  56.191 -54.028  1.00  0.00    -0.045 A 
HETATM   13  C   UNL     1     -42.365  55.526 -53.195  1.00  0.00     0.050 A 
HETATM   14  C   UNL     1     -42.295  54.147 -53.021  1.00  0.00     0.117 A 
HETATM   15  F   UNL     1     -43.183  53.538 -52.226  1.00  0.00    -0.206 F 
HETATM   16  C   UNL     1     -41.326  53.394 -53.667  1.00  0.00     0.042 A 
HETATM   17  C   UNL     1     -40.413  54.029 -54.504  1.00  0.00     0.004 A 
HETATM   18  C   UNL     1     -40.476  55.416 -54.686  1.00  0.00     0.008 A 
ENDBRANCH  11  12
BRANCH   1  19
HETATM   19  C   UNL     1     -43.297  57.086 -56.067  1.00  0.00     0.267 C 
HETATM   20  O   UNL     1     -44.392  57.041 -55.519  1.00  0.00    -0.265 OA
BRANCH  19  21
HETATM   21  O   UNL     1     -42.898  56.263 -57.070  1.00  0.00    -0.316 OA
BRANCH  21  22
HETATM   22  C   UNL     1     -43.491  56.510 -58.361  1.00  0.00     0.123 C 
HETATM   23  C   UNL     1     -43.921  55.189 -58.991  1.00  0.00     0.040 C 
HETATM   24  C   UNL     1     -42.437  57.194 -59.223  1.00  0.00     0.040 C 
ENDBRANCH  21  22
ENDBRANCH  19  21
ENDBRANCH   1  19
BRANCH   2  25
HETATM   25  O   UNL     1     -41.544  60.394 -55.718  1.00  0.00    -0.389 OA
HETATM   26  H   UNL     1     -41.815  61.304 -55.502  1.00  0.00     0.210 HD
ENDBRANCH   2  25
BRANCH   7  27
HETATM   27  O   UNL     1     -40.923  57.618 -51.067  1.00  0.00    -0.343 OA
HETATM   28  H   UNL     1     -40.095  58.104 -50.937  1.00  0.00     0.219 HD
ENDBRANCH   7  27
TORSDOF 6
ENDMDL
