MODEL 1
REMARK VINA RESULT:      -7.9      0.000      0.000
REMARK  4 active torsions:
REMARK  status: ('A' for Active; 'I' for Inactive)
REMARK    1  A    between atoms: C_5  and  C_6 
REMARK    2  A    between atoms: C_9  and  C_10 
REMARK    3  A    between atoms: C_10  and  N_11 
REMARK       I    between atoms: N_11  and  C_12 
REMARK       I    between atoms: C_12  and  N_13 
REMARK    4  A    between atoms: N_13  and  C_14 
ROOT
HETATM    1  C   UNL     1     -44.390  57.096 -54.284  1.00  0.00     0.213 C 
ENDROOT
BRANCH   1   2
HETATM    2  C   UNL     1     -43.330  56.222 -53.730  1.00  0.00     0.190 A 
HETATM    3  O   UNL     1     -42.427  56.808 -52.895  1.00  0.00    -0.194 OA
HETATM    4  N   UNL     1     -41.494  55.828 -52.568  1.00  0.00    -0.106 NA
HETATM    5  C   UNL     1     -41.920  54.741 -53.233  1.00  0.00     0.189 A 
HETATM    6  N   UNL     1     -43.075  54.952 -53.962  1.00  0.00    -0.202 NA
BRANCH   5   7
HETATM    7  C   UNL     1     -41.225  53.457 -53.220  1.00  0.00     0.014 A 
HETATM    8  C   UNL     1     -40.490  53.043 -52.099  1.00  0.00     0.016 A 
HETATM    9  C   UNL     1     -39.815  51.818 -52.098  1.00  0.00     0.007 A 
HETATM   10  C   UNL     1     -39.860  50.985 -53.220  1.00  0.00    -0.062 A 
HETATM   11  C   UNL     1     -39.155  49.660 -53.223  1.00  0.00     0.048 C 
HETATM   12  C   UNL     1     -40.599  51.388 -54.338  1.00  0.00     0.007 A 
HETATM   13  C   UNL     1     -41.272  52.614 -54.338  1.00  0.00     0.016 A 
ENDBRANCH   5   7
ENDBRANCH   1   2
BRANCH   1  14
HETATM   14  N   UNL     1     -44.395  57.034 -55.732  1.00  0.00    -0.335 N 
HETATM   15  C   UNL     1     -43.806  58.001 -56.481  1.00  0.00     0.321 C 
HETATM   16  N   UNL     1     -43.716  57.798 -57.822  1.00  0.00    -0.309 N 
HETATM   17  O   UNL     1     -43.287  58.999 -55.989  1.00  0.00    -0.247 OA
HETATM   18  H   UNL     1     -43.053  58.441 -58.241  1.00  0.00     0.170 HD
HETATM   19  H   UNL     1     -44.466  56.118 -56.149  1.00  0.00     0.164 HD
BRANCH  16  20
HETATM   20  C   UNL     1     -44.359  56.910 -58.701  1.00  0.00     0.036 A 
HETATM   21  C   UNL     1     -45.624  57.130 -59.253  1.00  0.00     0.029 A 
HETATM   22  C   UNL     1     -46.185  56.193 -60.129  1.00  0.00     0.002 A 
HETATM   23  C   UNL     1     -45.482  55.039 -60.468  1.00  0.00     0.000 A 
HETATM   24  C   UNL     1     -44.208  54.828 -59.948  1.00  0.00     0.002 A 
HETATM   25  C   UNL     1     -43.645  55.765 -59.079  1.00  0.00     0.029 A 
ENDBRANCH  16  20
ENDBRANCH   1  14
TORSDOF 4
ENDMDL
MODEL 2
REMARK VINA RESULT:      -7.9      1.521      1.864
REMARK  4 active torsions:
REMARK  status: ('A' for Active; 'I' for Inactive)
REMARK    1  A    between atoms: C_5  and  C_6 
REMARK    2  A    between atoms: C_9  and  C_10 
REMARK    3  A    between atoms: C_10  and  N_11 
REMARK       I    between atoms: N_11  and  C_12 
REMARK       I    between atoms: C_12  and  N_13 
REMARK    4  A    between atoms: N_13  and  C_14 
ROOT
HETATM    1  C   UNL     1     -42.925  57.868 -53.598  1.00  0.00     0.213 C 
ENDROOT
BRANCH   1   2
HETATM    2  C   UNL     1     -42.253  56.657 -53.070  1.00  0.00     0.190 A 
HETATM    3  O   UNL     1     -41.705  56.754 -51.827  1.00  0.00    -0.194 OA
HETATM    4  N   UNL     1     -41.070  55.541 -51.577  1.00  0.00    -0.106 NA
HETATM    5  C   UNL     1     -41.295  54.823 -52.690  1.00  0.00     0.189 A 
HETATM    6  N   UNL     1     -42.044  55.490 -53.641  1.00  0.00    -0.202 NA
BRANCH   5   7
HETATM    7  C   UNL     1     -40.781  53.473 -52.904  1.00  0.00     0.014 A 
HETATM    8  C   UNL     1     -40.087  52.794 -51.892  1.00  0.00     0.016 A 
HETATM    9  C   UNL     1     -39.585  51.507 -52.107  1.00  0.00     0.007 A 
HETATM   10  C   UNL     1     -39.763  50.875 -53.342  1.00  0.00    -0.062 A 
HETATM   11  C   UNL     1     -39.244  49.487 -53.578  1.00  0.00     0.048 C 
HETATM   12  C   UNL     1     -40.461  51.544 -54.353  1.00  0.00     0.007 A 
HETATM   13  C   UNL     1     -40.962  52.832 -54.137  1.00  0.00     0.016 A 
ENDBRANCH   5   7
ENDBRANCH   1   2
BRANCH   1  14
HETATM   14  N   UNL     1     -43.177  57.729 -55.019  1.00  0.00    -0.335 N 
HETATM   15  C   UNL     1     -44.431  57.513 -55.494  1.00  0.00     0.321 C 
HETATM   16  N   UNL     1     -44.614  57.548 -56.841  1.00  0.00    -0.309 N 
HETATM   17  O   UNL     1     -45.405  57.371 -54.759  1.00  0.00    -0.247 OA
HETATM   18  H   UNL     1     -45.598  57.625 -57.069  1.00  0.00     0.170 HD
HETATM   19  H   UNL     1     -42.527  58.182 -55.644  1.00  0.00     0.164 HD
BRANCH  16  20
HETATM   20  C   UNL     1     -43.727  57.480 -57.929  1.00  0.00     0.036 A 
HETATM   21  C   UNL     1     -43.000  58.569 -58.418  1.00  0.00     0.029 A 
HETATM   22  C   UNL     1     -42.132  58.407 -59.503  1.00  0.00     0.002 A 
HETATM   23  C   UNL     1     -41.973  57.158 -60.097  1.00  0.00     0.000 A 
HETATM   24  C   UNL     1     -42.668  56.061 -59.595  1.00  0.00     0.002 A 
HETATM   25  C   UNL     1     -43.531  56.220 -58.509  1.00  0.00     0.029 A 
ENDBRANCH  16  20
ENDBRANCH   1  14
TORSDOF 4
ENDMDL
MODEL 3
REMARK VINA RESULT:      -7.7      2.137      7.451
REMARK  4 active torsions:
REMARK  status: ('A' for Active; 'I' for Inactive)
REMARK    1  A    between atoms: C_5  and  C_6 
REMARK    2  A    between atoms: C_9  and  C_10 
REMARK    3  A    between atoms: C_10  and  N_11 
REMARK       I    between atoms: N_11  and  C_12 
REMARK       I    between atoms: C_12  and  N_13 
REMARK    4  A    between atoms: N_13  and  C_14 
ROOT
HETATM    1  C   UNL     1     -43.103  54.935 -51.644  1.00  0.00     0.213 C 
ENDROOT
BRANCH   1   2
HETATM    2  C   UNL     1     -43.234  55.796 -52.842  1.00  0.00     0.190 A 
HETATM    3  O   UNL     1     -44.120  56.828 -52.762  1.00  0.00    -0.194 OA
HETATM    4  N   UNL     1     -44.132  57.440 -54.012  1.00  0.00    -0.106 NA
HETATM    5  C   UNL     1     -43.251  56.724 -54.730  1.00  0.00     0.189 A 
HETATM    6  N   UNL     1     -42.662  55.694 -54.023  1.00  0.00    -0.202 NA
BRANCH   5   7
HETATM    7  C   UNL     1     -42.952  56.980 -56.137  1.00  0.00     0.014 A 
HETATM    8  C   UNL     1     -42.519  58.243 -56.566  1.00  0.00     0.016 A 
HETATM    9  C   UNL     1     -42.248  58.485 -57.917  1.00  0.00     0.007 A 
HETATM   10  C   UNL     1     -42.407  57.470 -58.865  1.00  0.00    -0.062 A 
HETATM   11  C   UNL     1     -42.100  57.713 -60.313  1.00  0.00     0.048 C 
HETATM   12  C   UNL     1     -42.829  56.205 -58.440  1.00  0.00     0.007 A 
HETATM   13  C   UNL     1     -43.102  55.964 -57.090  1.00  0.00     0.016 A 
ENDBRANCH   5   7
ENDBRANCH   1   2
BRANCH   1  14
HETATM   14  N   UNL     1     -42.042  53.966 -51.828  1.00  0.00    -0.335 N 
HETATM   15  C   UNL     1     -40.834  54.121 -51.227  1.00  0.00     0.321 C 
HETATM   16  N   UNL     1     -39.942  53.099 -51.321  1.00  0.00    -0.309 N 
HETATM   17  O   UNL     1     -40.552  55.103 -50.544  1.00  0.00    -0.247 OA
HETATM   18  H   UNL     1     -39.195  53.210 -50.645  1.00  0.00     0.170 HD
HETATM   19  H   UNL     1     -42.319  53.022 -52.051  1.00  0.00     0.164 HD
BRANCH  16  20
HETATM   20  C   UNL     1     -39.860  51.974 -52.159  1.00  0.00     0.036 A 
HETATM   21  C   UNL     1     -39.955  52.026 -53.553  1.00  0.00     0.029 A 
HETATM   22  C   UNL     1     -39.853  50.854 -54.311  1.00  0.00     0.002 A 
HETATM   23  C   UNL     1     -39.643  49.628 -53.685  1.00  0.00     0.000 A 
HETATM   24  C   UNL     1     -39.515  49.572 -52.300  1.00  0.00     0.002 A 
HETATM   25  C   UNL     1     -39.611  50.741 -51.543  1.00  0.00     0.029 A 
ENDBRANCH  16  20
ENDBRANCH   1  14
TORSDOF 4
ENDMDL
MODEL 4
REMARK VINA RESULT:      -7.5      1.690      1.957
REMARK  4 active torsions:
REMARK  status: ('A' for Active; 'I' for Inactive)
REMARK    1  A    between atoms: C_5  and  C_6 
REMARK    2  A    between atoms: C_9  and  C_10 
REMARK    3  A    between atoms: C_10  and  N_11 
REMARK       I    between atoms: N_11  and  C_12 
REMARK       I    between atoms: C_12  and  N_13 
REMARK    4  A    between atoms: N_13  and  C_14 
ROOT
HETATM    1  C   UNL     1     -42.199  57.346 -56.053  1.00  0.00     0.213 C 
ENDROOT
BRANCH   1   2
HETATM    2  C   UNL     1     -42.090  55.953 -55.559  1.00  0.00     0.190 A 
HETATM    3  O   UNL     1     -43.092  55.099 -55.909  1.00  0.00    -0.194 OA
HETATM    4  N   UNL     1     -42.822  53.889 -55.275  1.00  0.00    -0.106 NA
HETATM    5  C   UNL     1     -41.682  54.124 -54.604  1.00  0.00     0.189 A 
HETATM    6  N   UNL     1     -41.191  55.404 -54.770  1.00  0.00    -0.202 NA
BRANCH   5   7
HETATM    7  C   UNL     1     -41.024  53.137 -53.752  1.00  0.00     0.014 A 
HETATM    8  C   UNL     1     -40.851  53.368 -52.379  1.00  0.00     0.016 A 
HETATM    9  C   UNL     1     -40.208  52.426 -51.570  1.00  0.00     0.007 A 
HETATM   10  C   UNL     1     -39.722  51.235 -52.119  1.00  0.00    -0.062 A 
HETATM   11  C   UNL     1     -39.047  50.210 -51.258  1.00  0.00     0.048 C 
HETATM   12  C   UNL     1     -39.899  50.996 -53.487  1.00  0.00     0.007 A 
HETATM   13  C   UNL     1     -40.541  51.939 -54.295  1.00  0.00     0.016 A 
ENDBRANCH   5   7
ENDBRANCH   1   2
BRANCH   1  14
HETATM   14  N   UNL     1     -42.948  57.388 -57.293  1.00  0.00    -0.335 N 
HETATM   15  C   UNL     1     -42.574  58.200 -58.315  1.00  0.00     0.321 C 
HETATM   16  N   UNL     1     -43.230  58.074 -59.499  1.00  0.00    -0.309 N 
HETATM   17  O   UNL     1     -41.625  58.976 -58.235  1.00  0.00    -0.247 OA
HETATM   18  H   UNL     1     -42.720  58.533 -60.245  1.00  0.00     0.170 HD
HETATM   19  H   UNL     1     -43.470  56.560 -57.540  1.00  0.00     0.164 HD
BRANCH  16  20
HETATM   20  C   UNL     1     -44.445  57.466 -59.860  1.00  0.00     0.036 A 
HETATM   21  C   UNL     1     -45.700  58.057 -59.690  1.00  0.00     0.029 A 
HETATM   22  C   UNL     1     -46.858  57.380 -60.088  1.00  0.00     0.002 A 
HETATM   23  C   UNL     1     -46.771  56.117 -60.667  1.00  0.00     0.000 A 
HETATM   24  C   UNL     1     -45.523  55.535 -60.870  1.00  0.00     0.002 A 
HETATM   25  C   UNL     1     -44.366  56.212 -60.479  1.00  0.00     0.029 A 
ENDBRANCH  16  20
ENDBRANCH   1  14
TORSDOF 4
ENDMDL
MODEL 5
REMARK VINA RESULT:      -7.5      2.600      3.343
REMARK  4 active torsions:
REMARK  status: ('A' for Active; 'I' for Inactive)
REMARK    1  A    between atoms: C_5  and  C_6 
REMARK    2  A    between atoms: C_9  and  C_10 
REMARK    3  A    between atoms: C_10  and  N_11 
REMARK       I    between atoms: N_11  and  C_12 
REMARK       I    between atoms: C_12  and  N_13 
REMARK    4  A    between atoms: N_13  and  C_14 
ROOT
HETATM    1  C   UNL     1     -42.440  57.933 -51.422  1.00  0.00     0.213 C 
ENDROOT
BRANCH   1   2
HETATM    2  C   UNL     1     -41.831  56.583 -51.368  1.00  0.00     0.190 A 
HETATM    3  O   UNL     1     -41.204  56.239 -50.209  1.00  0.00    -0.194 OA
HETATM    4  N   UNL     1     -40.648  54.980 -50.417  1.00  0.00    -0.106 NA
HETATM    5  C   UNL     1     -40.994  54.678 -51.679  1.00  0.00     0.189 A 
HETATM    6  N   UNL     1     -41.745  55.657 -52.300  1.00  0.00    -0.202 NA
BRANCH   5   7
HETATM    7  C   UNL     1     -40.597  53.448 -52.358  1.00  0.00     0.014 A 
HETATM    8  C   UNL     1     -40.953  53.212 -53.694  1.00  0.00     0.016 A 
HETATM    9  C   UNL     1     -40.582  52.024 -54.335  1.00  0.00     0.007 A 
HETATM   10  C   UNL     1     -39.851  51.049 -53.650  1.00  0.00    -0.062 A 
HETATM   11  C   UNL     1     -39.432  49.781 -54.333  1.00  0.00     0.048 C 
HETATM   12  C   UNL     1     -39.486  51.283 -52.319  1.00  0.00     0.007 A 
HETATM   13  C   UNL     1     -39.859  52.469 -51.679  1.00  0.00     0.016 A 
ENDBRANCH   5   7
ENDBRANCH   1   2
BRANCH   1  14
HETATM   14  N   UNL     1     -42.573  58.376 -52.795  1.00  0.00    -0.335 N 
HETATM   15  C   UNL     1     -41.616  59.136 -53.387  1.00  0.00     0.321 C 
HETATM   16  N   UNL     1     -41.734  59.384 -54.718  1.00  0.00    -0.309 N 
HETATM   17  O   UNL     1     -40.618  59.533 -52.788  1.00  0.00    -0.247 OA
HETATM   18  H   UNL     1     -40.863  59.734 -55.099  1.00  0.00     0.170 HD
HETATM   19  H   UNL     1     -43.142  57.808 -53.405  1.00  0.00     0.164 HD
BRANCH  16  20
HETATM   20  C   UNL     1     -42.805  59.267 -55.621  1.00  0.00     0.036 A 
HETATM   21  C   UNL     1     -43.733  60.281 -55.874  1.00  0.00     0.029 A 
HETATM   22  C   UNL     1     -44.764  60.079 -56.798  1.00  0.00     0.002 A 
HETATM   23  C   UNL     1     -44.866  58.872 -57.485  1.00  0.00     0.000 A 
HETATM   24  C   UNL     1     -43.926  57.869 -57.264  1.00  0.00     0.002 A 
HETATM   25  C   UNL     1     -42.894  58.071 -56.345  1.00  0.00     0.029 A 
ENDBRANCH  16  20
ENDBRANCH   1  14
TORSDOF 4
ENDMDL
MODEL 6
REMARK VINA RESULT:      -7.4      1.512      7.387
REMARK  4 active torsions:
REMARK  status: ('A' for Active; 'I' for Inactive)
REMARK    1  A    between atoms: C_5  and  C_6 
REMARK    2  A    between atoms: C_9  and  C_10 
REMARK    3  A    between atoms: C_10  and  N_11 
REMARK       I    between atoms: N_11  and  C_12 
REMARK       I    between atoms: C_12  and  N_13 
REMARK    4  A    between atoms: N_13  and  C_14 
ROOT
HETATM    1  C   UNL     1     -41.275  57.739 -53.331  1.00  0.00     0.213 C 
ENDROOT
BRANCH   1   2
HETATM    2  C   UNL     1     -41.779  57.873 -54.718  1.00  0.00     0.190 A 
HETATM    3  O   UNL     1     -41.687  59.107 -55.287  1.00  0.00    -0.194 OA
HETATM    4  N   UNL     1     -42.284  59.012 -56.540  1.00  0.00    -0.106 NA
HETATM    5  C   UNL     1     -42.679  57.730 -56.614  1.00  0.00     0.189 A 
HETATM    6  N   UNL     1     -42.367  56.986 -55.493  1.00  0.00    -0.202 NA
BRANCH   5   7
HETATM    7  C   UNL     1     -43.397  57.166 -57.754  1.00  0.00     0.014 A 
HETATM    8  C   UNL     1     -44.565  57.768 -58.243  1.00  0.00     0.016 A 
HETATM    9  C   UNL     1     -45.256  57.215 -59.326  1.00  0.00     0.007 A 
HETATM   10  C   UNL     1     -44.793  56.046 -59.939  1.00  0.00    -0.062 A 
HETATM   11  C   UNL     1     -45.516  55.454 -61.113  1.00  0.00     0.048 C 
HETATM   12  C   UNL     1     -43.623  55.446 -59.460  1.00  0.00     0.007 A 
HETATM   13  C   UNL     1     -42.934  55.998 -58.376  1.00  0.00     0.016 A 
ENDBRANCH   5   7
ENDBRANCH   1   2
BRANCH   1  14
HETATM   14  N   UNL     1     -41.143  56.341 -52.971  1.00  0.00    -0.335 N 
HETATM   15  C   UNL     1     -41.537  55.886 -51.754  1.00  0.00     0.321 C 
HETATM   16  N   UNL     1     -41.525  54.543 -51.544  1.00  0.00    -0.309 N 
HETATM   17  O   UNL     1     -41.975  56.627 -50.877  1.00  0.00    -0.247 OA
HETATM   18  H   UNL     1     -42.062  54.302 -50.719  1.00  0.00     0.170 HD
HETATM   19  H   UNL     1     -41.145  55.673 -53.727  1.00  0.00     0.164 HD
BRANCH  16  20
HETATM   20  C   UNL     1     -40.916  53.474 -52.223  1.00  0.00     0.036 A 
HETATM   21  C   UNL     1     -41.155  53.156 -53.562  1.00  0.00     0.029 A 
HETATM   22  C   UNL     1     -40.495  52.076 -54.160  1.00  0.00     0.002 A 
HETATM   23  C   UNL     1     -39.584  51.317 -53.429  1.00  0.00     0.000 A 
HETATM   24  C   UNL     1     -39.315  51.647 -52.104  1.00  0.00     0.002 A 
HETATM   25  C   UNL     1     -39.969  52.728 -51.508  1.00  0.00     0.029 A 
ENDBRANCH  16  20
ENDBRANCH   1  14
TORSDOF 4
ENDMDL
MODEL 7
REMARK VINA RESULT:      -7.4      1.504      7.395
REMARK  4 active torsions:
REMARK  status: ('A' for Active; 'I' for Inactive)
REMARK    1  A    between atoms: C_5  and  C_6 
REMARK    2  A    between atoms: C_9  and  C_10 
REMARK    3  A    between atoms: C_10  and  N_11 
REMARK       I    between atoms: N_11  and  C_12 
REMARK       I    between atoms: C_12  and  N_13 
REMARK    4  A    between atoms: N_13  and  C_14 
ROOT
HETATM    1  C   UNL     1     -41.317  57.765 -53.312  1.00  0.00     0.213 C 
ENDROOT
BRANCH   1   2
HETATM    2  C   UNL     1     -41.800  57.874 -54.709  1.00  0.00     0.190 A 
HETATM    3  O   UNL     1     -41.689  59.095 -55.302  1.00  0.00    -0.194 OA
HETATM    4  N   UNL     1     -42.271  58.979 -56.561  1.00  0.00    -0.106 NA
HETATM    5  C   UNL     1     -42.676  57.699 -56.614  1.00  0.00     0.189 A 
HETATM    6  N   UNL     1     -42.386  56.976 -55.473  1.00  0.00    -0.202 NA
BRANCH   5   7
HETATM    7  C   UNL     1     -43.384  57.117 -57.751  1.00  0.00     0.014 A 
HETATM    8  C   UNL     1     -42.854  56.022 -58.448  1.00  0.00     0.016 A 
HETATM    9  C   UNL     1     -43.530  55.477 -59.546  1.00  0.00     0.007 A 
HETATM   10  C   UNL     1     -44.747  56.020 -59.968  1.00  0.00    -0.062 A 
HETATM   11  C   UNL     1     -45.489  55.432 -61.132  1.00  0.00     0.048 C 
HETATM   12  C   UNL     1     -45.284  57.107 -59.270  1.00  0.00     0.007 A 
HETATM   13  C   UNL     1     -44.607  57.652 -58.175  1.00  0.00     0.016 A 
ENDBRANCH   5   7
ENDBRANCH   1   2
BRANCH   1  14
HETATM   14  N   UNL     1     -41.175  56.373 -52.931  1.00  0.00    -0.335 N 
HETATM   15  C   UNL     1     -41.682  55.909 -51.760  1.00  0.00     0.321 C 
HETATM   16  N   UNL     1     -41.647  54.568 -51.541  1.00  0.00    -0.309 N 
HETATM   17  O   UNL     1     -42.237  56.637 -50.940  1.00  0.00    -0.247 OA
HETATM   18  H   UNL     1     -42.261  54.311 -50.776  1.00  0.00     0.170 HD
HETATM   19  H   UNL     1     -41.072  55.704 -53.678  1.00  0.00     0.164 HD
BRANCH  16  20
HETATM   20  C   UNL     1     -40.931  53.518 -52.142  1.00  0.00     0.036 A 
HETATM   21  C   UNL     1     -39.976  52.740 -51.482  1.00  0.00     0.029 A 
HETATM   22  C   UNL     1     -39.317  51.707 -52.158  1.00  0.00     0.002 A 
HETATM   23  C   UNL     1     -39.615  51.438 -53.492  1.00  0.00     0.000 A 
HETATM   24  C   UNL     1     -40.588  52.187 -54.147  1.00  0.00     0.002 A 
HETATM   25  C   UNL     1     -41.250  53.214 -53.472  1.00  0.00     0.029 A 
ENDBRANCH  16  20
ENDBRANCH   1  14
TORSDOF 4
ENDMDL
MODEL 8
REMARK VINA RESULT:      -7.3      3.751      7.952
REMARK  4 active torsions:
REMARK  status: ('A' for Active; 'I' for Inactive)
REMARK    1  A    between atoms: C_5  and  C_6 
REMARK    2  A    between atoms: C_9  and  C_10 
REMARK    3  A    between atoms: C_10  and  N_11 
REMARK       I    between atoms: N_11  and  C_12 
REMARK       I    between atoms: C_12  and  N_13 
REMARK    4  A    between atoms: N_13  and  C_14 
ROOT
HETATM    1  C   UNL     1     -43.419  54.677 -54.016  1.00  0.00     0.213 C 
ENDROOT
BRANCH   1   2
HETATM    2  C   UNL     1     -43.388  55.703 -52.948  1.00  0.00     0.190 A 
HETATM    3  O   UNL     1     -43.594  55.267 -51.674  1.00  0.00    -0.194 OA
HETATM    4  N   UNL     1     -43.600  56.399 -50.863  1.00  0.00    -0.106 NA
HETATM    5  C   UNL     1     -43.394  57.412 -51.721  1.00  0.00     0.189 A 
HETATM    6  N   UNL     1     -43.245  57.008 -53.034  1.00  0.00    -0.202 NA
BRANCH   5   7
HETATM    7  C   UNL     1     -43.356  58.817 -51.325  1.00  0.00     0.014 A 
HETATM    8  C   UNL     1     -44.518  59.602 -51.331  1.00  0.00     0.016 A 
HETATM    9  C   UNL     1     -44.472  60.951 -50.964  1.00  0.00     0.007 A 
HETATM   10  C   UNL     1     -43.262  61.542 -50.586  1.00  0.00    -0.062 A 
HETATM   11  C   UNL     1     -43.205  62.983 -50.173  1.00  0.00     0.048 C 
HETATM   12  C   UNL     1     -42.101  60.761 -50.570  1.00  0.00     0.007 A 
HETATM   13  C   UNL     1     -42.147  59.413 -50.939  1.00  0.00     0.016 A 
ENDBRANCH   5   7
ENDBRANCH   1   2
BRANCH   1  14
HETATM   14  N   UNL     1     -42.279  53.789 -53.902  1.00  0.00    -0.335 N 
HETATM   15  C   UNL     1     -41.196  53.926 -54.709  1.00  0.00     0.321 C 
HETATM   16  N   UNL     1     -40.105  53.160 -54.444  1.00  0.00    -0.309 N 
HETATM   17  O   UNL     1     -41.138  54.763 -55.607  1.00  0.00    -0.247 OA
HETATM   18  H   UNL     1     -39.290  53.512 -54.932  1.00  0.00     0.170 HD
HETATM   19  H   UNL     1     -42.122  53.361 -53.002  1.00  0.00     0.164 HD
BRANCH  16  20
HETATM   20  C   UNL     1     -39.913  52.007 -53.664  1.00  0.00     0.036 A 
HETATM   21  C   UNL     1     -39.724  52.018 -52.279  1.00  0.00     0.029 A 
HETATM   22  C   UNL     1     -39.549  50.818 -51.581  1.00  0.00     0.002 A 
HETATM   23  C   UNL     1     -39.574  49.601 -52.257  1.00  0.00     0.000 A 
HETATM   24  C   UNL     1     -39.794  49.578 -53.631  1.00  0.00     0.002 A 
HETATM   25  C   UNL     1     -39.975  50.775 -54.328  1.00  0.00     0.029 A 
ENDBRANCH  16  20
ENDBRANCH   1  14
TORSDOF 4
ENDMDL
MODEL 9
REMARK VINA RESULT:      -7.2      1.589      2.011
REMARK  4 active torsions:
REMARK  status: ('A' for Active; 'I' for Inactive)
REMARK    1  A    between atoms: C_5  and  C_6 
REMARK    2  A    between atoms: C_9  and  C_10 
REMARK    3  A    between atoms: C_10  and  N_11 
REMARK       I    between atoms: N_11  and  C_12 
REMARK       I    between atoms: C_12  and  N_13 
REMARK    4  A    between atoms: N_13  and  C_14 
ROOT
HETATM    1  C   UNL     1     -41.697  58.601 -54.477  1.00  0.00     0.213 C 
ENDROOT
BRANCH   1   2
HETATM    2  C   UNL     1     -41.753  57.361 -53.668  1.00  0.00     0.190 A 
HETATM    3  O   UNL     1     -42.655  57.336 -52.647  1.00  0.00    -0.194 OA
HETATM    4  N   UNL     1     -42.475  56.123 -51.988  1.00  0.00    -0.106 NA
HETATM    5  C   UNL     1     -41.485  55.527 -52.673  1.00  0.00     0.189 A 
HETATM    6  N   UNL     1     -41.018  56.272 -53.738  1.00  0.00    -0.202 NA
BRANCH   5   7
HETATM    7  C   UNL     1     -40.922  54.226 -52.320  1.00  0.00     0.014 A 
HETATM    8  C   UNL     1     -40.557  53.304 -53.312  1.00  0.00     0.016 A 
HETATM    9  C   UNL     1     -40.032  52.053 -52.968  1.00  0.00     0.007 A 
HETATM   10  C   UNL     1     -39.866  51.700 -51.625  1.00  0.00    -0.062 A 
HETATM   11  C   UNL     1     -39.286  50.370 -51.245  1.00  0.00     0.048 C 
HETATM   12  C   UNL     1     -40.221  52.620 -50.632  1.00  0.00     0.007 A 
HETATM   13  C   UNL     1     -40.747  53.869 -50.977  1.00  0.00     0.016 A 
ENDBRANCH   5   7
ENDBRANCH   1   2
BRANCH   1  14
HETATM   14  N   UNL     1     -42.238  58.369 -55.801  1.00  0.00    -0.335 N 
HETATM   15  C   UNL     1     -42.116  59.297 -56.785  1.00  0.00     0.321 C 
HETATM   16  N   UNL     1     -42.510  58.949 -58.038  1.00  0.00    -0.309 N 
HETATM   17  O   UNL     1     -41.594  60.395 -56.602  1.00  0.00    -0.247 OA
HETATM   18  H   UNL     1     -42.152  59.603 -58.724  1.00  0.00     0.170 HD
HETATM   19  H   UNL     1     -42.332  57.408 -56.093  1.00  0.00     0.164 HD
BRANCH  16  20
HETATM   20  C   UNL     1     -43.307  57.903 -58.535  1.00  0.00     0.036 A 
HETATM   21  C   UNL     1     -44.704  57.923 -58.560  1.00  0.00     0.029 A 
HETATM   22  C   UNL     1     -45.416  56.838 -59.082  1.00  0.00     0.002 A 
HETATM   23  C   UNL     1     -44.740  55.734 -59.593  1.00  0.00     0.000 A 
HETATM   24  C   UNL     1     -43.348  55.719 -59.602  1.00  0.00     0.002 A 
HETATM   25  C   UNL     1     -42.636  56.803 -59.086  1.00  0.00     0.029 A 
ENDBRANCH  16  20
ENDBRANCH   1  14
TORSDOF 4
ENDMDL
MODEL 10
REMARK VINA RESULT:      -7.1      3.046      8.261
REMARK  4 active torsions:
REMARK  status: ('A' for Active; 'I' for Inactive)
REMARK    1  A    between atoms: C_5  and  C_6 
REMARK    2  A    between atoms: C_9  and  C_10 
REMARK    3  A    between atoms: C_10  and  N_11 
REMARK       I    between atoms: N_11  and  C_12 
REMARK       I    between atoms: C_12  and  N_13 
REMARK    4  A    between atoms: N_13  and  C_14 
ROOT
HETATM    1  C   UNL     1     -41.944  58.042 -53.548  1.00  0.00     0.213 C 
ENDROOT
BRANCH   1   2
HETATM    2  C   UNL     1     -42.118  58.320 -54.993  1.00  0.00     0.190 A 
HETATM    3  O   UNL     1     -42.657  57.323 -55.748  1.00  0.00    -0.194 OA
HETATM    4  N   UNL     1     -42.649  57.774 -57.065  1.00  0.00    -0.106 NA
HETATM    5  C   UNL     1     -42.110  59.001 -56.983  1.00  0.00     0.189 A 
HETATM    6  N   UNL     1     -41.776  59.378 -55.697  1.00  0.00    -0.202 NA
BRANCH   5   7
HETATM    7  C   UNL     1     -41.865  59.860 -58.139  1.00  0.00     0.014 A 
HETATM    8  C   UNL     1     -42.138  59.415 -59.441  1.00  0.00     0.016 A 
HETATM    9  C   UNL     1     -41.889  60.237 -60.545  1.00  0.00     0.007 A 
HETATM   10  C   UNL     1     -41.359  61.519 -60.368  1.00  0.00    -0.062 A 
HETATM   11  C   UNL     1     -41.105  62.415 -61.544  1.00  0.00     0.048 C 
HETATM   12  C   UNL     1     -41.092  61.970 -59.071  1.00  0.00     0.007 A 
HETATM   13  C   UNL     1     -41.340  61.148 -57.968  1.00  0.00     0.016 A 
ENDBRANCH   5   7
ENDBRANCH   1   2
BRANCH   1  14
HETATM   14  N   UNL     1     -41.892  56.613 -53.308  1.00  0.00    -0.335 N 
HETATM   15  C   UNL     1     -42.875  55.978 -52.620  1.00  0.00     0.321 C 
HETATM   16  N   UNL     1     -42.837  54.620 -52.567  1.00  0.00    -0.309 N 
HETATM   17  O   UNL     1     -43.829  56.572 -52.122  1.00  0.00    -0.247 OA
HETATM   18  H   UNL     1     -43.727  54.246 -52.258  1.00  0.00     0.170 HD
HETATM   19  H   UNL     1     -41.369  56.059 -53.969  1.00  0.00     0.164 HD
BRANCH  16  20
HETATM   20  C   UNL     1     -41.827  53.680 -52.834  1.00  0.00     0.036 A 
HETATM   21  C   UNL     1     -41.618  53.085 -54.081  1.00  0.00     0.029 A 
HETATM   22  C   UNL     1     -40.580  52.164 -54.259  1.00  0.00     0.002 A 
HETATM   23  C   UNL     1     -39.737  51.842 -53.198  1.00  0.00     0.000 A 
HETATM   24  C   UNL     1     -39.918  52.454 -51.961  1.00  0.00     0.002 A 
HETATM   25  C   UNL     1     -40.950  53.377 -51.784  1.00  0.00     0.029 A 
ENDBRANCH  16  20
ENDBRANCH   1  14
TORSDOF 4
ENDMDL
