MODEL 1
REMARK VINA RESULT:      -8.9      0.000      0.000
REMARK  6 active torsions:
REMARK  status: ('A' for Active; 'I' for Inactive)
REMARK    1  A    between atoms: O_2  and  C_3 
REMARK    2  A    between atoms: C_6  and  C_7 
REMARK       I    between atoms: C_7  and  N_8 
REMARK    3  A    between atoms: N_8  and  N_9 
REMARK    4  A    between atoms: N_13  and  C_14 
REMARK    5  A    between atoms: C_14  and  C_15 
REMARK    6  A    between atoms: C_15  and  C_16 
ROOT
HETATM    1  N   UNL     1     -43.498  58.139 -54.454  1.00  0.00    -0.166 NA
HETATM    2  C   UNL     1     -43.208  56.910 -54.173  1.00  0.00     0.157 A 
HETATM    3  C   UNL     1     -42.589  55.846 -55.075  1.00  0.00     0.279 A 
HETATM    4  O   UNL     1     -42.316  56.024 -56.245  1.00  0.00    -0.265 OA
HETATM    5  N   UNL     1     -42.438  54.723 -54.278  1.00  0.00    -0.311 N 
HETATM    6  C   UNL     1     -43.408  56.277 -52.877  1.00  0.00     0.027 A 
HETATM    7  C   UNL     1     -42.926  54.971 -52.980  1.00  0.00     0.050 A 
HETATM    8  C   UNL     1     -42.990  54.126 -51.889  1.00  0.00     0.031 A 
HETATM    9  C   UNL     1     -43.556  54.620 -50.704  1.00  0.00     0.002 A 
HETATM   10  C   UNL     1     -44.043  55.939 -50.623  1.00  0.00     0.001 A 
HETATM   11  C   UNL     1     -43.968  56.791 -51.724  1.00  0.00     0.016 A 
ENDROOT
BRANCH   1  12
HETATM   12  N   UNL     1     -43.250  58.558 -55.731  1.00  0.00    -0.242 N 
HETATM   13  C   UNL     1     -42.208  59.441 -55.969  1.00  0.00     0.271 C 
HETATM   14  O   UNL     1     -41.452  59.869 -55.098  1.00  0.00    -0.266 OA
HETATM   15  H   UNL     1     -43.883  58.255 -56.468  1.00  0.00     0.192 HD
BRANCH  13  16
HETATM   16  C   UNL     1     -42.028  59.912 -57.378  1.00  0.00     0.033 A 
HETATM   17  C   UNL     1     -41.621  61.208 -57.718  1.00  0.00     0.020 A 
HETATM   18  C   UNL     1     -41.460  61.560 -59.064  1.00  0.00     0.038 A 
HETATM   19  C   UNL     1     -41.706  60.638 -60.084  1.00  0.00     0.068 A 
HETATM   20  C   UNL     1     -42.133  59.354 -59.752  1.00  0.00     0.038 A 
HETATM   21  C   UNL     1     -42.293  58.997 -58.408  1.00  0.00     0.020 A 
BRANCH  19  22
HETATM   22  O   UNL     1     -41.501  61.113 -61.350  1.00  0.00    -0.356 OA
HETATM   23  C   UNL     1     -41.370  62.522 -61.493  1.00  0.00     0.210 C 
ENDBRANCH  19  22
ENDBRANCH  13  16
ENDBRANCH   1  12
BRANCH   5  24
HETATM   24  C   UNL     1     -41.889  53.467 -54.744  1.00  0.00     0.137 C 
BRANCH  24  25
HETATM   25  C   UNL     1     -40.391  53.337 -54.439  1.00  0.00     0.059 C 
BRANCH  25  26
HETATM   26  C   UNL     1     -40.078  52.067 -53.684  1.00  0.00    -0.057 A 
HETATM   27  C   UNL     1     -40.036  50.832 -54.346  1.00  0.00     0.007 A 
HETATM   28  C   UNL     1     -39.769  49.659 -53.638  1.00  0.00     0.001 A 
HETATM   29  C   UNL     1     -39.534  49.709 -52.265  1.00  0.00     0.000 A 
HETATM   30  C   UNL     1     -39.563  50.933 -51.599  1.00  0.00     0.001 A 
HETATM   31  C   UNL     1     -39.835  52.107 -52.304  1.00  0.00     0.007 A 
ENDBRANCH  25  26
ENDBRANCH  24  25
ENDBRANCH   5  24
TORSDOF 6
ENDMDL
MODEL 2
REMARK VINA RESULT:      -8.8      3.026      3.695
REMARK  6 active torsions:
REMARK  status: ('A' for Active; 'I' for Inactive)
REMARK    1  A    between atoms: O_2  and  C_3 
REMARK    2  A    between atoms: C_6  and  C_7 
REMARK       I    between atoms: C_7  and  N_8 
REMARK    3  A    between atoms: N_8  and  N_9 
REMARK    4  A    between atoms: N_13  and  C_14 
REMARK    5  A    between atoms: C_14  and  C_15 
REMARK    6  A    between atoms: C_15  and  C_16 
ROOT
HETATM    1  N   UNL     1     -43.869  58.119 -54.776  1.00  0.00    -0.166 NA
HETATM    2  C   UNL     1     -43.260  57.277 -54.005  1.00  0.00     0.157 A 
HETATM    3  C   UNL     1     -43.131  55.764 -54.160  1.00  0.00     0.279 A 
HETATM    4  O   UNL     1     -43.648  55.128 -55.056  1.00  0.00    -0.265 OA
HETATM    5  N   UNL     1     -42.341  55.347 -53.101  1.00  0.00    -0.311 N 
HETATM    6  C   UNL     1     -42.531  57.625 -52.794  1.00  0.00     0.027 A 
HETATM    7  C   UNL     1     -41.990  56.442 -52.287  1.00  0.00     0.050 A 
HETATM    8  C   UNL     1     -41.240  56.469 -51.127  1.00  0.00     0.031 A 
HETATM    9  C   UNL     1     -41.061  57.705 -50.487  1.00  0.00     0.002 A 
HETATM   10  C   UNL     1     -41.621  58.885 -51.010  1.00  0.00     0.001 A 
HETATM   11  C   UNL     1     -42.369  58.854 -52.187  1.00  0.00     0.016 A 
ENDROOT
BRANCH   1  12
HETATM   12  N   UNL     1     -44.511  57.608 -55.869  1.00  0.00    -0.242 N 
HETATM   13  C   UNL     1     -44.081  57.960 -57.139  1.00  0.00     0.271 C 
HETATM   14  O   UNL     1     -43.124  58.698 -57.365  1.00  0.00    -0.266 OA
HETATM   15  H   UNL     1     -45.333  57.028 -55.715  1.00  0.00     0.192 HD
BRANCH  13  16
HETATM   16  C   UNL     1     -44.866  57.419 -58.293  1.00  0.00     0.033 A 
HETATM   17  C   UNL     1     -46.211  57.725 -58.529  1.00  0.00     0.020 A 
HETATM   18  C   UNL     1     -46.865  57.187 -59.645  1.00  0.00     0.038 A 
HETATM   19  C   UNL     1     -46.197  56.340 -60.533  1.00  0.00     0.068 A 
HETATM   20  C   UNL     1     -44.865  56.014 -60.289  1.00  0.00     0.038 A 
HETATM   21  C   UNL     1     -44.207  56.550 -59.176  1.00  0.00     0.020 A 
BRANCH  19  22
HETATM   22  O   UNL     1     -46.953  55.895 -61.582  1.00  0.00    -0.356 OA
HETATM   23  C   UNL     1     -48.103  56.664 -61.915  1.00  0.00     0.210 C 
ENDBRANCH  19  22
ENDBRANCH  13  16
ENDBRANCH   1  12
BRANCH   5  24
HETATM   24  C   UNL     1     -41.973  53.968 -52.860  1.00  0.00     0.137 C 
BRANCH  24  25
HETATM   25  C   UNL     1     -40.670  53.580 -53.571  1.00  0.00     0.059 C 
BRANCH  25  26
HETATM   26  C   UNL     1     -40.272  52.153 -53.278  1.00  0.00    -0.057 A 
HETATM   27  C   UNL     1     -39.887  51.767 -51.986  1.00  0.00     0.007 A 
HETATM   28  C   UNL     1     -39.498  50.452 -51.728  1.00  0.00     0.001 A 
HETATM   29  C   UNL     1     -39.495  49.508 -52.754  1.00  0.00     0.000 A 
HETATM   30  C   UNL     1     -39.885  49.879 -54.040  1.00  0.00     0.001 A 
HETATM   31  C   UNL     1     -40.270  51.196 -54.301  1.00  0.00     0.007 A 
ENDBRANCH  25  26
ENDBRANCH  24  25
ENDBRANCH   5  24
TORSDOF 6
ENDMDL
MODEL 3
REMARK VINA RESULT:      -8.5      2.077      5.382
REMARK  6 active torsions:
REMARK  status: ('A' for Active; 'I' for Inactive)
REMARK    1  A    between atoms: O_2  and  C_3 
REMARK    2  A    between atoms: C_6  and  C_7 
REMARK       I    between atoms: C_7  and  N_8 
REMARK    3  A    between atoms: N_8  and  N_9 
REMARK    4  A    between atoms: N_13  and  C_14 
REMARK    5  A    between atoms: C_14  and  C_15 
REMARK    6  A    between atoms: C_15  and  C_16 
ROOT
HETATM    1  N   UNL     1     -40.699  53.352 -55.273  1.00  0.00    -0.166 NA
HETATM    2  C   UNL     1     -40.482  53.201 -54.007  1.00  0.00     0.157 A 
HETATM    3  C   UNL     1     -40.532  54.249 -52.898  1.00  0.00     0.279 A 
HETATM    4  O   UNL     1     -40.755  55.428 -53.090  1.00  0.00    -0.265 OA
HETATM    5  N   UNL     1     -40.275  53.562 -51.723  1.00  0.00    -0.311 N 
HETATM    6  C   UNL     1     -40.150  51.940 -53.358  1.00  0.00     0.027 A 
HETATM    7  C   UNL     1     -40.043  52.199 -51.990  1.00  0.00     0.050 A 
HETATM    8  C   UNL     1     -39.730  51.174 -51.118  1.00  0.00     0.031 A 
HETATM    9  C   UNL     1     -39.517  49.895 -51.654  1.00  0.00     0.002 A 
HETATM   10  C   UNL     1     -39.623  49.656 -53.037  1.00  0.00     0.001 A 
HETATM   11  C   UNL     1     -39.949  50.692 -53.912  1.00  0.00     0.016 A 
ENDROOT
BRANCH   1  12
HETATM   12  N   UNL     1     -40.989  54.616 -55.706  1.00  0.00    -0.242 N 
HETATM   13  C   UNL     1     -42.298  54.945 -56.021  1.00  0.00     0.271 C 
HETATM   14  O   UNL     1     -43.249  54.173 -55.914  1.00  0.00    -0.266 OA
HETATM   15  H   UNL     1     -40.218  55.266 -55.844  1.00  0.00     0.192 HD
BRANCH  13  16
HETATM   16  C   UNL     1     -42.541  56.324 -56.551  1.00  0.00     0.033 A 
HETATM   17  C   UNL     1     -42.434  57.483 -55.774  1.00  0.00     0.020 A 
HETATM   18  C   UNL     1     -42.662  58.737 -56.355  1.00  0.00     0.038 A 
HETATM   19  C   UNL     1     -43.001  58.855 -57.705  1.00  0.00     0.068 A 
HETATM   20  C   UNL     1     -43.131  57.702 -58.476  1.00  0.00     0.038 A 
HETATM   21  C   UNL     1     -42.903  56.447 -57.900  1.00  0.00     0.020 A 
BRANCH  19  22
HETATM   22  O   UNL     1     -43.186  60.138 -58.142  1.00  0.00    -0.356 OA
HETATM   23  C   UNL     1     -42.041  60.982 -58.155  1.00  0.00     0.210 C 
ENDBRANCH  19  22
ENDBRANCH  13  16
ENDBRANCH   1  12
BRANCH   5  24
HETATM   24  C   UNL     1     -40.220  54.184 -50.417  1.00  0.00     0.137 C 
BRANCH  24  25
HETATM   25  C   UNL     1     -41.615  54.438 -49.832  1.00  0.00     0.059 C 
BRANCH  25  26
HETATM   26  C   UNL     1     -42.221  55.719 -50.354  1.00  0.00    -0.057 A 
HETATM   27  C   UNL     1     -43.551  55.755 -50.796  1.00  0.00     0.007 A 
HETATM   28  C   UNL     1     -44.097  56.937 -51.298  1.00  0.00     0.001 A 
HETATM   29  C   UNL     1     -43.324  58.095 -51.358  1.00  0.00     0.000 A 
HETATM   30  C   UNL     1     -42.004  58.073 -50.912  1.00  0.00     0.001 A 
HETATM   31  C   UNL     1     -41.454  56.890 -50.414  1.00  0.00     0.007 A 
ENDBRANCH  25  26
ENDBRANCH  24  25
ENDBRANCH   5  24
TORSDOF 6
ENDMDL
MODEL 4
REMARK VINA RESULT:      -8.2      2.782      7.916
REMARK  6 active torsions:
REMARK  status: ('A' for Active; 'I' for Inactive)
REMARK    1  A    between atoms: O_2  and  C_3 
REMARK    2  A    between atoms: C_6  and  C_7 
REMARK       I    between atoms: C_7  and  N_8 
REMARK    3  A    between atoms: N_8  and  N_9 
REMARK    4  A    between atoms: N_13  and  C_14 
REMARK    5  A    between atoms: C_14  and  C_15 
REMARK    6  A    between atoms: C_15  and  C_16 
ROOT
HETATM    1  N   UNL     1     -43.695  56.377 -51.381  1.00  0.00    -0.166 NA
HETATM    2  C   UNL     1     -44.058  57.189 -52.320  1.00  0.00     0.157 A 
HETATM    3  C   UNL     1     -43.874  57.046 -53.830  1.00  0.00     0.279 A 
HETATM    4  O   UNL     1     -43.296  56.117 -54.357  1.00  0.00    -0.265 OA
HETATM    5  N   UNL     1     -44.485  58.157 -54.387  1.00  0.00    -0.311 N 
HETATM    6  C   UNL     1     -44.761  58.448 -52.116  1.00  0.00     0.027 A 
HETATM    7  C   UNL     1     -45.004  58.992 -53.378  1.00  0.00     0.050 A 
HETATM    8  C   UNL     1     -45.663  60.201 -53.491  1.00  0.00     0.031 A 
HETATM    9  C   UNL     1     -46.056  60.850 -52.311  1.00  0.00     0.002 A 
HETATM   10  C   UNL     1     -45.795  60.288 -51.047  1.00  0.00     0.001 A 
HETATM   11  C   UNL     1     -45.138  59.062 -50.938  1.00  0.00     0.016 A 
ENDROOT
BRANCH   1  12
HETATM   12  N   UNL     1     -43.034  55.243 -51.763  1.00  0.00    -0.242 N 
HETATM   13  C   UNL     1     -41.685  55.110 -51.474  1.00  0.00     0.271 C 
HETATM   14  O   UNL     1     -41.024  55.945 -50.861  1.00  0.00    -0.266 OA
HETATM   15  H   UNL     1     -43.544  54.550 -52.308  1.00  0.00     0.192 HD
BRANCH  13  16
HETATM   16  C   UNL     1     -41.004  53.874 -51.975  1.00  0.00     0.033 A 
HETATM   17  C   UNL     1     -40.155  53.084 -51.191  1.00  0.00     0.020 A 
HETATM   18  C   UNL     1     -39.573  51.933 -51.736  1.00  0.00     0.038 A 
HETATM   19  C   UNL     1     -39.820  51.555 -53.058  1.00  0.00     0.068 A 
HETATM   20  C   UNL     1     -40.647  52.352 -53.848  1.00  0.00     0.038 A 
HETATM   21  C   UNL     1     -41.232  53.502 -53.308  1.00  0.00     0.020 A 
BRANCH  19  22
HETATM   22  O   UNL     1     -39.194  50.406 -53.455  1.00  0.00    -0.356 OA
HETATM   23  C   UNL     1     -39.685  49.784 -54.637  1.00  0.00     0.210 C 
ENDBRANCH  19  22
ENDBRANCH  13  16
ENDBRANCH   1  12
BRANCH   5  24
HETATM   24  C   UNL     1     -44.536  58.425 -55.808  1.00  0.00     0.137 C 
BRANCH  24  25
HETATM   25  C   UNL     1     -43.152  58.732 -56.394  1.00  0.00     0.059 C 
BRANCH  25  26
HETATM   26  C   UNL     1     -42.884  57.941 -57.652  1.00  0.00    -0.057 A 
HETATM   27  C   UNL     1     -43.365  56.632 -57.792  1.00  0.00     0.007 A 
HETATM   28  C   UNL     1     -43.094  55.898 -58.948  1.00  0.00     0.001 A 
HETATM   29  C   UNL     1     -42.347  56.467 -59.978  1.00  0.00     0.000 A 
HETATM   30  C   UNL     1     -41.873  57.772 -59.854  1.00  0.00     0.001 A 
HETATM   31  C   UNL     1     -42.138  58.505 -58.696  1.00  0.00     0.007 A 
ENDBRANCH  25  26
ENDBRANCH  24  25
ENDBRANCH   5  24
TORSDOF 6
ENDMDL
MODEL 5
REMARK VINA RESULT:      -7.8      2.930      5.484
REMARK  6 active torsions:
REMARK  status: ('A' for Active; 'I' for Inactive)
REMARK    1  A    between atoms: O_2  and  C_3 
REMARK    2  A    between atoms: C_6  and  C_7 
REMARK       I    between atoms: C_7  and  N_8 
REMARK    3  A    between atoms: N_8  and  N_9 
REMARK    4  A    between atoms: N_13  and  C_14 
REMARK    5  A    between atoms: C_14  and  C_15 
REMARK    6  A    between atoms: C_15  and  C_16 
ROOT
HETATM    1  N   UNL     1     -42.723  54.820 -56.404  1.00  0.00    -0.166 NA
HETATM    2  C   UNL     1     -42.634  54.764 -55.115  1.00  0.00     0.157 A 
HETATM    3  C   UNL     1     -43.460  55.508 -54.068  1.00  0.00     0.279 A 
HETATM    4  O   UNL     1     -44.322  56.320 -54.337  1.00  0.00    -0.265 OA
HETATM    5  N   UNL     1     -43.003  55.055 -52.842  1.00  0.00    -0.311 N 
HETATM    6  C   UNL     1     -41.699  53.928 -54.375  1.00  0.00     0.027 A 
HETATM    7  C   UNL     1     -41.958  54.126 -53.018  1.00  0.00     0.050 A 
HETATM    8  C   UNL     1     -41.211  53.454 -52.069  1.00  0.00     0.031 A 
HETATM    9  C   UNL     1     -40.197  52.595 -52.517  1.00  0.00     0.002 A 
HETATM   10  C   UNL     1     -39.946  52.414 -53.890  1.00  0.00     0.001 A 
HETATM   11  C   UNL     1     -40.710  53.087 -54.844  1.00  0.00     0.016 A 
ENDROOT
BRANCH   1  12
HETATM   12  N   UNL     1     -43.657  55.672 -56.925  1.00  0.00    -0.242 N 
HETATM   13  C   UNL     1     -43.545  56.083 -58.244  1.00  0.00     0.271 C 
HETATM   14  O   UNL     1     -42.660  55.710 -59.011  1.00  0.00    -0.266 OA
HETATM   15  H   UNL     1     -44.379  56.031 -56.304  1.00  0.00     0.192 HD
BRANCH  13  16
HETATM   16  C   UNL     1     -44.562  57.065 -58.736  1.00  0.00     0.033 A 
HETATM   17  C   UNL     1     -44.604  58.405 -58.333  1.00  0.00     0.020 A 
HETATM   18  C   UNL     1     -45.581  59.262 -58.857  1.00  0.00     0.038 A 
HETATM   19  C   UNL     1     -46.525  58.801 -59.778  1.00  0.00     0.068 A 
HETATM   20  C   UNL     1     -46.500  57.462 -60.164  1.00  0.00     0.038 A 
HETATM   21  C   UNL     1     -45.525  56.603 -59.644  1.00  0.00     0.020 A 
BRANCH  19  22
HETATM   22  O   UNL     1     -47.413  59.746 -60.213  1.00  0.00    -0.356 OA
HETATM   23  C   UNL     1     -47.493  59.951 -61.618  1.00  0.00     0.210 C 
ENDBRANCH  19  22
ENDBRANCH  13  16
ENDBRANCH   1  12
BRANCH   5  24
HETATM   24  C   UNL     1     -43.514  55.513 -51.568  1.00  0.00     0.137 C 
BRANCH  24  25
HETATM   25  C   UNL     1     -42.549  56.477 -50.865  1.00  0.00     0.059 C 
BRANCH  25  26
HETATM   26  C   UNL     1     -42.277  57.708 -51.697  1.00  0.00    -0.057 A 
HETATM   27  C   UNL     1     -43.258  58.696 -51.856  1.00  0.00     0.007 A 
HETATM   28  C   UNL     1     -43.008  59.820 -52.646  1.00  0.00     0.001 A 
HETATM   29  C   UNL     1     -41.775  59.972 -53.277  1.00  0.00     0.000 A 
HETATM   30  C   UNL     1     -40.788  59.000 -53.117  1.00  0.00     0.001 A 
HETATM   31  C   UNL     1     -41.039  57.872 -52.332  1.00  0.00     0.007 A 
ENDBRANCH  25  26
ENDBRANCH  24  25
ENDBRANCH   5  24
TORSDOF 6
ENDMDL
MODEL 6
REMARK VINA RESULT:      -7.6      2.599      5.951
REMARK  6 active torsions:
REMARK  status: ('A' for Active; 'I' for Inactive)
REMARK    1  A    between atoms: O_2  and  C_3 
REMARK    2  A    between atoms: C_6  and  C_7 
REMARK       I    between atoms: C_7  and  N_8 
REMARK    3  A    between atoms: N_8  and  N_9 
REMARK    4  A    between atoms: N_13  and  C_14 
REMARK    5  A    between atoms: C_14  and  C_15 
REMARK    6  A    between atoms: C_15  and  C_16 
ROOT
HETATM    1  N   UNL     1     -41.094  54.384 -55.272  1.00  0.00    -0.166 NA
HETATM    2  C   UNL     1     -41.199  54.721 -54.027  1.00  0.00     0.157 A 
HETATM    3  C   UNL     1     -41.774  56.004 -53.432  1.00  0.00     0.279 A 
HETATM    4  O   UNL     1     -42.191  56.932 -54.096  1.00  0.00    -0.265 OA
HETATM    5  N   UNL     1     -41.701  55.844 -52.058  1.00  0.00    -0.311 N 
HETATM    6  C   UNL     1     -40.786  53.900 -52.898  1.00  0.00     0.027 A 
HETATM    7  C   UNL     1     -41.111  54.605 -51.738  1.00  0.00     0.050 A 
HETATM    8  C   UNL     1     -40.829  54.061 -50.499  1.00  0.00     0.031 A 
HETATM    9  C   UNL     1     -40.205  52.805 -50.459  1.00  0.00     0.002 A 
HETATM   10  C   UNL     1     -39.878  52.113 -51.640  1.00  0.00     0.001 A 
HETATM   11  C   UNL     1     -40.175  52.662 -52.888  1.00  0.00     0.016 A 
ENDROOT
BRANCH   1  12
HETATM   12  N   UNL     1     -41.526  55.290 -56.198  1.00  0.00    -0.242 N 
HETATM   13  C   UNL     1     -42.757  55.107 -56.810  1.00  0.00     0.271 C 
HETATM   14  O   UNL     1     -43.523  54.179 -56.557  1.00  0.00    -0.266 OA
HETATM   15  H   UNL     1     -40.898  56.047 -56.460  1.00  0.00     0.192 HD
BRANCH  13  16
HETATM   16  C   UNL     1     -43.145  56.098 -57.862  1.00  0.00     0.033 A 
HETATM   17  C   UNL     1     -43.081  55.837 -59.236  1.00  0.00     0.020 A 
HETATM   18  C   UNL     1     -43.480  56.817 -60.153  1.00  0.00     0.038 A 
HETATM   19  C   UNL     1     -43.941  58.064 -59.721  1.00  0.00     0.068 A 
HETATM   20  C   UNL     1     -43.984  58.336 -58.355  1.00  0.00     0.038 A 
HETATM   21  C   UNL     1     -43.588  57.359 -57.435  1.00  0.00     0.020 A 
BRANCH  19  22
HETATM   22  O   UNL     1     -44.306  58.921 -60.723  1.00  0.00    -0.356 OA
HETATM   23  C   UNL     1     -45.268  59.915 -60.396  1.00  0.00     0.210 C 
ENDBRANCH  19  22
ENDBRANCH  13  16
ENDBRANCH   1  12
BRANCH   5  24
HETATM   24  C   UNL     1     -42.137  56.839 -51.102  1.00  0.00     0.137 C 
BRANCH  24  25
HETATM   25  C   UNL     1     -43.665  56.896 -50.976  1.00  0.00     0.059 C 
BRANCH  25  26
HETATM   26  C   UNL     1     -44.203  58.278 -51.263  1.00  0.00    -0.057 A 
HETATM   27  C   UNL     1     -43.361  59.288 -51.748  1.00  0.00     0.007 A 
HETATM   28  C   UNL     1     -43.860  60.570 -51.988  1.00  0.00     0.001 A 
HETATM   29  C   UNL     1     -45.205  60.852 -51.754  1.00  0.00     0.000 A 
HETATM   30  C   UNL     1     -46.053  59.852 -51.281  1.00  0.00     0.001 A 
HETATM   31  C   UNL     1     -45.554  58.571 -51.035  1.00  0.00     0.007 A 
ENDBRANCH  25  26
ENDBRANCH  24  25
ENDBRANCH   5  24
TORSDOF 6
ENDMDL
MODEL 7
REMARK VINA RESULT:      -7.4     16.367     19.276
REMARK  6 active torsions:
REMARK  status: ('A' for Active; 'I' for Inactive)
REMARK    1  A    between atoms: O_2  and  C_3 
REMARK    2  A    between atoms: C_6  and  C_7 
REMARK       I    between atoms: C_7  and  N_8 
REMARK    3  A    between atoms: N_8  and  N_9 
REMARK    4  A    between atoms: N_13  and  C_14 
REMARK    5  A    between atoms: C_14  and  C_15 
REMARK    6  A    between atoms: C_15  and  C_16 
ROOT
HETATM    1  N   UNL     1     -36.700  39.067 -49.606  1.00  0.00    -0.166 NA
HETATM    2  C   UNL     1     -36.074  39.770 -50.494  1.00  0.00     0.157 A 
HETATM    3  C   UNL     1     -36.656  40.613 -51.627  1.00  0.00     0.279 A 
HETATM    4  O   UNL     1     -37.843  40.697 -51.868  1.00  0.00    -0.265 OA
HETATM    5  N   UNL     1     -35.568  41.201 -52.251  1.00  0.00    -0.311 N 
HETATM    6  C   UNL     1     -34.628  39.917 -50.582  1.00  0.00     0.027 A 
HETATM    7  C   UNL     1     -34.368  40.787 -51.641  1.00  0.00     0.050 A 
HETATM    8  C   UNL     1     -33.063  41.112 -51.961  1.00  0.00     0.031 A 
HETATM    9  C   UNL     1     -32.035  40.533 -51.201  1.00  0.00     0.002 A 
HETATM   10  C   UNL     1     -32.318  39.652 -50.141  1.00  0.00     0.001 A 
HETATM   11  C   UNL     1     -33.637  39.335 -49.816  1.00  0.00     0.016 A 
ENDROOT
BRANCH   1  12
HETATM   12  N   UNL     1     -38.063  39.038 -49.686  1.00  0.00    -0.242 N 
HETATM   13  C   UNL     1     -38.705  37.843 -49.972  1.00  0.00     0.271 C 
HETATM   14  O   UNL     1     -38.126  36.771 -50.139  1.00  0.00    -0.266 OA
HETATM   15  H   UNL     1     -38.569  39.917 -49.594  1.00  0.00     0.192 HD
BRANCH  13  16
HETATM   16  C   UNL     1     -40.195  37.890 -50.110  1.00  0.00     0.033 A 
HETATM   17  C   UNL     1     -40.864  38.706 -51.029  1.00  0.00     0.020 A 
HETATM   18  C   UNL     1     -42.262  38.675 -51.103  1.00  0.00     0.038 A 
HETATM   19  C   UNL     1     -43.010  37.842 -50.266  1.00  0.00     0.068 A 
HETATM   20  C   UNL     1     -42.349  37.045 -49.335  1.00  0.00     0.038 A 
HETATM   21  C   UNL     1     -40.951  37.071 -49.258  1.00  0.00     0.020 A 
BRANCH  19  22
HETATM   22  O   UNL     1     -44.363  37.906 -50.452  1.00  0.00    -0.356 OA
HETATM   23  C   UNL     1     -45.093  36.699 -50.267  1.00  0.00     0.210 C 
ENDBRANCH  19  22
ENDBRANCH  13  16
ENDBRANCH   1  12
BRANCH   5  24
HETATM   24  C   UNL     1     -35.670  42.082 -53.395  1.00  0.00     0.137 C 
BRANCH  24  25
HETATM   25  C   UNL     1     -35.042  41.476 -54.656  1.00  0.00     0.059 C 
BRANCH  25  26
HETATM   26  C   UNL     1     -36.015  41.442 -55.810  1.00  0.00    -0.057 A 
HETATM   27  C   UNL     1     -37.285  40.869 -55.659  1.00  0.00     0.007 A 
HETATM   28  C   UNL     1     -38.171  40.819 -56.737  1.00  0.00     0.001 A 
HETATM   29  C   UNL     1     -37.801  41.347 -57.972  1.00  0.00     0.000 A 
HETATM   30  C   UNL     1     -36.543  41.928 -58.131  1.00  0.00     0.001 A 
HETATM   31  C   UNL     1     -35.654  41.974 -57.055  1.00  0.00     0.007 A 
ENDBRANCH  25  26
ENDBRANCH  24  25
ENDBRANCH   5  24
TORSDOF 6
ENDMDL
MODEL 8
REMARK VINA RESULT:      -7.4      2.204      2.516
REMARK  6 active torsions:
REMARK  status: ('A' for Active; 'I' for Inactive)
REMARK    1  A    between atoms: O_2  and  C_3 
REMARK    2  A    between atoms: C_6  and  C_7 
REMARK       I    between atoms: C_7  and  N_8 
REMARK    3  A    between atoms: N_8  and  N_9 
REMARK    4  A    between atoms: N_13  and  C_14 
REMARK    5  A    between atoms: C_14  and  C_15 
REMARK    6  A    between atoms: C_15  and  C_16 
ROOT
HETATM    1  N   UNL     1     -42.804  58.790 -54.303  1.00  0.00    -0.166 NA
HETATM    2  C   UNL     1     -42.508  57.613 -53.854  1.00  0.00     0.157 A 
HETATM    3  C   UNL     1     -42.654  56.262 -54.550  1.00  0.00     0.279 A 
HETATM    4  O   UNL     1     -43.129  56.119 -55.659  1.00  0.00    -0.265 OA
HETATM    5  N   UNL     1     -42.147  55.328 -53.662  1.00  0.00    -0.311 N 
HETATM    6  C   UNL     1     -41.937  57.334 -52.544  1.00  0.00     0.027 A 
HETATM    7  C   UNL     1     -41.728  55.956 -52.472  1.00  0.00     0.050 A 
HETATM    8  C   UNL     1     -41.191  55.399 -51.327  1.00  0.00     0.031 A 
HETATM    9  C   UNL     1     -40.882  56.257 -50.261  1.00  0.00     0.002 A 
HETATM   10  C   UNL     1     -41.106  57.643 -50.350  1.00  0.00     0.001 A 
HETATM   11  C   UNL     1     -41.640  58.202 -51.511  1.00  0.00     0.016 A 
ENDROOT
BRANCH   1  12
HETATM   12  N   UNL     1     -43.344  58.858 -55.556  1.00  0.00    -0.242 N 
HETATM   13  C   UNL     1     -43.352  60.069 -56.230  1.00  0.00     0.271 C 
HETATM   14  O   UNL     1     -42.876  61.111 -55.785  1.00  0.00    -0.266 OA
HETATM   15  H   UNL     1     -43.784  58.022 -55.936  1.00  0.00     0.192 HD
BRANCH  13  16
HETATM   16  C   UNL     1     -44.015  60.092 -57.573  1.00  0.00     0.033 A 
HETATM   17  C   UNL     1     -43.842  61.121 -58.506  1.00  0.00     0.020 A 
HETATM   18  C   UNL     1     -44.488  61.054 -59.747  1.00  0.00     0.038 A 
HETATM   19  C   UNL     1     -45.312  59.974 -60.074  1.00  0.00     0.068 A 
HETATM   20  C   UNL     1     -45.505  58.959 -59.139  1.00  0.00     0.038 A 
HETATM   21  C   UNL     1     -44.861  59.021 -57.898  1.00  0.00     0.020 A 
BRANCH  19  22
HETATM   22  O   UNL     1     -45.871  60.033 -61.321  1.00  0.00    -0.356 OA
HETATM   23  C   UNL     1     -47.194  59.528 -61.456  1.00  0.00     0.210 C 
ENDBRANCH  19  22
ENDBRANCH  13  16
ENDBRANCH   1  12
BRANCH   5  24
HETATM   24  C   UNL     1     -42.100  53.905 -53.923  1.00  0.00     0.137 C 
BRANCH  24  25
HETATM   25  C   UNL     1     -40.710  53.441 -54.376  1.00  0.00     0.059 C 
BRANCH  25  26
HETATM   26  C   UNL     1     -40.297  52.155 -53.702  1.00  0.00    -0.057 A 
HETATM   27  C   UNL     1     -39.938  52.139 -52.347  1.00  0.00     0.007 A 
HETATM   28  C   UNL     1     -39.534  50.951 -51.736  1.00  0.00     0.001 A 
HETATM   29  C   UNL     1     -39.494  49.766 -52.469  1.00  0.00     0.000 A 
HETATM   30  C   UNL     1     -39.859  49.768 -53.814  1.00  0.00     0.001 A 
HETATM   31  C   UNL     1     -40.258  50.957 -54.429  1.00  0.00     0.007 A 
ENDBRANCH  25  26
ENDBRANCH  24  25
ENDBRANCH   5  24
TORSDOF 6
ENDMDL
MODEL 9
REMARK VINA RESULT:      -7.3      2.923      8.917
REMARK  6 active torsions:
REMARK  status: ('A' for Active; 'I' for Inactive)
REMARK    1  A    between atoms: O_2  and  C_3 
REMARK    2  A    between atoms: C_6  and  C_7 
REMARK       I    between atoms: C_7  and  N_8 
REMARK    3  A    between atoms: N_8  and  N_9 
REMARK    4  A    between atoms: N_13  and  C_14 
REMARK    5  A    between atoms: C_14  and  C_15 
REMARK    6  A    between atoms: C_15  and  C_16 
ROOT
HETATM    1  N   UNL     1     -43.666  56.526 -53.566  1.00  0.00    -0.166 NA
HETATM    2  C   UNL     1     -43.684  57.150 -54.699  1.00  0.00     0.157 A 
HETATM    3  C   UNL     1     -43.095  56.713 -56.038  1.00  0.00     0.279 A 
HETATM    4  O   UNL     1     -42.468  55.685 -56.200  1.00  0.00    -0.265 OA
HETATM    5  N   UNL     1     -43.434  57.710 -56.938  1.00  0.00    -0.311 N 
HETATM    6  C   UNL     1     -44.314  58.441 -54.936  1.00  0.00     0.027 A 
HETATM    7  C   UNL     1     -44.148  58.737 -56.289  1.00  0.00     0.050 A 
HETATM    8  C   UNL     1     -44.650  59.918 -56.803  1.00  0.00     0.031 A 
HETATM    9  C   UNL     1     -45.306  60.792 -55.924  1.00  0.00     0.002 A 
HETATM   10  C   UNL     1     -45.457  60.479 -54.560  1.00  0.00     0.001 A 
HETATM   11  C   UNL     1     -44.957  59.281 -54.049  1.00  0.00     0.016 A 
ENDROOT
BRANCH   1  12
HETATM   12  N   UNL     1     -43.017  55.324 -53.530  1.00  0.00    -0.242 N 
HETATM   13  C   UNL     1     -41.794  55.228 -52.884  1.00  0.00     0.271 C 
HETATM   14  O   UNL     1     -41.245  56.161 -52.302  1.00  0.00    -0.266 OA
HETATM   15  H   UNL     1     -43.426  54.542 -54.038  1.00  0.00     0.192 HD
BRANCH  13  16
HETATM   16  C   UNL     1     -41.104  53.900 -52.936  1.00  0.00     0.033 A 
HETATM   17  C   UNL     1     -40.506  53.293 -51.825  1.00  0.00     0.020 A 
HETATM   18  C   UNL     1     -39.896  52.039 -51.959  1.00  0.00     0.038 A 
HETATM   19  C   UNL     1     -39.867  51.379 -53.190  1.00  0.00     0.068 A 
HETATM   20  C   UNL     1     -40.442  51.990 -54.302  1.00  0.00     0.038 A 
HETATM   21  C   UNL     1     -41.054  53.242 -54.174  1.00  0.00     0.020 A 
BRANCH  19  22
HETATM   22  O   UNL     1     -39.248  50.159 -53.174  1.00  0.00    -0.356 OA
HETATM   23  C   UNL     1     -39.516  49.318 -52.059  1.00  0.00     0.210 C 
ENDBRANCH  19  22
ENDBRANCH  13  16
ENDBRANCH   1  12
BRANCH   5  24
HETATM   24  C   UNL     1     -43.061  57.699 -58.337  1.00  0.00     0.137 C 
BRANCH  24  25
HETATM   25  C   UNL     1     -44.048  56.899 -59.196  1.00  0.00     0.059 C 
BRANCH  25  26
HETATM   26  C   UNL     1     -45.063  57.792 -59.869  1.00  0.00    -0.057 A 
HETATM   27  C   UNL     1     -44.721  59.091 -60.270  1.00  0.00     0.007 A 
HETATM   28  C   UNL     1     -45.671  59.919 -60.869  1.00  0.00     0.001 A 
HETATM   29  C   UNL     1     -46.969  59.457 -61.081  1.00  0.00     0.000 A 
HETATM   30  C   UNL     1     -47.317  58.164 -60.695  1.00  0.00     0.001 A 
HETATM   31  C   UNL     1     -46.369  57.335 -60.090  1.00  0.00     0.007 A 
ENDBRANCH  25  26
ENDBRANCH  24  25
ENDBRANCH   5  24
TORSDOF 6
ENDMDL
MODEL 10
REMARK VINA RESULT:      -7.3     16.677     20.945
REMARK  6 active torsions:
REMARK  status: ('A' for Active; 'I' for Inactive)
REMARK    1  A    between atoms: O_2  and  C_3 
REMARK    2  A    between atoms: C_6  and  C_7 
REMARK       I    between atoms: C_7  and  N_8 
REMARK    3  A    between atoms: N_8  and  N_9 
REMARK    4  A    between atoms: N_13  and  C_14 
REMARK    5  A    between atoms: C_14  and  C_15 
REMARK    6  A    between atoms: C_15  and  C_16 
ROOT
HETATM    1  N   UNL     1     -32.141  38.462 -51.830  1.00  0.00    -0.166 NA
HETATM    2  C   UNL     1     -32.875  39.119 -52.669  1.00  0.00     0.157 A 
HETATM    3  C   UNL     1     -34.273  39.696 -52.462  1.00  0.00     0.279 A 
HETATM    4  O   UNL     1     -34.917  39.566 -51.441  1.00  0.00    -0.265 OA
HETATM    5  N   UNL     1     -34.585  40.348 -53.644  1.00  0.00    -0.311 N 
HETATM    6  C   UNL     1     -32.489  39.468 -54.028  1.00  0.00     0.027 A 
HETATM    7  C   UNL     1     -33.537  40.210 -54.575  1.00  0.00     0.050 A 
HETATM    8  C   UNL     1     -33.446  40.679 -55.872  1.00  0.00     0.031 A 
HETATM    9  C   UNL     1     -32.287  40.374 -56.602  1.00  0.00     0.002 A 
HETATM   10  C   UNL     1     -31.244  39.618 -56.035  1.00  0.00     0.001 A 
HETATM   11  C   UNL     1     -31.337  39.155 -54.723  1.00  0.00     0.016 A 
ENDROOT
BRANCH   1  12
HETATM   12  N   UNL     1     -32.675  38.217 -50.597  1.00  0.00    -0.242 N 
HETATM   13  C   UNL     1     -32.139  38.847 -49.484  1.00  0.00     0.271 C 
HETATM   14  O   UNL     1     -31.211  39.652 -49.526  1.00  0.00    -0.266 OA
HETATM   15  H   UNL     1     -33.417  37.524 -50.523  1.00  0.00     0.192 HD
BRANCH  13  16
HETATM   16  C   UNL     1     -32.726  38.488 -48.154  1.00  0.00     0.033 A 
HETATM   17  C   UNL     1     -34.072  38.153 -47.965  1.00  0.00     0.020 A 
HETATM   18  C   UNL     1     -34.534  37.812 -46.688  1.00  0.00     0.038 A 
HETATM   19  C   UNL     1     -33.673  37.805 -45.587  1.00  0.00     0.068 A 
HETATM   20  C   UNL     1     -32.337  38.160 -45.768  1.00  0.00     0.038 A 
HETATM   21  C   UNL     1     -31.871  38.500 -47.043  1.00  0.00     0.020 A 
BRANCH  19  22
HETATM   22  O   UNL     1     -34.255  37.445 -44.403  1.00  0.00    -0.356 OA
HETATM   23  C   UNL     1     -35.662  37.241 -44.417  1.00  0.00     0.210 C 
ENDBRANCH  19  22
ENDBRANCH  13  16
ENDBRANCH   1  12
BRANCH   5  24
HETATM   24  C   UNL     1     -35.837  41.034 -53.884  1.00  0.00     0.137 C 
BRANCH  24  25
HETATM   25  C   UNL     1     -36.878  40.130 -54.556  1.00  0.00     0.059 C 
BRANCH  25  26
HETATM   26  C   UNL     1     -37.123  40.524 -55.993  1.00  0.00    -0.057 A 
HETATM   27  C   UNL     1     -37.641  39.600 -56.911  1.00  0.00     0.007 A 
HETATM   28  C   UNL     1     -37.842  39.963 -58.244  1.00  0.00     0.001 A 
HETATM   29  C   UNL     1     -37.535  41.254 -58.671  1.00  0.00     0.000 A 
HETATM   30  C   UNL     1     -37.029  42.184 -57.764  1.00  0.00     0.001 A 
HETATM   31  C   UNL     1     -36.822  41.820 -56.432  1.00  0.00     0.007 A 
ENDBRANCH  25  26
ENDBRANCH  24  25
ENDBRANCH   5  24
TORSDOF 6
ENDMDL
