MODEL 1
REMARK VINA RESULT:      -7.7      0.000      0.000
REMARK  4 active torsions:
REMARK  status: ('A' for Active; 'I' for Inactive)
REMARK    1  A    between atoms: C_2  and  O_3 
REMARK    2  A    between atoms: O_3  and  C_4 
REMARK    3  A    between atoms: C_7  and  C_8 
REMARK       I    between atoms: C_8  and  N_9 
REMARK    4  A    between atoms: N_9  and  C_10 
ROOT
HETATM    1  C   UNL     1     -41.466  54.693 -52.377  1.00  0.00     0.262 C 
HETATM    2  N   UNL     1     -40.308  53.998 -52.686  1.00  0.00    -0.321 N 
HETATM    3  O   UNL     1     -42.573  54.175 -52.278  1.00  0.00    -0.267 OA
HETATM    4  H   UNL     1     -39.458  54.541 -52.785  1.00  0.00     0.169 HD
ENDROOT
BRANCH   1   5
HETATM    5  C   UNL     1     -41.331  56.165 -52.151  1.00  0.00     0.112 A 
HETATM    6  C   UNL     1     -41.176  57.083 -53.200  1.00  0.00     0.168 A 
HETATM    7  C   UNL     1     -41.042  58.457 -52.954  1.00  0.00     0.108 A 
HETATM    8  F   UNL     1     -41.139  56.631 -54.465  1.00  0.00    -0.202 F 
HETATM    9  C   UNL     1     -41.052  58.917 -51.635  1.00  0.00     0.043 A 
HETATM   10  C   UNL     1     -41.212  58.022 -50.581  1.00  0.00     0.046 A 
HETATM   11  C   UNL     1     -41.352  56.661 -50.842  1.00  0.00     0.135 A 
HETATM   12  F   UNL     1     -41.489  55.851 -49.783  1.00  0.00    -0.205 F 
BRANCH   7  13
HETATM   13  O   UNL     1     -40.877  59.451 -53.880  1.00  0.00    -0.348 OA
BRANCH  13  14
HETATM   14  C   UNL     1     -42.048  60.072 -54.406  1.00  0.00     0.171 C 
HETATM   15  C   UNL     1     -41.995  59.950 -55.918  1.00  0.00     0.034 C 
ENDBRANCH  13  14
ENDBRANCH   7  13
ENDBRANCH   1   5
BRANCH   2  16
HETATM   16  C   UNL     1     -40.149  52.609 -52.887  1.00  0.00     0.064 A 
HETATM   17  C   UNL     1     -40.071  51.610 -51.905  1.00  0.00     0.088 A 
HETATM   18  C   UNL     1     -39.891  50.260 -52.206  1.00  0.00     0.014 A 
HETATM   19  N   UNL     1     -40.137  51.645 -50.535  1.00  0.00    -0.275 N 
HETATM   20  C   UNL     1     -39.857  49.606 -50.954  1.00  0.00     0.152 A 
HETATM   21  C   UNL     1     -39.785  49.853 -53.547  1.00  0.00     0.015 A 
HETATM   22  N   UNL     1     -40.005  50.448 -49.930  1.00  0.00    -0.186 NA
HETATM   23  C   UNL     1     -39.864  50.821 -54.547  1.00  0.00     0.003 A 
HETATM   24  C   UNL     1     -40.039  52.168 -54.221  1.00  0.00     0.032 A 
HETATM   25  H   UNL     1     -40.276  52.480 -49.967  1.00  0.00     0.189 HD
ENDBRANCH   2  16
TORSDOF 4
ENDMDL
MODEL 2
REMARK VINA RESULT:      -7.6      1.171      1.966
REMARK  4 active torsions:
REMARK  status: ('A' for Active; 'I' for Inactive)
REMARK    1  A    between atoms: C_2  and  O_3 
REMARK    2  A    between atoms: O_3  and  C_4 
REMARK    3  A    between atoms: C_7  and  C_8 
REMARK       I    between atoms: C_8  and  N_9 
REMARK    4  A    between atoms: N_9  and  C_10 
ROOT
HETATM    1  C   UNL     1     -41.364  54.635 -51.872  1.00  0.00     0.262 C 
HETATM    2  N   UNL     1     -40.230  53.888 -51.606  1.00  0.00    -0.321 N 
HETATM    3  O   UNL     1     -42.461  54.153 -52.130  1.00  0.00    -0.267 OA
HETATM    4  H   UNL     1     -39.367  54.398 -51.451  1.00  0.00     0.169 HD
ENDROOT
BRANCH   1   5
HETATM    5  C   UNL     1     -41.217  56.123 -51.835  1.00  0.00     0.112 A 
HETATM    6  C   UNL     1     -41.097  56.904 -52.994  1.00  0.00     0.168 A 
HETATM    7  C   UNL     1     -40.951  58.297 -52.923  1.00  0.00     0.108 A 
HETATM    8  F   UNL     1     -41.107  56.300 -54.194  1.00  0.00    -0.202 F 
HETATM    9  C   UNL     1     -40.912  58.916 -51.672  1.00  0.00     0.043 A 
HETATM   10  C   UNL     1     -41.037  58.159 -50.511  1.00  0.00     0.046 A 
HETATM   11  C   UNL     1     -41.190  56.777 -50.596  1.00  0.00     0.135 A 
HETATM   12  F   UNL     1     -41.291  56.105 -49.442  1.00  0.00    -0.205 F 
BRANCH   7  13
HETATM   13  O   UNL     1     -40.817  59.168 -53.970  1.00  0.00    -0.348 OA
BRANCH  13  14
HETATM   14  C   UNL     1     -41.976  59.880 -54.397  1.00  0.00     0.171 C 
HETATM   15  C   UNL     1     -42.139  59.646 -55.888  1.00  0.00     0.034 C 
ENDBRANCH  13  14
ENDBRANCH   7  13
ENDBRANCH   1   5
BRANCH   2  16
HETATM   16  C   UNL     1     -40.108  52.483 -51.521  1.00  0.00     0.064 A 
HETATM   17  C   UNL     1     -39.874  51.583 -52.572  1.00  0.00     0.088 A 
HETATM   18  C   UNL     1     -39.791  50.203 -52.388  1.00  0.00     0.014 A 
HETATM   19  N   UNL     1     -39.681  51.757 -53.920  1.00  0.00    -0.275 N 
HETATM   20  C   UNL     1     -39.561  49.675 -53.678  1.00  0.00     0.152 A 
HETATM   21  C   UNL     1     -39.940  49.661 -51.101  1.00  0.00     0.015 A 
HETATM   22  N   UNL     1     -39.495  50.620 -54.617  1.00  0.00    -0.186 NA
HETATM   23  C   UNL     1     -40.169  50.529 -50.034  1.00  0.00     0.003 A 
HETATM   24  C   UNL     1     -40.253  51.907 -50.243  1.00  0.00     0.032 A 
HETATM   25  H   UNL     1     -39.668  52.652 -54.408  1.00  0.00     0.189 HD
ENDBRANCH   2  16
TORSDOF 4
ENDMDL
MODEL 3
REMARK VINA RESULT:      -7.5      4.116      5.732
REMARK  4 active torsions:
REMARK  status: ('A' for Active; 'I' for Inactive)
REMARK    1  A    between atoms: C_2  and  O_3 
REMARK    2  A    between atoms: O_3  and  C_4 
REMARK    3  A    between atoms: C_7  and  C_8 
REMARK       I    between atoms: C_8  and  N_9 
REMARK    4  A    between atoms: N_9  and  C_10 
ROOT
HETATM    1  C   UNL     1     -42.704  55.582 -56.006  1.00  0.00     0.262 C 
HETATM    2  N   UNL     1     -41.500  54.941 -55.772  1.00  0.00    -0.321 N 
HETATM    3  O   UNL     1     -43.638  55.604 -55.212  1.00  0.00    -0.267 OA
HETATM    4  H   UNL     1     -40.818  54.952 -56.523  1.00  0.00     0.169 HD
ENDROOT
BRANCH   1   5
HETATM    5  C   UNL     1     -42.851  56.288 -57.316  1.00  0.00     0.112 A 
HETATM    6  C   UNL     1     -43.364  55.662 -58.462  1.00  0.00     0.168 A 
HETATM    7  C   UNL     1     -43.480  56.350 -59.679  1.00  0.00     0.108 A 
HETATM    8  F   UNL     1     -43.737  54.373 -58.393  1.00  0.00    -0.202 F 
HETATM    9  C   UNL     1     -43.064  57.681 -59.752  1.00  0.00     0.043 A 
HETATM   10  C   UNL     1     -42.559  58.320 -58.624  1.00  0.00     0.046 A 
HETATM   11  C   UNL     1     -42.457  57.627 -57.420  1.00  0.00     0.135 A 
HETATM   12  F   UNL     1     -41.951  58.296 -56.376  1.00  0.00    -0.205 F 
BRANCH   7  13
HETATM   13  O   UNL     1     -43.953  55.857 -60.865  1.00  0.00    -0.348 OA
BRANCH  13  14
HETATM   14  C   UNL     1     -45.183  55.136 -60.844  1.00  0.00     0.171 C 
HETATM   15  C   UNL     1     -46.306  56.144 -60.684  1.00  0.00     0.034 C 
ENDBRANCH  13  14
ENDBRANCH   7  13
ENDBRANCH   1   5
BRANCH   2  16
HETATM   16  C   UNL     1     -41.084  54.258 -54.607  1.00  0.00     0.064 A 
HETATM   17  C   UNL     1     -41.158  54.713 -53.281  1.00  0.00     0.088 A 
HETATM   18  C   UNL     1     -40.699  53.968 -52.195  1.00  0.00     0.014 A 
HETATM   19  N   UNL     1     -41.637  55.871 -52.720  1.00  0.00    -0.275 N 
HETATM   20  C   UNL     1     -40.946  54.779 -51.065  1.00  0.00     0.152 A 
HETATM   21  C   UNL     1     -40.137  52.699 -52.408  1.00  0.00     0.015 A 
HETATM   22  N   UNL     1     -41.518  55.942 -51.381  1.00  0.00    -0.186 NA
HETATM   23  C   UNL     1     -40.054  52.216 -53.714  1.00  0.00     0.003 A 
HETATM   24  C   UNL     1     -40.515  52.982 -54.786  1.00  0.00     0.032 A 
HETATM   25  H   UNL     1     -42.061  56.646 -53.227  1.00  0.00     0.189 HD
ENDBRANCH   2  16
TORSDOF 4
ENDMDL
MODEL 4
REMARK VINA RESULT:      -7.5      3.052      3.878
REMARK  4 active torsions:
REMARK  status: ('A' for Active; 'I' for Inactive)
REMARK    1  A    between atoms: C_2  and  O_3 
REMARK    2  A    between atoms: O_3  and  C_4 
REMARK    3  A    between atoms: C_7  and  C_8 
REMARK       I    between atoms: C_8  and  N_9 
REMARK    4  A    between atoms: N_9  and  C_10 
ROOT
HETATM    1  C   UNL     1     -42.185  54.563 -53.882  1.00  0.00     0.262 C 
HETATM    2  N   UNL     1     -40.930  53.982 -53.830  1.00  0.00    -0.321 N 
HETATM    3  O   UNL     1     -43.138  54.206 -53.198  1.00  0.00    -0.267 OA
HETATM    4  H   UNL     1     -40.233  54.333 -54.477  1.00  0.00     0.169 HD
ENDROOT
BRANCH   1   5
HETATM    5  C   UNL     1     -42.366  55.699 -54.837  1.00  0.00     0.112 A 
HETATM    6  C   UNL     1     -42.964  55.544 -56.097  1.00  0.00     0.168 A 
HETATM    7  C   UNL     1     -43.109  56.629 -56.974  1.00  0.00     0.108 A 
HETATM    8  F   UNL     1     -43.391  54.327 -56.473  1.00  0.00    -0.202 F 
HETATM    9  C   UNL     1     -42.637  57.885 -56.589  1.00  0.00     0.043 A 
HETATM   10  C   UNL     1     -42.047  58.060 -55.340  1.00  0.00     0.046 A 
HETATM   11  C   UNL     1     -41.917  56.976 -54.476  1.00  0.00     0.135 A 
HETATM   12  F   UNL     1     -41.329  57.208 -53.295  1.00  0.00    -0.205 F 
BRANCH   7  13
HETATM   13  O   UNL     1     -43.663  56.611 -58.226  1.00  0.00    -0.348 OA
BRANCH  13  14
HETATM   14  C   UNL     1     -43.002  55.852 -59.235  1.00  0.00     0.171 C 
HETATM   15  C   UNL     1     -44.042  54.977 -59.911  1.00  0.00     0.034 C 
ENDBRANCH  13  14
ENDBRANCH   7  13
ENDBRANCH   1   5
BRANCH   2  16
HETATM   16  C   UNL     1     -40.481  52.944 -52.983  1.00  0.00     0.064 A 
HETATM   17  C   UNL     1     -40.144  51.632 -53.350  1.00  0.00     0.088 A 
HETATM   18  C   UNL     1     -39.729  50.668 -52.431  1.00  0.00     0.014 A 
HETATM   19  N   UNL     1     -40.123  50.980 -54.557  1.00  0.00    -0.275 N 
HETATM   20  C   UNL     1     -39.504  49.503 -53.198  1.00  0.00     0.152 A 
HETATM   21  C   UNL     1     -39.628  51.001 -51.069  1.00  0.00     0.015 A 
HETATM   22  N   UNL     1     -39.745  49.688 -54.496  1.00  0.00    -0.186 NA
HETATM   23  C   UNL     1     -39.951  52.299 -50.674  1.00  0.00     0.003 A 
HETATM   24  C   UNL     1     -40.370  53.245 -51.611  1.00  0.00     0.032 A 
HETATM   25  H   UNL     1     -40.362  51.390 -55.459  1.00  0.00     0.189 HD
ENDBRANCH   2  16
TORSDOF 4
ENDMDL
MODEL 5
REMARK VINA RESULT:      -7.4      3.207      7.194
REMARK  4 active torsions:
REMARK  status: ('A' for Active; 'I' for Inactive)
REMARK    1  A    between atoms: C_2  and  O_3 
REMARK    2  A    between atoms: O_3  and  C_4 
REMARK    3  A    between atoms: C_7  and  C_8 
REMARK       I    between atoms: C_8  and  N_9 
REMARK    4  A    between atoms: N_9  and  C_10 
ROOT
HETATM    1  C   UNL     1     -41.515  55.563 -53.744  1.00  0.00     0.262 C 
HETATM    2  N   UNL     1     -42.771  55.411 -54.307  1.00  0.00    -0.321 N 
HETATM    3  O   UNL     1     -40.798  56.542 -53.915  1.00  0.00    -0.267 OA
HETATM    4  H   UNL     1     -43.252  54.536 -54.131  1.00  0.00     0.169 HD
ENDROOT
BRANCH   1   5
HETATM    5  C   UNL     1     -41.025  54.449 -52.875  1.00  0.00     0.112 A 
HETATM    6  C   UNL     1     -40.276  53.372 -53.371  1.00  0.00     0.168 A 
HETATM    7  C   UNL     1     -39.839  52.337 -52.530  1.00  0.00     0.108 A 
HETATM    8  F   UNL     1     -39.985  53.326 -54.682  1.00  0.00    -0.202 F 
HETATM    9  C   UNL     1     -40.169  52.377 -51.174  1.00  0.00     0.043 A 
HETATM   10  C   UNL     1     -40.906  53.441 -50.662  1.00  0.00     0.046 A 
HETATM   11  C   UNL     1     -41.326  54.465 -51.507  1.00  0.00     0.135 A 
HETATM   12  F   UNL     1     -42.043  55.453 -50.955  1.00  0.00    -0.205 F 
BRANCH   7  13
HETATM   13  O   UNL     1     -39.113  51.233 -52.886  1.00  0.00    -0.348 OA
BRANCH  13  14
HETATM   14  C   UNL     1     -39.826  50.028 -53.159  1.00  0.00     0.171 C 
HETATM   15  C   UNL     1     -39.924  49.882 -54.667  1.00  0.00     0.034 C 
ENDBRANCH  13  14
ENDBRANCH   7  13
ENDBRANCH   1   5
BRANCH   2  16
HETATM   16  C   UNL     1     -43.485  56.328 -55.111  1.00  0.00     0.064 A 
HETATM   17  C   UNL     1     -43.358  56.527 -56.494  1.00  0.00     0.088 A 
HETATM   18  C   UNL     1     -44.098  57.477 -57.197  1.00  0.00     0.014 A 
HETATM   19  N   UNL     1     -42.573  55.933 -57.451  1.00  0.00    -0.275 N 
HETATM   20  C   UNL     1     -43.665  57.361 -58.537  1.00  0.00     0.152 A 
HETATM   21  C   UNL     1     -45.026  58.282 -56.515  1.00  0.00     0.015 A 
HETATM   22  N   UNL     1     -42.734  56.420 -58.696  1.00  0.00    -0.186 NA
HETATM   23  C   UNL     1     -45.180  58.105 -55.140  1.00  0.00     0.003 A 
HETATM   24  C   UNL     1     -44.424  57.151 -54.457  1.00  0.00     0.032 A 
HETATM   25  H   UNL     1     -41.908  55.178 -57.290  1.00  0.00     0.189 HD
ENDBRANCH   2  16
TORSDOF 4
ENDMDL
MODEL 6
REMARK VINA RESULT:      -7.4      3.159      7.181
REMARK  4 active torsions:
REMARK  status: ('A' for Active; 'I' for Inactive)
REMARK    1  A    between atoms: C_2  and  O_3 
REMARK    2  A    between atoms: O_3  and  C_4 
REMARK    3  A    between atoms: C_7  and  C_8 
REMARK       I    between atoms: C_8  and  N_9 
REMARK    4  A    between atoms: N_9  and  C_10 
ROOT
HETATM    1  C   UNL     1     -42.523  54.957 -53.991  1.00  0.00     0.262 C 
HETATM    2  N   UNL     1     -41.874  56.026 -54.586  1.00  0.00    -0.321 N 
HETATM    3  O   UNL     1     -43.695  54.660 -54.201  1.00  0.00    -0.267 OA
HETATM    4  H   UNL     1     -40.918  56.201 -54.299  1.00  0.00     0.169 HD
ENDROOT
BRANCH   1   5
HETATM    5  C   UNL     1     -41.724  54.125 -53.040  1.00  0.00     0.112 A 
HETATM    6  C   UNL     1     -40.815  53.146 -53.467  1.00  0.00     0.168 A 
HETATM    7  C   UNL     1     -40.087  52.375 -52.547  1.00  0.00     0.108 A 
HETATM    8  F   UNL     1     -40.651  52.934 -54.783  1.00  0.00    -0.202 F 
HETATM    9  C   UNL     1     -40.284  52.581 -51.180  1.00  0.00     0.043 A 
HETATM   10  C   UNL     1     -41.176  53.552 -50.738  1.00  0.00     0.046 A 
HETATM   11  C   UNL     1     -41.886  54.316 -51.662  1.00  0.00     0.135 A 
HETATM   12  F   UNL     1     -42.739  55.225 -51.172  1.00  0.00    -0.205 F 
BRANCH   7  13
HETATM   13  O   UNL     1     -39.182  51.389 -52.829  1.00  0.00    -0.348 OA
BRANCH  13  14
HETATM   14  C   UNL     1     -39.678  50.067 -53.029  1.00  0.00     0.171 C 
HETATM   15  C   UNL     1     -39.723  49.813 -54.525  1.00  0.00     0.034 C 
ENDBRANCH  13  14
ENDBRANCH   7  13
ENDBRANCH   1   5
BRANCH   2  16
HETATM   16  C   UNL     1     -42.375  56.925 -55.554  1.00  0.00     0.064 A 
HETATM   17  C   UNL     1     -42.951  56.607 -56.794  1.00  0.00     0.088 A 
HETATM   18  C   UNL     1     -43.398  57.573 -57.695  1.00  0.00     0.014 A 
HETATM   19  N   UNL     1     -43.213  55.413 -57.419  1.00  0.00    -0.275 N 
HETATM   20  C   UNL     1     -43.888  56.843 -58.801  1.00  0.00     0.152 A 
HETATM   21  C   UNL     1     -43.285  58.935 -57.369  1.00  0.00     0.015 A 
HETATM   22  N   UNL     1     -43.776  55.524 -58.637  1.00  0.00    -0.186 NA
HETATM   23  C   UNL     1     -42.722  59.283 -56.142  1.00  0.00     0.003 A 
HETATM   24  C   UNL     1     -42.277  58.299 -55.258  1.00  0.00     0.032 A 
HETATM   25  H   UNL     1     -43.022  54.488 -57.038  1.00  0.00     0.189 HD
ENDBRANCH   2  16
TORSDOF 4
ENDMDL
MODEL 7
REMARK VINA RESULT:      -7.3      4.072      7.685
REMARK  4 active torsions:
REMARK  status: ('A' for Active; 'I' for Inactive)
REMARK    1  A    between atoms: C_2  and  O_3 
REMARK    2  A    between atoms: O_3  and  C_4 
REMARK    3  A    between atoms: C_7  and  C_8 
REMARK       I    between atoms: C_8  and  N_9 
REMARK    4  A    between atoms: N_9  and  C_10 
ROOT
HETATM    1  C   UNL     1     -42.137  55.850 -55.511  1.00  0.00     0.262 C 
HETATM    2  N   UNL     1     -42.759  55.352 -56.643  1.00  0.00    -0.321 N 
HETATM    3  O   UNL     1     -41.904  57.039 -55.320  1.00  0.00    -0.267 OA
HETATM    4  H   UNL     1     -42.856  54.345 -56.710  1.00  0.00     0.169 HD
ENDROOT
BRANCH   1   5
HETATM    5  C   UNL     1     -41.736  54.857 -54.467  1.00  0.00     0.112 A 
HETATM    6  C   UNL     1     -40.696  53.934 -54.657  1.00  0.00     0.168 A 
HETATM    7  C   UNL     1     -40.351  53.009 -53.661  1.00  0.00     0.108 A 
HETATM    8  F   UNL     1     -40.029  53.930 -55.824  1.00  0.00    -0.202 F 
HETATM    9  C   UNL     1     -41.067  52.999 -52.462  1.00  0.00     0.043 A 
HETATM   10  C   UNL     1     -42.097  53.911 -52.253  1.00  0.00     0.046 A 
HETATM   11  C   UNL     1     -42.424  54.830 -53.248  1.00  0.00     0.135 A 
HETATM   12  F   UNL     1     -43.434  55.672 -52.990  1.00  0.00    -0.205 F 
BRANCH   7  13
HETATM   13  O   UNL     1     -39.370  52.056 -53.722  1.00  0.00    -0.348 OA
BRANCH  13  14
HETATM   14  C   UNL     1     -39.700  50.734 -53.303  1.00  0.00     0.171 C 
HETATM   15  C   UNL     1     -39.918  49.896 -54.550  1.00  0.00     0.034 C 
ENDBRANCH  13  14
ENDBRANCH   7  13
ENDBRANCH   1   5
BRANCH   2  16
HETATM   16  C   UNL     1     -43.284  56.071 -57.741  1.00  0.00     0.064 A 
HETATM   17  C   UNL     1     -44.249  57.089 -57.708  1.00  0.00     0.088 A 
HETATM   18  C   UNL     1     -44.721  57.726 -58.856  1.00  0.00     0.014 A 
HETATM   19  N   UNL     1     -44.934  57.688 -56.682  1.00  0.00    -0.275 N 
HETATM   20  C   UNL     1     -45.672  58.661 -58.390  1.00  0.00     0.152 A 
HETATM   21  C   UNL     1     -44.220  57.356 -60.115  1.00  0.00     0.015 A 
HETATM   22  N   UNL     1     -45.807  58.641 -57.064  1.00  0.00    -0.186 NA
HETATM   23  C   UNL     1     -43.255  56.350 -60.180  1.00  0.00     0.003 A 
HETATM   24  C   UNL     1     -42.802  55.723 -59.018  1.00  0.00     0.032 A 
HETATM   25  H   UNL     1     -44.830  57.473 -55.691  1.00  0.00     0.189 HD
ENDBRANCH   2  16
TORSDOF 4
ENDMDL
MODEL 8
REMARK VINA RESULT:      -7.3      1.849      3.114
REMARK  4 active torsions:
REMARK  status: ('A' for Active; 'I' for Inactive)
REMARK    1  A    between atoms: C_2  and  O_3 
REMARK    2  A    between atoms: O_3  and  C_4 
REMARK    3  A    between atoms: C_7  and  C_8 
REMARK       I    between atoms: C_8  and  N_9 
REMARK    4  A    between atoms: N_9  and  C_10 
ROOT
HETATM    1  C   UNL     1     -41.849  54.584 -53.198  1.00  0.00     0.262 C 
HETATM    2  N   UNL     1     -40.613  53.980 -53.044  1.00  0.00    -0.321 N 
HETATM    3  O   UNL     1     -42.910  54.082 -52.842  1.00  0.00    -0.267 OA
HETATM    4  H   UNL     1     -39.809  54.472 -53.420  1.00  0.00     0.169 HD
ENDROOT
BRANCH   1   5
HETATM    5  C   UNL     1     -41.866  55.935 -53.839  1.00  0.00     0.112 A 
HETATM    6  C   UNL     1     -41.466  57.099 -53.167  1.00  0.00     0.168 A 
HETATM    7  C   UNL     1     -41.503  58.354 -53.794  1.00  0.00     0.108 A 
HETATM    8  F   UNL     1     -41.054  57.010 -51.891  1.00  0.00    -0.202 F 
HETATM    9  C   UNL     1     -41.960  58.444 -55.111  1.00  0.00     0.043 A 
HETATM   10  C   UNL     1     -42.354  57.299 -55.797  1.00  0.00     0.046 A 
HETATM   11  C   UNL     1     -42.304  56.059 -55.164  1.00  0.00     0.135 A 
HETATM   12  F   UNL     1     -42.710  54.997 -55.874  1.00  0.00    -0.205 F 
BRANCH   7  13
HETATM   13  O   UNL     1     -41.151  59.560 -53.252  1.00  0.00    -0.348 OA
BRANCH  13  14
HETATM   14  C   UNL     1     -42.139  60.267 -52.505  1.00  0.00     0.171 C 
HETATM   15  C   UNL     1     -41.790  60.130 -51.034  1.00  0.00     0.034 C 
ENDBRANCH  13  14
ENDBRANCH   7  13
ENDBRANCH   1   5
BRANCH   2  16
HETATM   16  C   UNL     1     -40.314  52.745 -52.425  1.00  0.00     0.064 A 
HETATM   17  C   UNL     1     -40.009  51.529 -53.055  1.00  0.00     0.088 A 
HETATM   18  C   UNL     1     -39.748  50.353 -52.352  1.00  0.00     0.014 A 
HETATM   19  N   UNL     1     -39.893  51.168 -54.374  1.00  0.00    -0.275 N 
HETATM   20  C   UNL     1     -39.504  49.379 -53.346  1.00  0.00     0.152 A 
HETATM   21  C   UNL     1     -39.778  50.359 -50.947  1.00  0.00     0.015 A 
HETATM   22  N   UNL     1     -39.592  49.871 -54.582  1.00  0.00    -0.186 NA
HETATM   23  C   UNL     1     -40.072  51.554 -50.291  1.00  0.00     0.003 A 
HETATM   24  C   UNL     1     -40.336  52.718 -51.017  1.00  0.00     0.032 A 
HETATM   25  H   UNL     1     -40.010  51.789 -55.174  1.00  0.00     0.189 HD
ENDBRANCH   2  16
TORSDOF 4
ENDMDL
MODEL 9
REMARK VINA RESULT:      -7.1      3.301      7.273
REMARK  4 active torsions:
REMARK  status: ('A' for Active; 'I' for Inactive)
REMARK    1  A    between atoms: C_2  and  O_3 
REMARK    2  A    between atoms: O_3  and  C_4 
REMARK    3  A    between atoms: C_7  and  C_8 
REMARK       I    between atoms: C_8  and  N_9 
REMARK    4  A    between atoms: N_9  and  C_10 
ROOT
HETATM    1  C   UNL     1     -41.825  56.472 -52.267  1.00  0.00     0.262 C 
HETATM    2  N   UNL     1     -43.141  56.561 -52.686  1.00  0.00    -0.321 N 
HETATM    3  O   UNL     1     -41.101  57.440 -52.061  1.00  0.00    -0.267 OA
HETATM    4  H   UNL     1     -43.627  55.689 -52.869  1.00  0.00     0.169 HD
ENDROOT
BRANCH   1   5
HETATM    5  C   UNL     1     -41.274  55.098 -52.057  1.00  0.00     0.112 A 
HETATM    6  C   UNL     1     -40.728  54.331 -53.098  1.00  0.00     0.168 A 
HETATM    7  C   UNL     1     -40.228  53.041 -52.869  1.00  0.00     0.108 A 
HETATM    8  F   UNL     1     -40.700  54.841 -54.341  1.00  0.00    -0.202 F 
HETATM    9  C   UNL     1     -40.287  52.506 -51.580  1.00  0.00     0.043 A 
HETATM   10  C   UNL     1     -40.818  53.254 -50.534  1.00  0.00     0.046 A 
HETATM   11  C   UNL     1     -41.303  54.537 -50.774  1.00  0.00     0.135 A 
HETATM   12  F   UNL     1     -41.814  55.199 -49.727  1.00  0.00    -0.205 F 
BRANCH   7  13
HETATM   13  O   UNL     1     -39.681  52.190 -53.791  1.00  0.00    -0.348 OA
BRANCH  13  14
HETATM   14  C   UNL     1     -40.497  51.130 -54.284  1.00  0.00     0.171 C 
HETATM   15  C   UNL     1     -39.617  49.901 -54.432  1.00  0.00     0.034 C 
ENDBRANCH  13  14
ENDBRANCH   7  13
ENDBRANCH   1   5
BRANCH   2  16
HETATM   16  C   UNL     1     -43.914  57.724 -52.901  1.00  0.00     0.064 A 
HETATM   17  C   UNL     1     -44.732  58.386 -51.972  1.00  0.00     0.088 A 
HETATM   18  C   UNL     1     -45.477  59.522 -52.289  1.00  0.00     0.014 A 
HETATM   19  N   UNL     1     -45.015  58.153 -50.649  1.00  0.00    -0.275 N 
HETATM   20  C   UNL     1     -46.155  59.859 -51.096  1.00  0.00     0.152 A 
HETATM   21  C   UNL     1     -45.421  60.053 -53.588  1.00  0.00     0.015 A 
HETATM   22  N   UNL     1     -45.877  59.025 -50.093  1.00  0.00    -0.186 NA
HETATM   23  C   UNL     1     -44.613  59.420 -54.533  1.00  0.00     0.003 A 
HETATM   24  C   UNL     1     -43.880  58.281 -54.195  1.00  0.00     0.032 A 
HETATM   25  H   UNL     1     -44.630  57.399 -50.083  1.00  0.00     0.189 HD
ENDBRANCH   2  16
TORSDOF 4
ENDMDL
MODEL 10
REMARK VINA RESULT:      -7.1      3.610      7.483
REMARK  4 active torsions:
REMARK  status: ('A' for Active; 'I' for Inactive)
REMARK    1  A    between atoms: C_2  and  O_3 
REMARK    2  A    between atoms: O_3  and  C_4 
REMARK    3  A    between atoms: C_7  and  C_8 
REMARK       I    between atoms: C_8  and  N_9 
REMARK    4  A    between atoms: N_9  and  C_10 
ROOT
HETATM    1  C   UNL     1     -41.512  55.748 -54.629  1.00  0.00     0.262 C 
HETATM    2  N   UNL     1     -42.515  55.483 -55.545  1.00  0.00    -0.321 N 
HETATM    3  O   UNL     1     -41.023  56.857 -54.445  1.00  0.00    -0.267 OA
HETATM    4  H   UNL     1     -42.808  54.517 -55.642  1.00  0.00     0.169 HD
ENDROOT
BRANCH   1   5
HETATM    5  C   UNL     1     -41.010  54.592 -53.824  1.00  0.00     0.112 A 
HETATM    6  C   UNL     1     -41.147  54.523 -52.429  1.00  0.00     0.168 A 
HETATM    7  C   UNL     1     -40.657  53.428 -51.701  1.00  0.00     0.108 A 
HETATM    8  F   UNL     1     -41.748  55.533 -51.779  1.00  0.00    -0.202 F 
HETATM    9  C   UNL     1     -40.007  52.394 -52.380  1.00  0.00     0.043 A 
HETATM   10  C   UNL     1     -39.868  52.443 -53.764  1.00  0.00     0.046 A 
HETATM   11  C   UNL     1     -40.367  53.532 -54.474  1.00  0.00     0.135 A 
HETATM   12  F   UNL     1     -40.189  53.524 -55.802  1.00  0.00    -0.205 F 
BRANCH   7  13
HETATM   13  O   UNL     1     -40.718  53.242 -50.347  1.00  0.00    -0.348 OA
BRANCH  13  14
HETATM   14  C   UNL     1     -39.923  54.091 -49.522  1.00  0.00     0.171 C 
HETATM   15  C   UNL     1     -40.402  53.925 -48.091  1.00  0.00     0.034 C 
ENDBRANCH  13  14
ENDBRANCH   7  13
ENDBRANCH   1   5
BRANCH   2  16
HETATM   16  C   UNL     1     -43.199  56.394 -56.382  1.00  0.00     0.064 A 
HETATM   17  C   UNL     1     -43.106  56.502 -57.778  1.00  0.00     0.088 A 
HETATM   18  C   UNL     1     -43.810  57.455 -58.515  1.00  0.00     0.014 A 
HETATM   19  N   UNL     1     -42.393  55.804 -58.720  1.00  0.00    -0.275 N 
HETATM   20  C   UNL     1     -43.431  57.231 -59.858  1.00  0.00     0.152 A 
HETATM   21  C   UNL     1     -44.662  58.356 -57.856  1.00  0.00     0.015 A 
HETATM   22  N   UNL     1     -42.565  56.225 -59.987  1.00  0.00    -0.186 NA
HETATM   23  C   UNL     1     -44.780  58.271 -56.469  1.00  0.00     0.003 A 
HETATM   24  C   UNL     1     -44.062  57.312 -55.752  1.00  0.00     0.032 A 
HETATM   25  H   UNL     1     -41.770  55.019 -58.533  1.00  0.00     0.189 HD
ENDBRANCH   2  16
TORSDOF 4
ENDMDL
