MODEL 1
REMARK VINA RESULT:      -7.7      0.000      0.000
REMARK  10 active torsions:
REMARK  status: ('A' for Active; 'I' for Inactive)
REMARK    1  A    between atoms: C_4  and  C_5 
REMARK    2  A    between atoms: C_5  and  O_6 
REMARK    3  A    between atoms: O_6  and  C_7 
REMARK    4  A    between atoms: C_10  and  N_11 
REMARK       I    between atoms: N_11  and  C_12 
REMARK       I    between atoms: C_12  and  N_13 
REMARK    5  A    between atoms: N_13  and  C_14 
REMARK    6  A    between atoms: C_14  and  C_15 
REMARK    7  A    between atoms: C_15  and  C_16 
REMARK    8  A    between atoms: C_16  and  C_17 
REMARK    9  A    between atoms: C_17  and  N_18 
REMARK   10  A    between atoms: C_25  and  C_26 
REMARK       I    between atoms: C_26  and  N_27 
ROOT
HETATM    1  C   UNL     1     -42.560  56.415 -51.400  1.00  0.00     0.191 C 
HETATM    2  N   UNL     1     -42.197  57.661 -51.118  1.00  0.00    -0.184 NA
HETATM    3  S   UNL     1     -42.892  58.652 -52.241  1.00  0.00     0.033 SA
HETATM    4  C   UNL     1     -43.801  57.426 -53.021  1.00  0.00     0.117 C 
HETATM    5  C   UNL     1     -43.408  56.186 -52.537  1.00  0.00     0.120 C 
ENDROOT
BRANCH   4   6
HETATM    6  N   UNL     1     -44.669  57.934 -53.970  1.00  0.00    -0.301 N 
HETATM    7  C   UNL     1     -44.542  57.850 -55.327  1.00  0.00     0.321 C 
HETATM    8  N   UNL     1     -43.344  57.474 -55.839  1.00  0.00    -0.343 N 
HETATM    9  O   UNL     1     -45.543  58.007 -56.028  1.00  0.00    -0.247 OA
HETATM   10  H   UNL     1     -42.587  57.990 -55.396  1.00  0.00     0.164 HD
HETATM   11  H   UNL     1     -45.645  57.948 -53.701  1.00  0.00     0.171 HD
BRANCH   8  12
HETATM   12  C   UNL     1     -43.116  57.255 -57.252  1.00  0.00     0.124 C 
BRANCH  12  13
HETATM   13  C   UNL     1     -43.110  55.773 -57.642  1.00  0.00     0.021 C 
BRANCH  13  14
HETATM   14  C   UNL     1     -43.467  55.453 -59.099  1.00  0.00     0.029 C 
BRANCH  14  15
HETATM   15  C   UNL     1     -43.423  56.684 -60.000  1.00  0.00     0.235 C 
BRANCH  15  16
HETATM   16  N   UNL     1     -44.772  56.941 -60.624  1.00  0.00    -0.071 N 
HETATM   17  H   UNL     1     -44.617  57.248 -61.592  1.00  0.00     0.279 HD
HETATM   18  C   UNL     1     -45.550  58.041 -59.920  1.00  0.00     0.235 C 
HETATM   19  C   UNL     1     -46.796  57.360 -59.389  1.00  0.00     0.029 C 
HETATM   20  C   UNL     1     -47.062  56.279 -60.415  1.00  0.00     0.029 C 
HETATM   21  C   UNL     1     -45.678  55.720 -60.669  1.00  0.00     0.235 C 
ENDBRANCH  15  16
ENDBRANCH  14  15
ENDBRANCH  13  14
ENDBRANCH  12  13
ENDBRANCH   8  12
ENDBRANCH   4   6
BRANCH   5  22
HETATM   22  C   UNL     1     -43.759  54.891 -53.097  1.00  0.00     0.256 C 
HETATM   23  N   UNL     1     -43.970  53.870 -52.220  1.00  0.00    -0.366 N 
HETATM   24  H   UNL     1     -43.902  53.985 -51.215  1.00  0.00     0.159 HD
HETATM   25  H   UNL     1     -44.194  52.954 -52.586  1.00  0.00     0.159 HD
HETATM   26  O   UNL     1     -43.862  54.684 -54.303  1.00  0.00    -0.268 OA
ENDBRANCH   5  22
BRANCH   1  27
HETATM   27  O   UNL     1     -42.047  55.428 -50.627  1.00  0.00    -0.328 OA
BRANCH  27  28
HETATM   28  C   UNL     1     -40.633  55.273 -50.800  1.00  0.00     0.222 C 
BRANCH  28  29
HETATM   29  C   UNL     1     -40.404  54.014 -51.586  1.00  0.00     0.043 A 
HETATM   30  C   UNL     1     -40.373  54.023 -52.979  1.00  0.00     0.129 A 
HETATM   31  C   UNL     1     -40.158  52.857 -53.710  1.00  0.00     0.062 A 
HETATM   32  F   UNL     1     -40.547  55.174 -53.642  1.00  0.00    -0.205 F 
HETATM   33  C   UNL     1     -39.968  51.654 -53.034  1.00  0.00     0.016 A 
HETATM   34  C   UNL     1     -39.989  51.615 -51.643  1.00  0.00     0.062 A 
HETATM   35 BR   UNL     1     -39.679  50.063 -54.011  1.00  0.00    -0.051 Br
HETATM   36  C   UNL     1     -40.202  52.794 -50.935  1.00  0.00     0.129 A 
HETATM   37  F   UNL     1     -40.213  52.747 -49.594  1.00  0.00    -0.205 F 
ENDBRANCH  28  29
ENDBRANCH  27  28
ENDBRANCH   1  27
TORSDOF 10
ENDMDL
MODEL 2
REMARK VINA RESULT:      -7.6      1.356      2.197
REMARK  10 active torsions:
REMARK  status: ('A' for Active; 'I' for Inactive)
REMARK    1  A    between atoms: C_4  and  C_5 
REMARK    2  A    between atoms: C_5  and  O_6 
REMARK    3  A    between atoms: O_6  and  C_7 
REMARK    4  A    between atoms: C_10  and  N_11 
REMARK       I    between atoms: N_11  and  C_12 
REMARK       I    between atoms: C_12  and  N_13 
REMARK    5  A    between atoms: N_13  and  C_14 
REMARK    6  A    between atoms: C_14  and  C_15 
REMARK    7  A    between atoms: C_15  and  C_16 
REMARK    8  A    between atoms: C_16  and  C_17 
REMARK    9  A    between atoms: C_17  and  N_18 
REMARK   10  A    between atoms: C_25  and  C_26 
REMARK       I    between atoms: C_26  and  N_27 
ROOT
HETATM    1  C   UNL     1     -43.031  56.749 -52.268  1.00  0.00     0.191 C 
HETATM    2  N   UNL     1     -42.763  57.764 -51.453  1.00  0.00    -0.184 NA
HETATM    3  S   UNL     1     -43.318  59.143 -52.172  1.00  0.00     0.033 SA
HETATM    4  C   UNL     1     -44.050  58.363 -53.512  1.00  0.00     0.117 C 
HETATM    5  C   UNL     1     -43.686  57.023 -53.517  1.00  0.00     0.120 C 
ENDROOT
BRANCH   4   6
HETATM    6  N   UNL     1     -44.783  59.235 -54.295  1.00  0.00    -0.301 N 
HETATM    7  C   UNL     1     -44.483  59.651 -55.561  1.00  0.00     0.321 C 
HETATM    8  N   UNL     1     -43.232  59.423 -56.034  1.00  0.00    -0.343 N 
HETATM    9  O   UNL     1     -45.383  60.113 -56.263  1.00  0.00    -0.247 OA
HETATM   10  H   UNL     1     -42.533  59.694 -55.346  1.00  0.00     0.164 HD
HETATM   11  H   UNL     1     -45.785  59.205 -54.155  1.00  0.00     0.171 HD
BRANCH   8  12
HETATM   12  C   UNL     1     -42.827  59.728 -57.390  1.00  0.00     0.124 C 
BRANCH  12  13
HETATM   13  C   UNL     1     -42.110  58.566 -58.085  1.00  0.00     0.021 C 
BRANCH  13  14
HETATM   14  C   UNL     1     -42.845  57.924 -59.268  1.00  0.00     0.029 C 
BRANCH  14  15
HETATM   15  C   UNL     1     -43.022  56.416 -59.103  1.00  0.00     0.235 C 
BRANCH  15  16
HETATM   16  N   UNL     1     -44.477  56.062 -58.924  1.00  0.00    -0.071 N 
HETATM   17  H   UNL     1     -44.581  55.617 -58.004  1.00  0.00     0.279 HD
HETATM   18  C   UNL     1     -44.977  55.072 -59.963  1.00  0.00     0.235 C 
HETATM   19  C   UNL     1     -46.059  55.815 -60.723  1.00  0.00     0.029 C 
HETATM   20  C   UNL     1     -46.648  56.733 -59.673  1.00  0.00     0.029 C 
HETATM   21  C   UNL     1     -45.416  57.258 -58.966  1.00  0.00     0.235 C 
ENDBRANCH  15  16
ENDBRANCH  14  15
ENDBRANCH  13  14
ENDBRANCH  12  13
ENDBRANCH   8  12
ENDBRANCH   4   6
BRANCH   5  22
HETATM   22  C   UNL     1     -43.897  56.077 -54.599  1.00  0.00     0.256 C 
HETATM   23  N   UNL     1     -44.355  54.838 -54.263  1.00  0.00    -0.366 N 
HETATM   24  H   UNL     1     -44.557  54.567 -53.308  1.00  0.00     0.159 HD
HETATM   25  H   UNL     1     -44.488  54.155 -54.997  1.00  0.00     0.159 HD
HETATM   26  O   UNL     1     -43.676  56.341 -55.778  1.00  0.00    -0.268 OA
ENDBRANCH   5  22
BRANCH   1  27
HETATM   27  O   UNL     1     -42.602  55.520 -51.891  1.00  0.00    -0.328 OA
BRANCH  27  28
HETATM   28  C   UNL     1     -41.174  55.438 -51.804  1.00  0.00     0.222 C 
BRANCH  28  29
HETATM   29  C   UNL     1     -40.754  54.127 -52.404  1.00  0.00     0.043 A 
HETATM   30  C   UNL     1     -40.445  53.028 -51.605  1.00  0.00     0.129 A 
HETATM   31  C   UNL     1     -40.058  51.811 -52.159  1.00  0.00     0.062 A 
HETATM   32  F   UNL     1     -40.524  53.130 -50.271  1.00  0.00    -0.205 F 
HETATM   33  C   UNL     1     -39.978  51.688 -53.545  1.00  0.00     0.016 A 
HETATM   34  C   UNL     1     -40.285  52.766 -54.368  1.00  0.00     0.062 A 
HETATM   35 BR   UNL     1     -39.449  50.044 -54.312  1.00  0.00    -0.051 Br
HETATM   36  C   UNL     1     -40.673  53.971 -53.790  1.00  0.00     0.129 A 
HETATM   37  F   UNL     1     -40.974  55.003 -54.593  1.00  0.00    -0.205 F 
ENDBRANCH  28  29
ENDBRANCH  27  28
ENDBRANCH   1  27
TORSDOF 10
ENDMDL
MODEL 3
REMARK VINA RESULT:      -7.4      1.478      1.886
REMARK  10 active torsions:
REMARK  status: ('A' for Active; 'I' for Inactive)
REMARK    1  A    between atoms: C_4  and  C_5 
REMARK    2  A    between atoms: C_5  and  O_6 
REMARK    3  A    between atoms: O_6  and  C_7 
REMARK    4  A    between atoms: C_10  and  N_11 
REMARK       I    between atoms: N_11  and  C_12 
REMARK       I    between atoms: C_12  and  N_13 
REMARK    5  A    between atoms: N_13  and  C_14 
REMARK    6  A    between atoms: C_14  and  C_15 
REMARK    7  A    between atoms: C_15  and  C_16 
REMARK    8  A    between atoms: C_16  and  C_17 
REMARK    9  A    between atoms: C_17  and  N_18 
REMARK   10  A    between atoms: C_25  and  C_26 
REMARK       I    between atoms: C_26  and  N_27 
ROOT
HETATM    1  C   UNL     1     -42.835  56.648 -52.056  1.00  0.00     0.191 C 
HETATM    2  N   UNL     1     -42.429  57.562 -51.183  1.00  0.00    -0.184 NA
HETATM    3  S   UNL     1     -43.003  59.026 -51.687  1.00  0.00     0.033 SA
HETATM    4  C   UNL     1     -43.921  58.415 -52.999  1.00  0.00     0.117 C 
HETATM    5  C   UNL     1     -43.620  57.072 -53.183  1.00  0.00     0.120 C 
ENDROOT
BRANCH   4   6
HETATM    6  N   UNL     1     -44.701  59.388 -53.596  1.00  0.00    -0.301 N 
HETATM    7  C   UNL     1     -44.527  59.932 -54.836  1.00  0.00     0.321 C 
HETATM    8  N   UNL     1     -43.347  59.724 -55.471  1.00  0.00    -0.343 N 
HETATM    9  O   UNL     1     -45.481  60.494 -55.378  1.00  0.00    -0.247 OA
HETATM   10  H   UNL     1     -42.566  59.899 -54.842  1.00  0.00     0.164 HD
HETATM   11  H   UNL     1     -45.683  59.369 -53.347  1.00  0.00     0.171 HD
BRANCH   8  12
HETATM   12  C   UNL     1     -43.082  60.166 -56.824  1.00  0.00     0.124 C 
BRANCH  12  13
HETATM   13  C   UNL     1     -42.022  59.323 -57.541  1.00  0.00     0.021 C 
BRANCH  13  14
HETATM   14  C   UNL     1     -42.542  58.161 -58.396  1.00  0.00     0.029 C 
BRANCH  14  15
HETATM   15  C   UNL     1     -44.050  58.228 -58.625  1.00  0.00     0.235 C 
BRANCH  15  16
HETATM   16  N   UNL     1     -44.656  56.847 -58.610  1.00  0.00    -0.071 N 
HETATM   17  H   UNL     1     -45.120  56.717 -57.703  1.00  0.00     0.279 HD
HETATM   18  C   UNL     1     -43.620  55.744 -58.749  1.00  0.00     0.235 C 
HETATM   19  C   UNL     1     -43.974  55.035 -60.042  1.00  0.00     0.029 C 
HETATM   20  C   UNL     1     -45.480  55.173 -60.110  1.00  0.00     0.029 C 
HETATM   21  C   UNL     1     -45.696  56.614 -59.695  1.00  0.00     0.235 C 
ENDBRANCH  15  16
ENDBRANCH  14  15
ENDBRANCH  13  14
ENDBRANCH  12  13
ENDBRANCH   8  12
ENDBRANCH   4   6
BRANCH   5  22
HETATM   22  C   UNL     1     -43.999  56.252 -54.321  1.00  0.00     0.256 C 
HETATM   23  N   UNL     1     -44.345  54.959 -54.069  1.00  0.00    -0.366 N 
HETATM   24  H   UNL     1     -44.356  54.564 -53.135  1.00  0.00     0.159 HD
HETATM   25  H   UNL     1     -44.591  54.362 -54.848  1.00  0.00     0.159 HD
HETATM   26  O   UNL     1     -44.011  56.667 -55.477  1.00  0.00    -0.268 OA
ENDBRANCH   5  22
BRANCH   1  27
HETATM   27  O   UNL     1     -42.421  55.373 -51.860  1.00  0.00    -0.328 OA
BRANCH  27  28
HETATM   28  C   UNL     1     -40.993  55.258 -51.823  1.00  0.00     0.222 C 
BRANCH  28  29
HETATM   29  C   UNL     1     -40.623  53.949 -52.458  1.00  0.00     0.043 A 
HETATM   30  C   UNL     1     -40.681  53.768 -53.838  1.00  0.00     0.129 A 
HETATM   31  C   UNL     1     -40.336  52.555 -54.429  1.00  0.00     0.062 A 
HETATM   32  F   UNL     1     -41.072  54.778 -54.627  1.00  0.00    -0.205 F 
HETATM   33  C   UNL     1     -39.922  51.497 -53.623  1.00  0.00     0.016 A 
HETATM   34  C   UNL     1     -39.849  51.650 -52.242  1.00  0.00     0.062 A 
HETATM   35 BR   UNL     1     -39.454  49.844 -54.409  1.00  0.00    -0.051 Br
HETATM   36  C   UNL     1     -40.196  52.873 -51.675  1.00  0.00     0.129 A 
HETATM   37  F   UNL     1     -40.115  53.011 -50.343  1.00  0.00    -0.205 F 
ENDBRANCH  28  29
ENDBRANCH  27  28
ENDBRANCH   1  27
TORSDOF 10
ENDMDL
MODEL 4
REMARK VINA RESULT:      -7.2      2.239      3.331
REMARK  10 active torsions:
REMARK  status: ('A' for Active; 'I' for Inactive)
REMARK    1  A    between atoms: C_4  and  C_5 
REMARK    2  A    between atoms: C_5  and  O_6 
REMARK    3  A    between atoms: O_6  and  C_7 
REMARK    4  A    between atoms: C_10  and  N_11 
REMARK       I    between atoms: N_11  and  C_12 
REMARK       I    between atoms: C_12  and  N_13 
REMARK    5  A    between atoms: N_13  and  C_14 
REMARK    6  A    between atoms: C_14  and  C_15 
REMARK    7  A    between atoms: C_15  and  C_16 
REMARK    8  A    between atoms: C_16  and  C_17 
REMARK    9  A    between atoms: C_17  and  N_18 
REMARK   10  A    between atoms: C_25  and  C_26 
REMARK       I    between atoms: C_26  and  N_27 
ROOT
HETATM    1  C   UNL     1     -42.031  57.092 -51.675  1.00  0.00     0.191 C 
HETATM    2  N   UNL     1     -43.330  56.851 -51.541  1.00  0.00    -0.184 NA
HETATM    3  S   UNL     1     -44.137  58.251 -51.882  1.00  0.00     0.033 SA
HETATM    4  C   UNL     1     -42.751  59.144 -52.352  1.00  0.00     0.117 C 
HETATM    5  C   UNL     1     -41.610  58.415 -52.048  1.00  0.00     0.120 C 
ENDROOT
BRANCH   4   6
HETATM    6  N   UNL     1     -43.073  60.384 -52.874  1.00  0.00    -0.301 N 
HETATM    7  C   UNL     1     -42.909  60.799 -54.164  1.00  0.00     0.321 C 
HETATM    8  N   UNL     1     -42.122  60.058 -54.984  1.00  0.00    -0.343 N 
HETATM    9  O   UNL     1     -43.565  61.761 -54.567  1.00  0.00    -0.247 OA
HETATM   10  H   UNL     1     -41.246  59.822 -54.522  1.00  0.00     0.164 HD
HETATM   11  H   UNL     1     -43.874  60.837 -52.450  1.00  0.00     0.171 HD
BRANCH   8  12
HETATM   12  C   UNL     1     -41.952  60.341 -56.393  1.00  0.00     0.124 C 
BRANCH  12  13
HETATM   13  C   UNL     1     -42.997  59.656 -57.280  1.00  0.00     0.021 C 
BRANCH  13  14
HETATM   14  C   UNL     1     -43.516  58.297 -56.794  1.00  0.00     0.029 C 
BRANCH  14  15
HETATM   15  C   UNL     1     -44.801  57.872 -57.499  1.00  0.00     0.235 C 
BRANCH  15  16
HETATM   16  N   UNL     1     -44.630  56.527 -58.161  1.00  0.00    -0.071 N 
HETATM   17  H   UNL     1     -45.186  55.844 -57.633  1.00  0.00     0.279 HD
HETATM   18  C   UNL     1     -43.189  56.041 -58.150  1.00  0.00     0.235 C 
HETATM   19  C   UNL     1     -42.801  55.936 -59.611  1.00  0.00     0.029 C 
HETATM   20  C   UNL     1     -44.103  55.568 -60.289  1.00  0.00     0.029 C 
HETATM   21  C   UNL     1     -45.099  56.483 -59.607  1.00  0.00     0.235 C 
ENDBRANCH  15  16
ENDBRANCH  14  15
ENDBRANCH  13  14
ENDBRANCH  12  13
ENDBRANCH   8  12
ENDBRANCH   4   6
BRANCH   5  22
HETATM   22  C   UNL     1     -40.243  58.905 -52.068  1.00  0.00     0.256 C 
HETATM   23  N   UNL     1     -39.614  59.047 -50.868  1.00  0.00    -0.366 N 
HETATM   24  H   UNL     1     -40.055  58.818 -49.985  1.00  0.00     0.159 HD
HETATM   25  H   UNL     1     -38.668  59.408 -50.856  1.00  0.00     0.159 HD
HETATM   26  O   UNL     1     -39.648  59.199 -53.102  1.00  0.00    -0.268 OA
ENDBRANCH   5  22
BRANCH   1  27
HETATM   27  O   UNL     1     -41.178  56.081 -51.381  1.00  0.00    -0.328 OA
BRANCH  27  28
HETATM   28  C   UNL     1     -41.859  54.869 -51.036  1.00  0.00     0.222 C 
BRANCH  28  29
HETATM   29  C   UNL     1     -41.272  53.763 -51.864  1.00  0.00     0.043 A 
HETATM   30  C   UNL     1     -40.307  52.901 -51.346  1.00  0.00     0.129 A 
HETATM   31  C   UNL     1     -39.763  51.872 -52.112  1.00  0.00     0.062 A 
HETATM   32  F   UNL     1     -39.888  53.051 -50.082  1.00  0.00    -0.205 F 
HETATM   33  C   UNL     1     -40.193  51.700 -53.425  1.00  0.00     0.016 A 
HETATM   34  C   UNL     1     -41.159  52.542 -53.968  1.00  0.00     0.062 A 
HETATM   35 BR   UNL     1     -39.461  50.312 -54.478  1.00  0.00    -0.051 Br
HETATM   36  C   UNL     1     -41.690  53.560 -53.181  1.00  0.00     0.129 A 
HETATM   37  F   UNL     1     -42.626  54.361 -53.712  1.00  0.00    -0.205 F 
ENDBRANCH  28  29
ENDBRANCH  27  28
ENDBRANCH   1  27
TORSDOF 10
ENDMDL
MODEL 5
REMARK VINA RESULT:      -7.1      2.991      7.619
REMARK  10 active torsions:
REMARK  status: ('A' for Active; 'I' for Inactive)
REMARK    1  A    between atoms: C_4  and  C_5 
REMARK    2  A    between atoms: C_5  and  O_6 
REMARK    3  A    between atoms: O_6  and  C_7 
REMARK    4  A    between atoms: C_10  and  N_11 
REMARK       I    between atoms: N_11  and  C_12 
REMARK       I    between atoms: C_12  and  N_13 
REMARK    5  A    between atoms: N_13  and  C_14 
REMARK    6  A    between atoms: C_14  and  C_15 
REMARK    7  A    between atoms: C_15  and  C_16 
REMARK    8  A    between atoms: C_16  and  C_17 
REMARK    9  A    between atoms: C_17  and  N_18 
REMARK   10  A    between atoms: C_25  and  C_26 
REMARK       I    between atoms: C_26  and  N_27 
ROOT
HETATM    1  C   UNL     1     -42.724  59.551 -55.207  1.00  0.00     0.191 C 
HETATM    2  N   UNL     1     -41.682  60.045 -54.547  1.00  0.00    -0.184 NA
HETATM    3  S   UNL     1     -41.816  59.569 -52.972  1.00  0.00     0.033 SA
HETATM    4  C   UNL     1     -43.195  58.577 -53.202  1.00  0.00     0.117 C 
HETATM    5  C   UNL     1     -43.692  58.773 -54.483  1.00  0.00     0.120 C 
ENDROOT
BRANCH   4   6
HETATM    6  N   UNL     1     -43.523  57.857 -52.068  1.00  0.00    -0.301 N 
HETATM    7  C   UNL     1     -43.382  56.512 -51.882  1.00  0.00     0.321 C 
HETATM    8  N   UNL     1     -43.151  55.732 -52.967  1.00  0.00    -0.343 N 
HETATM    9  O   UNL     1     -43.358  56.071 -50.731  1.00  0.00    -0.247 OA
HETATM   10  H   UNL     1     -43.793  55.968 -53.721  1.00  0.00     0.164 HD
HETATM   11  H   UNL     1     -43.414  58.354 -51.193  1.00  0.00     0.171 HD
BRANCH   8  12
HETATM   12  C   UNL     1     -42.889  54.311 -52.884  1.00  0.00     0.124 C 
BRANCH  12  13
HETATM   13  C   UNL     1     -42.247  53.737 -54.153  1.00  0.00     0.021 C 
BRANCH  13  14
HETATM   14  C   UNL     1     -40.967  52.916 -53.955  1.00  0.00     0.029 C 
BRANCH  14  15
HETATM   15  C   UNL     1     -40.333  53.135 -52.584  1.00  0.00     0.235 C 
BRANCH  15  16
HETATM   16  N   UNL     1     -39.440  51.976 -52.215  1.00  0.00    -0.071 N 
HETATM   17  H   UNL     1     -38.521  52.357 -51.958  1.00  0.00     0.279 HD
HETATM   18  C   UNL     1     -39.222  51.007 -53.365  1.00  0.00     0.235 C 
HETATM   19  C   UNL     1     -39.808  49.694 -52.887  1.00  0.00     0.029 C 
HETATM   20  C   UNL     1     -39.568  49.733 -51.392  1.00  0.00     0.029 C 
HETATM   21  C   UNL     1     -39.943  51.156 -51.037  1.00  0.00     0.235 C 
ENDBRANCH  15  16
ENDBRANCH  14  15
ENDBRANCH  13  14
ENDBRANCH  12  13
ENDBRANCH   8  12
ENDBRANCH   4   6
BRANCH   5  22
HETATM   22  C   UNL     1     -44.970  58.307 -54.992  1.00  0.00     0.256 C 
HETATM   23  N   UNL     1     -45.689  59.174 -55.759  1.00  0.00    -0.366 N 
HETATM   24  H   UNL     1     -45.363  60.106 -55.988  1.00  0.00     0.159 HD
HETATM   25  H   UNL     1     -46.593  58.880 -56.107  1.00  0.00     0.159 HD
HETATM   26  O   UNL     1     -45.423  57.190 -54.756  1.00  0.00    -0.268 OA
ENDBRANCH   5  22
BRANCH   1  27
HETATM   27  O   UNL     1     -42.840  59.875 -56.518  1.00  0.00    -0.328 OA
BRANCH  27  28
HETATM   28  C   UNL     1     -41.888  59.189 -57.340  1.00  0.00     0.222 C 
BRANCH  28  29
HETATM   29  C   UNL     1     -42.629  58.143 -58.123  1.00  0.00     0.043 A 
HETATM   30  C   UNL     1     -43.235  58.441 -59.342  1.00  0.00     0.129 A 
HETATM   31  C   UNL     1     -43.920  57.471 -60.070  1.00  0.00     0.062 A 
HETATM   32  F   UNL     1     -43.160  59.683 -59.838  1.00  0.00    -0.205 F 
HETATM   33  C   UNL     1     -44.001  56.174 -59.570  1.00  0.00     0.016 A 
HETATM   34  C   UNL     1     -43.402  55.846 -58.358  1.00  0.00     0.062 A 
HETATM   35 BR   UNL     1     -44.931  54.849 -60.544  1.00  0.00    -0.051 Br
HETATM   36  C   UNL     1     -42.719  56.831 -57.651  1.00  0.00     0.129 A 
HETATM   37  F   UNL     1     -42.139  56.503 -56.487  1.00  0.00    -0.205 F 
ENDBRANCH  28  29
ENDBRANCH  27  28
ENDBRANCH   1  27
TORSDOF 10
ENDMDL
MODEL 6
REMARK VINA RESULT:      -7.1      2.164      2.825
REMARK  10 active torsions:
REMARK  status: ('A' for Active; 'I' for Inactive)
REMARK    1  A    between atoms: C_4  and  C_5 
REMARK    2  A    between atoms: C_5  and  O_6 
REMARK    3  A    between atoms: O_6  and  C_7 
REMARK    4  A    between atoms: C_10  and  N_11 
REMARK       I    between atoms: N_11  and  C_12 
REMARK       I    between atoms: C_12  and  N_13 
REMARK    5  A    between atoms: N_13  and  C_14 
REMARK    6  A    between atoms: C_14  and  C_15 
REMARK    7  A    between atoms: C_15  and  C_16 
REMARK    8  A    between atoms: C_16  and  C_17 
REMARK    9  A    between atoms: C_17  and  N_18 
REMARK   10  A    between atoms: C_25  and  C_26 
REMARK       I    between atoms: C_26  and  N_27 
ROOT
HETATM    1  C   UNL     1     -42.038  56.966 -52.299  1.00  0.00     0.191 C 
HETATM    2  N   UNL     1     -43.315  56.655 -52.487  1.00  0.00    -0.184 NA
HETATM    3  S   UNL     1     -44.088  58.013 -53.020  1.00  0.00     0.033 SA
HETATM    4  C   UNL     1     -42.680  58.984 -53.138  1.00  0.00     0.117 C 
HETATM    5  C   UNL     1     -41.611  58.313 -52.561  1.00  0.00     0.120 C 
ENDROOT
BRANCH   4   6
HETATM    6  N   UNL     1     -42.931  60.210 -53.727  1.00  0.00    -0.301 N 
HETATM    7  C   UNL     1     -42.766  60.538 -55.041  1.00  0.00     0.321 C 
HETATM    8  N   UNL     1     -42.045  59.701 -55.829  1.00  0.00    -0.343 N 
HETATM    9  O   UNL     1     -43.366  61.516 -55.490  1.00  0.00    -0.247 OA
HETATM   10  H   UNL     1     -41.177  59.435 -55.368  1.00  0.00     0.164 HD
HETATM   11  H   UNL     1     -43.692  60.738 -53.317  1.00  0.00     0.171 HD
BRANCH   8  12
HETATM   12  C   UNL     1     -41.884  59.891 -57.254  1.00  0.00     0.124 C 
BRANCH  12  13
HETATM   13  C   UNL     1     -42.551  58.794 -58.092  1.00  0.00     0.021 C 
BRANCH  13  14
HETATM   14  C   UNL     1     -42.043  58.635 -59.530  1.00  0.00     0.029 C 
BRANCH  14  15
HETATM   15  C   UNL     1     -42.446  57.300 -60.152  1.00  0.00     0.235 C 
BRANCH  15  16
HETATM   16  N   UNL     1     -43.708  56.771 -59.517  1.00  0.00    -0.071 N 
HETATM   17  H   UNL     1     -43.852  57.278 -58.635  1.00  0.00     0.279 HD
HETATM   18  C   UNL     1     -43.625  55.291 -59.180  1.00  0.00     0.235 C 
HETATM   19  C   UNL     1     -44.705  54.638 -60.020  1.00  0.00     0.029 C 
HETATM   20  C   UNL     1     -45.770  55.710 -60.109  1.00  0.00     0.029 C 
HETATM   21  C   UNL     1     -44.955  56.961 -60.366  1.00  0.00     0.235 C 
ENDBRANCH  15  16
ENDBRANCH  14  15
ENDBRANCH  13  14
ENDBRANCH  12  13
ENDBRANCH   8  12
ENDBRANCH   4   6
BRANCH   5  22
HETATM   22  C   UNL     1     -40.308  58.875 -52.248  1.00  0.00     0.256 C 
HETATM   23  N   UNL     1     -39.951  58.926 -50.934  1.00  0.00    -0.366 N 
HETATM   24  H   UNL     1     -40.547  58.583 -50.189  1.00  0.00     0.159 HD
HETATM   25  H   UNL     1     -39.058  59.334 -50.689  1.00  0.00     0.159 HD
HETATM   26  O   UNL     1     -39.537  59.306 -53.101  1.00  0.00    -0.268 OA
ENDBRANCH   5  22
BRANCH   1  27
HETATM   27  O   UNL     1     -41.229  55.999 -51.803  1.00  0.00    -0.328 OA
BRANCH  27  28
HETATM   28  C   UNL     1     -41.947  54.812 -51.443  1.00  0.00     0.222 C 
BRANCH  28  29
HETATM   29  C   UNL     1     -41.326  53.661 -52.181  1.00  0.00     0.043 A 
HETATM   30  C   UNL     1     -41.678  53.367 -53.497  1.00  0.00     0.129 A 
HETATM   31  C   UNL     1     -41.101  52.302 -54.184  1.00  0.00     0.062 A 
HETATM   32  F   UNL     1     -42.586  54.122 -54.129  1.00  0.00    -0.205 F 
HETATM   33  C   UNL     1     -40.151  51.511 -53.542  1.00  0.00     0.016 A 
HETATM   34  C   UNL     1     -39.776  51.783 -52.230  1.00  0.00     0.062 A 
HETATM   35 BR   UNL     1     -39.363  50.059 -54.460  1.00  0.00    -0.051 Br
HETATM   36  C   UNL     1     -40.363  52.856 -51.566  1.00  0.00     0.129 A 
HETATM   37  F   UNL     1     -39.990  53.114 -50.304  1.00  0.00    -0.205 F 
ENDBRANCH  28  29
ENDBRANCH  27  28
ENDBRANCH   1  27
TORSDOF 10
ENDMDL
MODEL 7
REMARK VINA RESULT:      -6.6      1.851      2.900
REMARK  10 active torsions:
REMARK  status: ('A' for Active; 'I' for Inactive)
REMARK    1  A    between atoms: C_4  and  C_5 
REMARK    2  A    between atoms: C_5  and  O_6 
REMARK    3  A    between atoms: O_6  and  C_7 
REMARK    4  A    between atoms: C_10  and  N_11 
REMARK       I    between atoms: N_11  and  C_12 
REMARK       I    between atoms: C_12  and  N_13 
REMARK    5  A    between atoms: N_13  and  C_14 
REMARK    6  A    between atoms: C_14  and  C_15 
REMARK    7  A    between atoms: C_15  and  C_16 
REMARK    8  A    between atoms: C_16  and  C_17 
REMARK    9  A    between atoms: C_17  and  N_18 
REMARK   10  A    between atoms: C_25  and  C_26 
REMARK       I    between atoms: C_26  and  N_27 
ROOT
HETATM    1  C   UNL     1     -41.831  56.822 -50.868  1.00  0.00     0.191 C 
HETATM    2  N   UNL     1     -40.761  57.428 -50.367  1.00  0.00    -0.184 NA
HETATM    3  S   UNL     1     -40.874  59.033 -50.737  1.00  0.00     0.033 SA
HETATM    4  C   UNL     1     -42.433  58.943 -51.444  1.00  0.00     0.117 C 
HETATM    5  C   UNL     1     -42.796  57.610 -51.585  1.00  0.00     0.120 C 
ENDROOT
BRANCH   4   6
HETATM    6  N   UNL     1     -42.946  60.189 -51.752  1.00  0.00    -0.301 N 
HETATM    7  C   UNL     1     -43.259  60.664 -52.993  1.00  0.00     0.321 C 
HETATM    8  N   UNL     1     -42.798  59.990 -54.076  1.00  0.00    -0.343 N 
HETATM    9  O   UNL     1     -44.036  61.616 -53.087  1.00  0.00    -0.247 OA
HETATM   10  H   UNL     1     -41.810  59.769 -53.966  1.00  0.00     0.164 HD
HETATM   11  H   UNL     1     -43.554  60.593 -51.049  1.00  0.00     0.171 HD
BRANCH   8  12
HETATM   12  C   UNL     1     -43.143  60.338 -55.437  1.00  0.00     0.124 C 
BRANCH  12  13
HETATM   13  C   UNL     1     -44.087  59.329 -56.101  1.00  0.00     0.021 C 
BRANCH  13  14
HETATM   14  C   UNL     1     -43.868  59.078 -57.598  1.00  0.00     0.029 C 
BRANCH  14  15
HETATM   15  C   UNL     1     -45.021  58.309 -58.240  1.00  0.00     0.235 C 
BRANCH  15  16
HETATM   16  N   UNL     1     -44.691  56.841 -58.349  1.00  0.00    -0.071 N 
HETATM   17  H   UNL     1     -45.111  56.364 -57.542  1.00  0.00     0.279 HD
HETATM   18  C   UNL     1     -43.197  56.565 -58.310  1.00  0.00     0.235 C 
HETATM   19  C   UNL     1     -42.880  55.936 -59.652  1.00  0.00     0.029 C 
HETATM   20  C   UNL     1     -44.150  55.185 -59.989  1.00  0.00     0.029 C 
HETATM   21  C   UNL     1     -45.229  56.177 -59.607  1.00  0.00     0.235 C 
ENDBRANCH  15  16
ENDBRANCH  14  15
ENDBRANCH  13  14
ENDBRANCH  12  13
ENDBRANCH   8  12
ENDBRANCH   4   6
BRANCH   5  22
HETATM   22  C   UNL     1     -43.924  57.101 -52.345  1.00  0.00     0.256 C 
HETATM   23  N   UNL     1     -45.109  56.967 -51.687  1.00  0.00    -0.366 N 
HETATM   24  H   UNL     1     -45.228  57.216 -50.712  1.00  0.00     0.159 HD
HETATM   25  H   UNL     1     -45.904  56.593 -52.190  1.00  0.00     0.159 HD
HETATM   26  O   UNL     1     -43.850  56.784 -53.530  1.00  0.00    -0.268 OA
ENDBRANCH   5  22
BRANCH   1  27
HETATM   27  O   UNL     1     -41.908  55.477 -50.726  1.00  0.00    -0.328 OA
BRANCH  27  28
HETATM   28  C   UNL     1     -40.639  54.881 -50.435  1.00  0.00     0.222 C 
BRANCH  28  29
HETATM   29  C   UNL     1     -40.447  53.728 -51.378  1.00  0.00     0.043 A 
HETATM   30  C   UNL     1     -40.247  52.431 -50.909  1.00  0.00     0.129 A 
HETATM   31  C   UNL     1     -40.072  51.361 -51.783  1.00  0.00     0.062 A 
HETATM   32  F   UNL     1     -40.226  52.195 -49.591  1.00  0.00    -0.205 F 
HETATM   33  C   UNL     1     -40.098  51.590 -53.156  1.00  0.00     0.016 A 
HETATM   34  C   UNL     1     -40.300  52.874 -53.654  1.00  0.00     0.062 A 
HETATM   35 BR   UNL     1     -39.857  50.149 -54.354  1.00  0.00    -0.051 Br
HETATM   36  C   UNL     1     -40.477  53.927 -52.761  1.00  0.00     0.129 A 
HETATM   37  F   UNL     1     -40.678  55.159 -53.251  1.00  0.00    -0.205 F 
ENDBRANCH  28  29
ENDBRANCH  27  28
ENDBRANCH   1  27
TORSDOF 10
ENDMDL
MODEL 8
REMARK VINA RESULT:      -6.6      2.182      3.403
REMARK  10 active torsions:
REMARK  status: ('A' for Active; 'I' for Inactive)
REMARK    1  A    between atoms: C_4  and  C_5 
REMARK    2  A    between atoms: C_5  and  O_6 
REMARK    3  A    between atoms: O_6  and  C_7 
REMARK    4  A    between atoms: C_10  and  N_11 
REMARK       I    between atoms: N_11  and  C_12 
REMARK       I    between atoms: C_12  and  N_13 
REMARK    5  A    between atoms: N_13  and  C_14 
REMARK    6  A    between atoms: C_14  and  C_15 
REMARK    7  A    between atoms: C_15  and  C_16 
REMARK    8  A    between atoms: C_16  and  C_17 
REMARK    9  A    between atoms: C_17  and  N_18 
REMARK   10  A    between atoms: C_25  and  C_26 
REMARK       I    between atoms: C_26  and  N_27 
ROOT
HETATM    1  C   UNL     1     -43.755  56.567 -53.242  1.00  0.00     0.191 C 
HETATM    2  N   UNL     1     -43.992  56.237 -54.506  1.00  0.00    -0.184 NA
HETATM    3  S   UNL     1     -44.979  57.394 -55.150  1.00  0.00     0.033 SA
HETATM    4  C   UNL     1     -44.972  58.418 -53.775  1.00  0.00     0.117 C 
HETATM    5  C   UNL     1     -44.360  57.760 -52.717  1.00  0.00     0.120 C 
ENDROOT
BRANCH   4   6
HETATM    6  N   UNL     1     -45.606  59.624 -54.011  1.00  0.00    -0.301 N 
HETATM    7  C   UNL     1     -45.285  60.546 -54.966  1.00  0.00     0.321 C 
HETATM    8  N   UNL     1     -44.086  60.437 -55.590  1.00  0.00    -0.343 N 
HETATM    9  O   UNL     1     -46.136  61.371 -55.304  1.00  0.00    -0.247 OA
HETATM   10  H   UNL     1     -43.342  60.284 -54.912  1.00  0.00     0.164 HD
HETATM   11  H   UNL     1     -46.601  59.635 -53.821  1.00  0.00     0.171 HD
BRANCH   8  12
HETATM   12  C   UNL     1     -43.677  61.292 -56.683  1.00  0.00     0.124 C 
BRANCH  12  13
HETATM   13  C   UNL     1     -43.711  60.593 -58.046  1.00  0.00     0.021 C 
BRANCH  13  14
HETATM   14  C   UNL     1     -42.403  59.939 -58.508  1.00  0.00     0.029 C 
BRANCH  14  15
HETATM   15  C   UNL     1     -42.062  58.681 -57.712  1.00  0.00     0.235 C 
BRANCH  15  16
HETATM   16  N   UNL     1     -41.983  57.478 -58.618  1.00  0.00    -0.071 N 
HETATM   17  H   UNL     1     -41.011  57.143 -58.612  1.00  0.00     0.279 HD
HETATM   18  C   UNL     1     -42.341  57.799 -60.061  1.00  0.00     0.235 C 
HETATM   19  C   UNL     1     -43.571  56.962 -60.353  1.00  0.00     0.029 C 
HETATM   20  C   UNL     1     -43.363  55.732 -59.497  1.00  0.00     0.029 C 
HETATM   21  C   UNL     1     -42.871  56.320 -58.191  1.00  0.00     0.235 C 
ENDBRANCH  15  16
ENDBRANCH  14  15
ENDBRANCH  13  14
ENDBRANCH  12  13
ENDBRANCH   8  12
ENDBRANCH   4   6
BRANCH   5  22
HETATM   22  C   UNL     1     -44.359  58.181 -51.326  1.00  0.00     0.256 C 
HETATM   23  N   UNL     1     -43.252  58.833 -50.873  1.00  0.00    -0.366 N 
HETATM   24  H   UNL     1     -42.455  59.038 -51.464  1.00  0.00     0.159 HD
HETATM   25  H   UNL     1     -43.219  59.116 -49.903  1.00  0.00     0.159 HD
HETATM   26  O   UNL     1     -45.293  57.968 -50.557  1.00  0.00    -0.268 OA
ENDBRANCH   5  22
BRANCH   1  27
HETATM   27  O   UNL     1     -43.006  55.711 -52.506  1.00  0.00    -0.328 OA
BRANCH  27  28
HETATM   28  C   UNL     1     -41.606  55.822 -52.789  1.00  0.00     0.222 C 
BRANCH  28  29
HETATM   29  C   UNL     1     -41.090  54.445 -53.089  1.00  0.00     0.043 A 
HETATM   30  C   UNL     1     -40.653  53.595 -52.075  1.00  0.00     0.129 A 
HETATM   31  C   UNL     1     -40.176  52.316 -52.352  1.00  0.00     0.062 A 
HETATM   32  F   UNL     1     -40.692  54.004 -50.800  1.00  0.00    -0.205 F 
HETATM   33  C   UNL     1     -40.135  51.875 -53.673  1.00  0.00     0.016 A 
HETATM   34  C   UNL     1     -40.569  52.700 -54.706  1.00  0.00     0.062 A 
HETATM   35 BR   UNL     1     -39.486  50.144 -54.065  1.00  0.00    -0.051 Br
HETATM   36  C   UNL     1     -41.045  53.972 -54.404  1.00  0.00     0.129 A 
HETATM   37  F   UNL     1     -41.468  54.756 -55.406  1.00  0.00    -0.205 F 
ENDBRANCH  28  29
ENDBRANCH  27  28
ENDBRANCH   1  27
TORSDOF 10
ENDMDL
MODEL 9
REMARK VINA RESULT:      -6.5      2.582      3.863
REMARK  10 active torsions:
REMARK  status: ('A' for Active; 'I' for Inactive)
REMARK    1  A    between atoms: C_4  and  C_5 
REMARK    2  A    between atoms: C_5  and  O_6 
REMARK    3  A    between atoms: O_6  and  C_7 
REMARK    4  A    between atoms: C_10  and  N_11 
REMARK       I    between atoms: N_11  and  C_12 
REMARK       I    between atoms: C_12  and  N_13 
REMARK    5  A    between atoms: N_13  and  C_14 
REMARK    6  A    between atoms: C_14  and  C_15 
REMARK    7  A    between atoms: C_15  and  C_16 
REMARK    8  A    between atoms: C_16  and  C_17 
REMARK    9  A    between atoms: C_17  and  N_18 
REMARK   10  A    between atoms: C_25  and  C_26 
REMARK       I    between atoms: C_26  and  N_27 
ROOT
HETATM    1  C   UNL     1     -42.446  57.086 -51.810  1.00  0.00     0.191 C 
HETATM    2  N   UNL     1     -43.694  56.655 -51.662  1.00  0.00    -0.184 NA
HETATM    3  S   UNL     1     -44.628  57.955 -51.258  1.00  0.00     0.033 SA
HETATM    4  C   UNL     1     -43.386  59.125 -51.424  1.00  0.00     0.117 C 
HETATM    5  C   UNL     1     -42.169  58.480 -51.597  1.00  0.00     0.120 C 
ENDROOT
BRANCH   4   6
HETATM    6  N   UNL     1     -43.859  60.419 -51.303  1.00  0.00    -0.301 N 
HETATM    7  C   UNL     1     -43.919  61.366 -52.284  1.00  0.00     0.321 C 
HETATM    8  N   UNL     1     -43.222  61.152 -53.429  1.00  0.00    -0.343 N 
HETATM    9  O   UNL     1     -44.686  62.320 -52.144  1.00  0.00    -0.247 OA
HETATM   10  H   UNL     1     -42.273  60.849 -53.219  1.00  0.00     0.164 HD
HETATM   11  H   UNL     1     -44.612  60.544 -50.637  1.00  0.00     0.171 HD
BRANCH   8  12
HETATM   12  C   UNL     1     -43.285  62.033 -54.575  1.00  0.00     0.124 C 
BRANCH  12  13
HETATM   13  C   UNL     1     -43.056  61.313 -55.908  1.00  0.00     0.021 C 
BRANCH  13  14
HETATM   14  C   UNL     1     -42.116  60.102 -55.873  1.00  0.00     0.029 C 
BRANCH  14  15
HETATM   15  C   UNL     1     -42.307  59.173 -57.070  1.00  0.00     0.235 C 
BRANCH  15  16
HETATM   16  N   UNL     1     -43.228  58.030 -56.721  1.00  0.00    -0.071 N 
HETATM   17  H   UNL     1     -42.863  57.184 -57.174  1.00  0.00     0.279 HD
HETATM   18  C   UNL     1     -44.646  58.238 -57.227  1.00  0.00     0.235 C 
HETATM   19  C   UNL     1     -45.504  58.283 -55.978  1.00  0.00     0.029 C 
HETATM   20  C   UNL     1     -44.777  57.356 -55.027  1.00  0.00     0.029 C 
HETATM   21  C   UNL     1     -43.328  57.747 -55.231  1.00  0.00     0.235 C 
ENDBRANCH  15  16
ENDBRANCH  14  15
ENDBRANCH  13  14
ENDBRANCH  12  13
ENDBRANCH   8  12
ENDBRANCH   4   6
BRANCH   5  22
HETATM   22  C   UNL     1     -40.853  59.093 -51.541  1.00  0.00     0.256 C 
HETATM   23  N   UNL     1     -40.027  58.893 -52.606  1.00  0.00    -0.366 N 
HETATM   24  H   UNL     1     -40.299  58.353 -53.419  1.00  0.00     0.159 HD
HETATM   25  H   UNL     1     -39.097  59.292 -52.580  1.00  0.00     0.159 HD
HETATM   26  O   UNL     1     -40.461  59.762 -50.589  1.00  0.00    -0.268 OA
ENDBRANCH   5  22
BRANCH   1  27
HETATM   27  O   UNL     1     -41.498  56.159 -52.088  1.00  0.00    -0.328 OA
BRANCH  27  28
HETATM   28  C   UNL     1     -41.599  55.000 -51.252  1.00  0.00     0.222 C 
BRANCH  28  29
HETATM   29  C   UNL     1     -41.100  53.823 -52.040  1.00  0.00     0.043 A 
HETATM   30  C   UNL     1     -41.627  53.510 -53.291  1.00  0.00     0.129 A 
HETATM   31  C   UNL     1     -41.164  52.420 -54.024  1.00  0.00     0.062 A 
HETATM   32  F   UNL     1     -42.600  54.268 -53.813  1.00  0.00    -0.205 F 
HETATM   33  C   UNL     1     -40.149  51.625 -53.496  1.00  0.00     0.016 A 
HETATM   34  C   UNL     1     -39.599  51.917 -52.252  1.00  0.00     0.062 A 
HETATM   35 BR   UNL     1     -39.512  50.141 -54.477  1.00  0.00    -0.051 Br
HETATM   36  C   UNL     1     -40.077  53.014 -51.540  1.00  0.00     0.129 A 
HETATM   37  F   UNL     1     -39.535  53.290 -50.344  1.00  0.00    -0.205 F 
ENDBRANCH  28  29
ENDBRANCH  27  28
ENDBRANCH   1  27
TORSDOF 10
ENDMDL
MODEL 10
REMARK VINA RESULT:      -6.4     15.643     17.123
REMARK  10 active torsions:
REMARK  status: ('A' for Active; 'I' for Inactive)
REMARK    1  A    between atoms: C_4  and  C_5 
REMARK    2  A    between atoms: C_5  and  O_6 
REMARK    3  A    between atoms: O_6  and  C_7 
REMARK    4  A    between atoms: C_10  and  N_11 
REMARK       I    between atoms: N_11  and  C_12 
REMARK       I    between atoms: C_12  and  N_13 
REMARK    5  A    between atoms: N_13  and  C_14 
REMARK    6  A    between atoms: C_14  and  C_15 
REMARK    7  A    between atoms: C_15  and  C_16 
REMARK    8  A    between atoms: C_16  and  C_17 
REMARK    9  A    between atoms: C_17  and  N_18 
REMARK   10  A    between atoms: C_25  and  C_26 
REMARK       I    between atoms: C_26  and  N_27 
ROOT
HETATM    1  C   UNL     1     -35.841  40.174 -51.005  1.00  0.00     0.191 C 
HETATM    2  N   UNL     1     -36.771  39.298 -50.643  1.00  0.00    -0.184 NA
HETATM    3  S   UNL     1     -38.123  39.602 -51.541  1.00  0.00     0.033 SA
HETATM    4  C   UNL     1     -37.415  40.817 -52.521  1.00  0.00     0.117 C 
HETATM    5  C   UNL     1     -36.164  41.144 -52.015  1.00  0.00     0.120 C 
ENDROOT
BRANCH   4   6
HETATM    6  N   UNL     1     -38.250  41.223 -53.546  1.00  0.00    -0.301 N 
HETATM    7  C   UNL     1     -38.046  41.058 -54.885  1.00  0.00     0.321 C 
HETATM    8  N   UNL     1     -36.806  40.706 -55.309  1.00  0.00    -0.343 N 
HETATM    9  O   UNL     1     -39.012  41.123 -55.646  1.00  0.00    -0.247 OA
HETATM   10  H   UNL     1     -36.097  41.284 -54.862  1.00  0.00     0.164 HD
HETATM   11  H   UNL     1     -39.239  41.209 -53.329  1.00  0.00     0.171 HD
BRANCH   8  12
HETATM   12  C   UNL     1     -36.492  40.408 -56.690  1.00  0.00     0.124 C 
BRANCH  12  13
HETATM   13  C   UNL     1     -36.320  41.659 -57.558  1.00  0.00     0.021 C 
BRANCH  13  14
HETATM   14  C   UNL     1     -37.396  41.900 -58.624  1.00  0.00     0.029 C 
BRANCH  14  15
HETATM   15  C   UNL     1     -37.040  41.275 -59.970  1.00  0.00     0.235 C 
BRANCH  15  16
HETATM   16  N   UNL     1     -37.272  39.784 -59.948  1.00  0.00    -0.071 N 
HETATM   17  H   UNL     1     -36.548  39.363 -59.353  1.00  0.00     0.279 HD
HETATM   18  C   UNL     1     -37.153  39.146 -61.323  1.00  0.00     0.235 C 
HETATM   19  C   UNL     1     -38.525  38.567 -61.605  1.00  0.00     0.029 C 
HETATM   20  C   UNL     1     -39.026  38.181 -60.230  1.00  0.00     0.029 C 
HETATM   21  C   UNL     1     -38.624  39.374 -59.388  1.00  0.00     0.235 C 
ENDBRANCH  15  16
ENDBRANCH  14  15
ENDBRANCH  13  14
ENDBRANCH  12  13
ENDBRANCH   8  12
ENDBRANCH   4   6
BRANCH   5  22
HETATM   22  C   UNL     1     -35.345  42.278 -52.407  1.00  0.00     0.256 C 
HETATM   23  N   UNL     1     -34.371  42.673 -51.540  1.00  0.00    -0.366 N 
HETATM   24  H   UNL     1     -34.198  42.205 -50.657  1.00  0.00     0.159 HD
HETATM   25  H   UNL     1     -33.802  43.474 -51.781  1.00  0.00     0.159 HD
HETATM   26  O   UNL     1     -35.498  42.887 -53.463  1.00  0.00    -0.268 OA
ENDBRANCH   5  22
BRANCH   1  27
HETATM   27  O   UNL     1     -34.660  40.136 -50.342  1.00  0.00    -0.328 OA
BRANCH  27  28
HETATM   28  C   UNL     1     -33.886  38.973 -50.662  1.00  0.00     0.222 C 
BRANCH  28  29
HETATM   29  C   UNL     1     -33.392  39.126 -52.071  1.00  0.00     0.043 A 
HETATM   30  C   UNL     1     -33.979  38.431 -53.127  1.00  0.00     0.129 A 
HETATM   31  C   UNL     1     -33.524  38.573 -54.435  1.00  0.00     0.062 A 
HETATM   32  F   UNL     1     -35.010  37.608 -52.891  1.00  0.00    -0.205 F 
HETATM   33  C   UNL     1     -32.458  39.431 -54.697  1.00  0.00     0.016 A 
HETATM   34  C   UNL     1     -31.854  40.142 -53.664  1.00  0.00     0.062 A 
HETATM   35 BR   UNL     1     -31.826  39.631 -56.466  1.00  0.00    -0.051 Br
HETATM   36  C   UNL     1     -32.330  39.985 -52.365  1.00  0.00     0.129 A 
HETATM   37  F   UNL     1     -31.746  40.681 -51.378  1.00  0.00    -0.205 F 
ENDBRANCH  28  29
ENDBRANCH  27  28
ENDBRANCH   1  27
TORSDOF 10
ENDMDL
