MODEL 1
REMARK VINA RESULT:      -8.5      0.000      0.000
REMARK  8 active torsions:
REMARK  status: ('A' for Active; 'I' for Inactive)
REMARK    1  A    between atoms: C_2  and  C_3 
REMARK    2  A    between atoms: C_3  and  O_4 
REMARK    3  A    between atoms: O_4  and  C_5 
REMARK    4  A    between atoms: C_7  and  C_8 
REMARK       I    between atoms: C_8  and  N_9 
REMARK    5  A    between atoms: N_9  and  C_10 
REMARK    6  A    between atoms: N_11  and  C_12 
REMARK    7  A    between atoms: C_14  and  C_15 
REMARK    8  A    between atoms: C_24  and  O_25 
ROOT
HETATM    1  C   UNL     1     -41.350  57.791 -53.705  1.00  0.00     0.035 A 
HETATM    2  C   UNL     1     -42.372  58.113 -54.602  1.00  0.00     0.046 A 
HETATM    3  C   UNL     1     -42.742  57.235 -55.640  1.00  0.00     0.036 A 
HETATM    4  C   UNL     1     -42.029  56.022 -55.758  1.00  0.00     0.084 A 
HETATM    5  C   UNL     1     -40.965  55.704 -54.901  1.00  0.00    -0.026 A 
HETATM    6  C   UNL     1     -40.229  54.401 -55.027  1.00  0.00     0.051 C 
HETATM    7  C   UNL     1     -40.637  56.600 -53.877  1.00  0.00     0.039 A 
ENDROOT
BRANCH   1   8
HETATM    8  N   UNL     1     -40.933  58.639 -52.656  1.00  0.00    -0.333 N 
HETATM    9  C   UNL     1     -41.062  58.517 -51.317  1.00  0.00     0.179 C 
HETATM   10  S   UNL     1     -41.288  59.900 -50.399  1.00  0.00    -0.040 SA
HETATM   11  H   UNL     1     -40.667  59.572 -52.954  1.00  0.00     0.168 HD
BRANCH   9  12
HETATM   12  N   UNL     1     -40.944  57.333 -50.654  1.00  0.00    -0.299 N 
HETATM   13  C   UNL     1     -41.844  56.275 -50.556  1.00  0.00     0.257 C 
HETATM   14  O   UNL     1     -43.037  56.279 -50.823  1.00  0.00    -0.267 OA
HETATM   15  H   UNL     1     -39.977  57.091 -50.486  1.00  0.00     0.171 HD
BRANCH  13  16
HETATM   16  C   UNL     1     -41.255  55.030 -50.020  1.00  0.00     0.035 A 
HETATM   17  C   UNL     1     -40.945  53.963 -50.871  1.00  0.00     0.053 A 
HETATM   18  C   UNL     1     -40.451  52.783 -50.316  1.00  0.00     0.069 A 
HETATM   19  C   UNL     1     -40.280  52.663 -48.935  1.00  0.00     0.037 A 
HETATM   20  C   UNL     1     -40.581  53.735 -48.095  1.00  0.00     0.004 A 
HETATM   21  C   UNL     1     -41.079  54.919 -48.635  1.00  0.00     0.017 A 
BRANCH  18  22
HETATM   22  O   UNL     1     -40.230  51.663 -51.066  1.00  0.00    -0.351 OA
BRANCH  22  23
HETATM   23  C   UNL     1     -39.812  51.967 -52.401  1.00  0.00     0.175 C 
BRANCH  23  24
HETATM   24  C   UNL     1     -39.506  50.639 -53.090  1.00  0.00     0.022 C 
HETATM   25  C   UNL     1     -40.241  50.494 -54.410  1.00  0.00     0.007 C 
ENDBRANCH  23  24
ENDBRANCH  22  23
ENDBRANCH  18  22
ENDBRANCH  13  16
ENDBRANCH   9  12
ENDBRANCH   1   8
BRANCH   3  26
HETATM   26  C   UNL     1     -43.839  57.545 -56.588  1.00  0.00     0.112 A 
HETATM   27  S   UNL     1     -45.292  58.332 -56.106  1.00  0.00    -0.067 SA
HETATM   28  C   UNL     1     -45.870  58.302 -57.726  1.00  0.00     0.035 A 
HETATM   29  C   UNL     1     -44.915  57.686 -58.533  1.00  0.00     0.075 A 
HETATM   30  C   UNL     1     -47.081  58.787 -58.246  1.00  0.00     0.021 A 
HETATM   31  N   UNL     1     -43.766  57.271 -57.879  1.00  0.00    -0.239 NA
HETATM   32  C   UNL     1     -45.179  57.542 -59.910  1.00  0.00     0.033 A 
HETATM   33  C   UNL     1     -46.383  58.018 -60.440  1.00  0.00     0.002 A 
HETATM   34  C   UNL     1     -47.319  58.635 -59.616  1.00  0.00     0.002 A 
ENDBRANCH   3  26
BRANCH   4  35
HETATM   35  O   UNL     1     -42.334  55.089 -56.722  1.00  0.00    -0.359 OA
HETATM   36  H   UNL     1     -42.192  54.198 -56.335  1.00  0.00     0.218 HD
ENDBRANCH   4  35
TORSDOF 8
ENDMDL
MODEL 2
REMARK VINA RESULT:      -8.4      2.810      9.253
REMARK  8 active torsions:
REMARK  status: ('A' for Active; 'I' for Inactive)
REMARK    1  A    between atoms: C_2  and  C_3 
REMARK    2  A    between atoms: C_3  and  O_4 
REMARK    3  A    between atoms: O_4  and  C_5 
REMARK    4  A    between atoms: C_7  and  C_8 
REMARK       I    between atoms: C_8  and  N_9 
REMARK    5  A    between atoms: N_9  and  C_10 
REMARK    6  A    between atoms: N_11  and  C_12 
REMARK    7  A    between atoms: C_14  and  C_15 
REMARK    8  A    between atoms: C_24  and  O_25 
ROOT
HETATM    1  C   UNL     1     -43.198  58.323 -54.443  1.00  0.00     0.035 A 
HETATM    2  C   UNL     1     -42.499  57.112 -54.425  1.00  0.00     0.046 A 
HETATM    3  C   UNL     1     -42.677  56.177 -53.386  1.00  0.00     0.036 A 
HETATM    4  C   UNL     1     -43.574  56.513 -52.348  1.00  0.00     0.084 A 
HETATM    5  C   UNL     1     -44.244  57.744 -52.320  1.00  0.00    -0.026 A 
HETATM    6  C   UNL     1     -45.209  58.078 -51.219  1.00  0.00     0.051 C 
HETATM    7  C   UNL     1     -44.046  58.641 -53.377  1.00  0.00     0.039 A 
ENDROOT
BRANCH   1   8
HETATM    8  N   UNL     1     -43.047  59.298 -55.452  1.00  0.00    -0.333 N 
HETATM    9  C   UNL     1     -42.774  59.171 -56.769  1.00  0.00     0.179 C 
HETATM   10  S   UNL     1     -41.844  60.347 -57.517  1.00  0.00    -0.040 SA
HETATM   11  H   UNL     1     -42.937  60.245 -55.105  1.00  0.00     0.168 HD
BRANCH   9  12
HETATM   12  N   UNL     1     -43.275  58.173 -57.550  1.00  0.00    -0.299 N 
HETATM   13  C   UNL     1     -44.595  57.787 -57.759  1.00  0.00     0.257 C 
HETATM   14  O   UNL     1     -45.577  58.081 -57.093  1.00  0.00    -0.267 OA
HETATM   15  H   UNL     1     -42.628  57.908 -58.281  1.00  0.00     0.171 HD
BRANCH  13  16
HETATM   16  C   UNL     1     -44.781  56.876 -58.909  1.00  0.00     0.035 A 
HETATM   17  C   UNL     1     -45.934  56.950 -59.699  1.00  0.00     0.053 A 
HETATM   18  C   UNL     1     -46.099  56.030 -60.733  1.00  0.00     0.069 A 
HETATM   19  C   UNL     1     -45.139  55.044 -60.969  1.00  0.00     0.037 A 
HETATM   20  C   UNL     1     -43.989  54.983 -60.183  1.00  0.00     0.004 A 
HETATM   21  C   UNL     1     -43.811  55.894 -59.144  1.00  0.00     0.017 A 
BRANCH  18  22
HETATM   22  O   UNL     1     -47.244  55.969 -61.477  1.00  0.00    -0.351 OA
BRANCH  22  23
HETATM   23  C   UNL     1     -47.882  57.244 -61.614  1.00  0.00     0.175 C 
BRANCH  23  24
HETATM   24  C   UNL     1     -48.904  57.117 -62.741  1.00  0.00     0.022 C 
HETATM   25  C   UNL     1     -49.951  58.214 -62.693  1.00  0.00     0.007 C 
ENDBRANCH  23  24
ENDBRANCH  22  23
ENDBRANCH  18  22
ENDBRANCH  13  16
ENDBRANCH   9  12
ENDBRANCH   1   8
BRANCH   3  26
HETATM   26  C   UNL     1     -41.965  54.877 -53.359  1.00  0.00     0.112 A 
HETATM   27  S   UNL     1     -41.893  53.825 -54.721  1.00  0.00    -0.067 SA
HETATM   28  C   UNL     1     -40.921  52.716 -53.838  1.00  0.00     0.035 A 
HETATM   29  C   UNL     1     -40.716  53.218 -52.554  1.00  0.00     0.075 A 
HETATM   30  C   UNL     1     -40.377  51.488 -54.250  1.00  0.00     0.021 A 
HETATM   31  N   UNL     1     -41.305  54.446 -52.299  1.00  0.00    -0.239 NA
HETATM   32  C   UNL     1     -39.947  52.465 -51.643  1.00  0.00     0.033 A 
HETATM   33  C   UNL     1     -39.403  51.240 -52.041  1.00  0.00     0.002 A 
HETATM   34  C   UNL     1     -39.614  50.761 -53.330  1.00  0.00     0.002 A 
ENDBRANCH   3  26
BRANCH   4  35
HETATM   35  O   UNL     1     -43.834  55.654 -51.305  1.00  0.00    -0.359 OA
HETATM   36  H   UNL     1     -44.772  55.777 -51.040  1.00  0.00     0.218 HD
ENDBRANCH   4  35
TORSDOF 8
ENDMDL
MODEL 3
REMARK VINA RESULT:      -8.3      2.237      3.625
REMARK  8 active torsions:
REMARK  status: ('A' for Active; 'I' for Inactive)
REMARK    1  A    between atoms: C_2  and  C_3 
REMARK    2  A    between atoms: C_3  and  O_4 
REMARK    3  A    between atoms: O_4  and  C_5 
REMARK    4  A    between atoms: C_7  and  C_8 
REMARK       I    between atoms: C_8  and  N_9 
REMARK    5  A    between atoms: N_9  and  C_10 
REMARK    6  A    between atoms: N_11  and  C_12 
REMARK    7  A    between atoms: C_14  and  C_15 
REMARK    8  A    between atoms: C_24  and  O_25 
ROOT
HETATM    1  C   UNL     1     -42.623  59.583 -53.771  1.00  0.00     0.035 A 
HETATM    2  C   UNL     1     -42.767  58.771 -54.899  1.00  0.00     0.046 A 
HETATM    3  C   UNL     1     -43.970  58.741 -55.634  1.00  0.00     0.036 A 
HETATM    4  C   UNL     1     -45.036  59.547 -55.178  1.00  0.00     0.084 A 
HETATM    5  C   UNL     1     -44.929  60.328 -54.019  1.00  0.00    -0.026 A 
HETATM    6  C   UNL     1     -46.066  61.195 -53.559  1.00  0.00     0.051 C 
HETATM    7  C   UNL     1     -43.714  60.336 -53.324  1.00  0.00     0.039 A 
ENDROOT
BRANCH   1   8
HETATM    8  N   UNL     1     -41.446  59.641 -52.994  1.00  0.00    -0.333 N 
HETATM    9  C   UNL     1     -40.883  58.725 -52.175  1.00  0.00     0.179 C 
HETATM   10  S   UNL     1     -40.079  59.255 -50.805  1.00  0.00    -0.040 SA
HETATM   11  H   UNL     1     -41.065  60.575 -52.881  1.00  0.00     0.168 HD
BRANCH   9  12
HETATM   12  N   UNL     1     -40.865  57.389 -52.438  1.00  0.00    -0.299 N 
HETATM   13  C   UNL     1     -41.721  56.384 -51.996  1.00  0.00     0.257 C 
HETATM   14  O   UNL     1     -42.518  56.432 -51.071  1.00  0.00    -0.267 OA
HETATM   15  H   UNL     1     -40.361  57.180 -53.290  1.00  0.00     0.171 HD
BRANCH  13  16
HETATM   16  C   UNL     1     -41.586  55.110 -52.734  1.00  0.00     0.035 A 
HETATM   17  C   UNL     1     -40.761  54.089 -52.249  1.00  0.00     0.053 A 
HETATM   18  C   UNL     1     -40.612  52.929 -53.008  1.00  0.00     0.069 A 
HETATM   19  C   UNL     1     -41.263  52.793 -54.236  1.00  0.00     0.037 A 
HETATM   20  C   UNL     1     -42.091  53.812 -54.707  1.00  0.00     0.004 A 
HETATM   21  C   UNL     1     -42.248  54.978 -53.960  1.00  0.00     0.017 A 
BRANCH  18  22
HETATM   22  O   UNL     1     -39.741  51.937 -52.657  1.00  0.00    -0.351 OA
BRANCH  22  23
HETATM   23  C   UNL     1     -39.796  50.814 -53.544  1.00  0.00     0.175 C 
BRANCH  23  24
HETATM   24  C   UNL     1     -39.567  49.562 -52.702  1.00  0.00     0.022 C 
HETATM   25  C   UNL     1     -39.652  49.848 -51.213  1.00  0.00     0.007 C 
ENDBRANCH  23  24
ENDBRANCH  22  23
ENDBRANCH  18  22
ENDBRANCH  13  16
ENDBRANCH   9  12
ENDBRANCH   1   8
BRANCH   3  26
HETATM   26  C   UNL     1     -44.136  57.906 -56.847  1.00  0.00     0.112 A 
HETATM   27  S   UNL     1     -42.959  56.757 -57.357  1.00  0.00    -0.067 SA
HETATM   28  C   UNL     1     -43.951  56.300 -58.685  1.00  0.00     0.035 A 
HETATM   29  C   UNL     1     -45.120  57.058 -58.657  1.00  0.00     0.075 A 
HETATM   30  C   UNL     1     -43.714  55.339 -59.681  1.00  0.00     0.021 A 
HETATM   31  N   UNL     1     -45.217  57.957 -57.607  1.00  0.00    -0.239 NA
HETATM   32  C   UNL     1     -46.086  56.857 -59.663  1.00  0.00     0.033 A 
HETATM   33  C   UNL     1     -45.860  55.904 -60.662  1.00  0.00     0.002 A 
HETATM   34  C   UNL     1     -44.689  55.154 -60.667  1.00  0.00     0.002 A 
ENDBRANCH   3  26
BRANCH   4  35
HETATM   35  O   UNL     1     -46.240  59.605 -55.844  1.00  0.00    -0.359 OA
HETATM   36  H   UNL     1     -46.282  60.466 -56.314  1.00  0.00     0.218 HD
ENDBRANCH   4  35
TORSDOF 8
ENDMDL
MODEL 4
REMARK VINA RESULT:      -8.1      3.232      3.622
REMARK  8 active torsions:
REMARK  status: ('A' for Active; 'I' for Inactive)
REMARK    1  A    between atoms: C_2  and  C_3 
REMARK    2  A    between atoms: C_3  and  O_4 
REMARK    3  A    between atoms: O_4  and  C_5 
REMARK    4  A    between atoms: C_7  and  C_8 
REMARK       I    between atoms: C_8  and  N_9 
REMARK    5  A    between atoms: N_9  and  C_10 
REMARK    6  A    between atoms: N_11  and  C_12 
REMARK    7  A    between atoms: C_14  and  C_15 
REMARK    8  A    between atoms: C_24  and  O_25 
ROOT
HETATM    1  C   UNL     1     -43.418  58.255 -54.433  1.00  0.00     0.035 A 
HETATM    2  C   UNL     1     -42.980  59.146 -55.417  1.00  0.00     0.046 A 
HETATM    3  C   UNL     1     -42.520  58.689 -56.668  1.00  0.00     0.036 A 
HETATM    4  C   UNL     1     -42.496  57.295 -56.888  1.00  0.00     0.084 A 
HETATM    5  C   UNL     1     -42.881  56.383 -55.895  1.00  0.00    -0.026 A 
HETATM    6  C   UNL     1     -42.868  54.903 -56.152  1.00  0.00     0.051 C 
HETATM    7  C   UNL     1     -43.341  56.879 -54.670  1.00  0.00     0.039 A 
ENDROOT
BRANCH   1   8
HETATM    8  N   UNL     1     -43.877  58.659 -53.160  1.00  0.00    -0.333 N 
HETATM    9  C   UNL     1     -43.962  57.980 -51.996  1.00  0.00     0.179 C 
HETATM   10  S   UNL     1     -45.231  58.318 -50.956  1.00  0.00    -0.040 SA
HETATM   11  H   UNL     1     -44.399  59.529 -53.161  1.00  0.00     0.168 HD
BRANCH   9  12
HETATM   12  N   UNL     1     -43.029  57.079 -51.578  1.00  0.00    -0.299 N 
HETATM   13  C   UNL     1     -43.200  55.809 -51.036  1.00  0.00     0.257 C 
HETATM   14  O   UNL     1     -44.222  55.322 -50.572  1.00  0.00    -0.267 OA
HETATM   15  H   UNL     1     -42.128  57.247 -52.005  1.00  0.00     0.171 HD
BRANCH  13  16
HETATM   16  C   UNL     1     -41.963  55.000 -50.995  1.00  0.00     0.035 A 
HETATM   17  C   UNL     1     -41.664  54.101 -52.026  1.00  0.00     0.053 A 
HETATM   18  C   UNL     1     -40.520  53.311 -51.916  1.00  0.00     0.069 A 
HETATM   19  C   UNL     1     -39.696  53.405 -50.794  1.00  0.00     0.037 A 
HETATM   20  C   UNL     1     -39.996  54.310 -49.776  1.00  0.00     0.004 A 
HETATM   21  C   UNL     1     -41.137  55.104 -49.870  1.00  0.00     0.017 A 
BRANCH  18  22
HETATM   22  O   UNL     1     -40.220  52.336 -52.825  1.00  0.00    -0.351 OA
BRANCH  22  23
HETATM   23  C   UNL     1     -39.342  51.338 -52.294  1.00  0.00     0.175 C 
BRANCH  23  24
HETATM   24  C   UNL     1     -39.750  50.004 -52.913  1.00  0.00     0.022 C 
HETATM   25  C   UNL     1     -39.814  50.069 -54.428  1.00  0.00     0.007 C 
ENDBRANCH  23  24
ENDBRANCH  22  23
ENDBRANCH  18  22
ENDBRANCH  13  16
ENDBRANCH   9  12
ENDBRANCH   1   8
BRANCH   3  26
HETATM   26  C   UNL     1     -42.073  59.617 -57.735  1.00  0.00     0.112 A 
HETATM   27  S   UNL     1     -42.718  59.581 -59.331  1.00  0.00    -0.067 SA
HETATM   28  C   UNL     1     -41.725  60.910 -59.783  1.00  0.00     0.035 A 
HETATM   29  C   UNL     1     -40.959  61.295 -58.685  1.00  0.00     0.075 A 
HETATM   30  C   UNL     1     -41.630  61.567 -61.022  1.00  0.00     0.021 A 
HETATM   31  N   UNL     1     -41.172  60.562 -57.529  1.00  0.00    -0.239 NA
HETATM   32  C   UNL     1     -40.059  62.371 -58.826  1.00  0.00     0.033 A 
HETATM   33  C   UNL     1     -39.953  63.031 -60.056  1.00  0.00     0.002 A 
HETATM   34  C   UNL     1     -40.733  62.633 -61.137  1.00  0.00     0.002 A 
ENDBRANCH   3  26
BRANCH   4  35
HETATM   35  O   UNL     1     -42.088  56.754 -58.087  1.00  0.00    -0.359 OA
HETATM   36  H   UNL     1     -41.592  57.446 -58.576  1.00  0.00     0.218 HD
ENDBRANCH   4  35
TORSDOF 8
ENDMDL
MODEL 5
REMARK VINA RESULT:      -8.0      2.803      8.273
REMARK  8 active torsions:
REMARK  status: ('A' for Active; 'I' for Inactive)
REMARK    1  A    between atoms: C_2  and  C_3 
REMARK    2  A    between atoms: C_3  and  O_4 
REMARK    3  A    between atoms: O_4  and  C_5 
REMARK    4  A    between atoms: C_7  and  C_8 
REMARK       I    between atoms: C_8  and  N_9 
REMARK    5  A    between atoms: N_9  and  C_10 
REMARK    6  A    between atoms: N_11  and  C_12 
REMARK    7  A    between atoms: C_14  and  C_15 
REMARK    8  A    between atoms: C_24  and  O_25 
ROOT
HETATM    1  C   UNL     1     -43.326  59.140 -52.781  1.00  0.00     0.035 A 
HETATM    2  C   UNL     1     -42.884  57.857 -53.117  1.00  0.00     0.046 A 
HETATM    3  C   UNL     1     -41.842  57.229 -52.406  1.00  0.00     0.036 A 
HETATM    4  C   UNL     1     -41.242  57.951 -51.351  1.00  0.00     0.084 A 
HETATM    5  C   UNL     1     -41.635  59.258 -51.032  1.00  0.00    -0.026 A 
HETATM    6  C   UNL     1     -41.000  60.005 -49.894  1.00  0.00     0.051 C 
HETATM    7  C   UNL     1     -42.681  59.841 -51.758  1.00  0.00     0.039 A 
ENDROOT
BRANCH   1   8
HETATM    8  N   UNL     1     -44.357  59.817 -53.468  1.00  0.00    -0.333 N 
HETATM    9  C   UNL     1     -44.399  60.323 -54.720  1.00  0.00     0.179 C 
HETATM   10  S   UNL     1     -45.277  61.723 -54.995  1.00  0.00    -0.040 SA
HETATM   11  H   UNL     1     -45.112  60.143 -52.874  1.00  0.00     0.168 HD
BRANCH   9  12
HETATM   12  N   UNL     1     -43.825  59.718 -55.798  1.00  0.00    -0.299 N 
HETATM   13  C   UNL     1     -44.169  58.531 -56.438  1.00  0.00     0.257 C 
HETATM   14  O   UNL     1     -44.891  57.637 -56.022  1.00  0.00    -0.267 OA
HETATM   15  H   UNL     1     -43.299  60.374 -56.361  1.00  0.00     0.171 HD
BRANCH  13  16
HETATM   16  C   UNL     1     -43.525  58.350 -57.757  1.00  0.00     0.035 A 
HETATM   17  C   UNL     1     -43.662  57.146 -58.458  1.00  0.00     0.053 A 
HETATM   18  C   UNL     1     -42.986  56.994 -59.668  1.00  0.00     0.069 A 
HETATM   19  C   UNL     1     -42.178  58.018 -60.165  1.00  0.00     0.037 A 
HETATM   20  C   UNL     1     -42.055  59.218 -59.465  1.00  0.00     0.004 A 
HETATM   21  C   UNL     1     -42.722  59.383 -58.253  1.00  0.00     0.017 A 
BRANCH  18  22
HETATM   22  O   UNL     1     -42.982  55.813 -60.355  1.00  0.00    -0.351 OA
BRANCH  22  23
HETATM   23  C   UNL     1     -44.105  54.984 -60.036  1.00  0.00     0.175 C 
BRANCH  23  24
HETATM   24  C   UNL     1     -45.107  55.124 -61.178  1.00  0.00     0.022 C 
HETATM   25  C   UNL     1     -46.340  55.909 -60.769  1.00  0.00     0.007 C 
ENDBRANCH  23  24
ENDBRANCH  22  23
ENDBRANCH  18  22
ENDBRANCH  13  16
ENDBRANCH   9  12
ENDBRANCH   1   8
BRANCH   3  26
HETATM   26  C   UNL     1     -41.374  55.861 -52.730  1.00  0.00     0.112 A 
HETATM   27  S   UNL     1     -41.227  55.283 -54.345  1.00  0.00    -0.067 SA
HETATM   28  C   UNL     1     -40.633  53.774 -53.773  1.00  0.00     0.035 A 
HETATM   29  C   UNL     1     -40.589  53.805 -52.381  1.00  0.00     0.075 A 
HETATM   30  C   UNL     1     -40.235  52.642 -54.504  1.00  0.00     0.021 A 
HETATM   31  N   UNL     1     -41.002  54.995 -51.803  1.00  0.00    -0.239 NA
HETATM   32  C   UNL     1     -40.138  52.663 -51.689  1.00  0.00     0.033 A 
HETATM   33  C   UNL     1     -39.741  51.529 -52.405  1.00  0.00     0.002 A 
HETATM   34  C   UNL     1     -39.787  51.523 -53.795  1.00  0.00     0.002 A 
ENDBRANCH   3  26
BRANCH   4  35
HETATM   35  O   UNL     1     -40.235  57.413 -50.581  1.00  0.00    -0.359 OA
HETATM   36  H   UNL     1     -39.748  56.764 -51.134  1.00  0.00     0.218 HD
ENDBRANCH   4  35
TORSDOF 8
ENDMDL
MODEL 6
REMARK VINA RESULT:      -7.8      3.015      7.173
REMARK  8 active torsions:
REMARK  status: ('A' for Active; 'I' for Inactive)
REMARK    1  A    between atoms: C_2  and  C_3 
REMARK    2  A    between atoms: C_3  and  O_4 
REMARK    3  A    between atoms: O_4  and  C_5 
REMARK    4  A    between atoms: C_7  and  C_8 
REMARK       I    between atoms: C_8  and  N_9 
REMARK    5  A    between atoms: N_9  and  C_10 
REMARK    6  A    between atoms: N_11  and  C_12 
REMARK    7  A    between atoms: C_14  and  C_15 
REMARK    8  A    between atoms: C_24  and  O_25 
ROOT
HETATM    1  C   UNL     1     -42.241  58.593 -57.671  1.00  0.00     0.035 A 
HETATM    2  C   UNL     1     -41.794  57.826 -56.591  1.00  0.00     0.046 A 
HETATM    3  C   UNL     1     -42.246  56.506 -56.391  1.00  0.00     0.036 A 
HETATM    4  C   UNL     1     -43.185  55.989 -57.309  1.00  0.00     0.084 A 
HETATM    5  C   UNL     1     -43.686  56.760 -58.368  1.00  0.00    -0.026 A 
HETATM    6  C   UNL     1     -44.670  56.188 -59.348  1.00  0.00     0.051 C 
HETATM    7  C   UNL     1     -43.204  58.063 -58.537  1.00  0.00     0.039 A 
ENDROOT
BRANCH   1   8
HETATM    8  N   UNL     1     -41.830  59.922 -57.910  1.00  0.00    -0.333 N 
HETATM    9  C   UNL     1     -42.134  61.070 -57.264  1.00  0.00     0.179 C 
HETATM   10  S   UNL     1     -42.258  62.485 -58.152  1.00  0.00    -0.040 SA
HETATM   11  H   UNL     1     -41.395  60.069 -58.814  1.00  0.00     0.168 HD
BRANCH   9  12
HETATM   12  N   UNL     1     -42.274  61.160 -55.912  1.00  0.00    -0.299 N 
HETATM   13  C   UNL     1     -43.369  60.853 -55.109  1.00  0.00     0.257 C 
HETATM   14  O   UNL     1     -44.529  60.684 -55.456  1.00  0.00    -0.267 OA
HETATM   15  H   UNL     1     -41.379  61.152 -55.441  1.00  0.00     0.171 HD
BRANCH  13  16
HETATM   16  C   UNL     1     -43.055  60.774 -53.666  1.00  0.00     0.035 A 
HETATM   17  C   UNL     1     -42.008  59.967 -53.207  1.00  0.00     0.053 A 
HETATM   18  C   UNL     1     -41.787  59.872 -51.834  1.00  0.00     0.069 A 
HETATM   19  C   UNL     1     -42.603  60.558 -50.932  1.00  0.00     0.037 A 
HETATM   20  C   UNL     1     -43.638  61.368 -51.399  1.00  0.00     0.004 A 
HETATM   21  C   UNL     1     -43.873  61.471 -52.769  1.00  0.00     0.017 A 
BRANCH  18  22
HETATM   22  O   UNL     1     -40.858  59.022 -51.304  1.00  0.00    -0.351 OA
BRANCH  22  23
HETATM   23  C   UNL     1     -40.074  59.634 -50.274  1.00  0.00     0.175 C 
BRANCH  23  24
HETATM   24  C   UNL     1     -38.607  59.433 -50.646  1.00  0.00     0.022 C 
HETATM   25  C   UNL     1     -37.665  59.968 -49.583  1.00  0.00     0.007 C 
ENDBRANCH  23  24
ENDBRANCH  22  23
ENDBRANCH  18  22
ENDBRANCH  13  16
ENDBRANCH   9  12
ENDBRANCH   1   8
BRANCH   3  26
HETATM   26  C   UNL     1     -41.767  55.667 -55.267  1.00  0.00     0.112 A 
HETATM   27  S   UNL     1     -41.875  56.163 -53.621  1.00  0.00    -0.067 SA
HETATM   28  C   UNL     1     -41.185  54.674 -53.107  1.00  0.00     0.035 A 
HETATM   29  C   UNL     1     -40.911  53.892 -54.227  1.00  0.00     0.075 A 
HETATM   30  C   UNL     1     -40.905  54.228 -51.804  1.00  0.00     0.021 A 
HETATM   31  N   UNL     1     -41.254  54.462 -55.443  1.00  0.00    -0.239 NA
HETATM   32  C   UNL     1     -40.330  52.621 -54.045  1.00  0.00     0.033 A 
HETATM   33  C   UNL     1     -40.045  52.167 -52.753  1.00  0.00     0.002 A 
HETATM   34  C   UNL     1     -40.332  52.962 -51.648  1.00  0.00     0.002 A 
ENDBRANCH   3  26
BRANCH   4  35
HETATM   35  O   UNL     1     -43.665  54.702 -57.213  1.00  0.00    -0.359 OA
HETATM   36  H   UNL     1     -43.181  54.151 -57.865  1.00  0.00     0.218 HD
ENDBRANCH   4  35
TORSDOF 8
ENDMDL
MODEL 7
REMARK VINA RESULT:      -7.7      3.409      9.027
REMARK  8 active torsions:
REMARK  status: ('A' for Active; 'I' for Inactive)
REMARK    1  A    between atoms: C_2  and  C_3 
REMARK    2  A    between atoms: C_3  and  O_4 
REMARK    3  A    between atoms: O_4  and  C_5 
REMARK    4  A    between atoms: C_7  and  C_8 
REMARK       I    between atoms: C_8  and  N_9 
REMARK    5  A    between atoms: N_9  and  C_10 
REMARK    6  A    between atoms: N_11  and  C_12 
REMARK    7  A    between atoms: C_14  and  C_15 
REMARK    8  A    between atoms: C_24  and  O_25 
ROOT
HETATM    1  C   UNL     1     -43.653  58.922 -53.194  1.00  0.00     0.035 A 
HETATM    2  C   UNL     1     -43.127  57.645 -53.410  1.00  0.00     0.046 A 
HETATM    3  C   UNL     1     -42.056  57.152 -52.637  1.00  0.00     0.036 A 
HETATM    4  C   UNL     1     -41.517  58.002 -51.647  1.00  0.00     0.084 A 
HETATM    5  C   UNL     1     -41.996  59.305 -51.451  1.00  0.00    -0.026 A 
HETATM    6  C   UNL     1     -41.424  60.190 -50.380  1.00  0.00     0.051 C 
HETATM    7  C   UNL     1     -43.067  59.752 -52.233  1.00  0.00     0.039 A 
ENDROOT
BRANCH   1   8
HETATM    8  N   UNL     1     -44.716  59.468 -53.947  1.00  0.00    -0.333 N 
HETATM    9  C   UNL     1     -44.719  60.094 -55.144  1.00  0.00     0.179 C 
HETATM   10  S   UNL     1     -45.822  61.327 -55.406  1.00  0.00    -0.040 SA
HETATM   11  H   UNL     1     -45.581  59.579 -53.429  1.00  0.00     0.168 HD
BRANCH   9  12
HETATM   12  N   UNL     1     -43.921  59.730 -56.187  1.00  0.00    -0.299 N 
HETATM   13  C   UNL     1     -43.900  58.547 -56.920  1.00  0.00     0.257 C 
HETATM   14  O   UNL     1     -44.410  57.475 -56.627  1.00  0.00    -0.267 OA
HETATM   15  H   UNL     1     -43.529  60.535 -56.658  1.00  0.00     0.171 HD
BRANCH  13  16
HETATM   16  C   UNL     1     -43.121  58.629 -58.174  1.00  0.00     0.035 A 
HETATM   17  C   UNL     1     -42.910  59.861 -58.804  1.00  0.00     0.053 A 
HETATM   18  C   UNL     1     -42.225  59.884 -60.018  1.00  0.00     0.069 A 
HETATM   19  C   UNL     1     -41.768  58.701 -60.601  1.00  0.00     0.037 A 
HETATM   20  C   UNL     1     -41.973  57.479 -59.961  1.00  0.00     0.004 A 
HETATM   21  C   UNL     1     -42.659  57.439 -58.749  1.00  0.00     0.017 A 
BRANCH  18  22
HETATM   22  O   UNL     1     -42.076  61.031 -60.747  1.00  0.00    -0.351 OA
BRANCH  22  23
HETATM   23  C   UNL     1     -41.645  62.140 -59.950  1.00  0.00     0.175 C 
BRANCH  23  24
HETATM   24  C   UNL     1     -40.361  62.674 -60.578  1.00  0.00     0.022 C 
HETATM   25  C   UNL     1     -39.349  63.111 -59.535  1.00  0.00     0.007 C 
ENDBRANCH  23  24
ENDBRANCH  22  23
ENDBRANCH  18  22
ENDBRANCH  13  16
ENDBRANCH   9  12
ENDBRANCH   1   8
BRANCH   3  26
HETATM   26  C   UNL     1     -41.498  55.793 -52.833  1.00  0.00     0.112 A 
HETATM   27  S   UNL     1     -41.282  55.089 -54.389  1.00  0.00    -0.067 SA
HETATM   28  C   UNL     1     -40.610  53.675 -53.679  1.00  0.00     0.035 A 
HETATM   29  C   UNL     1     -40.597  53.828 -52.294  1.00  0.00     0.075 A 
HETATM   30  C   UNL     1     -40.128  52.511 -54.301  1.00  0.00     0.021 A 
HETATM   31  N   UNL     1     -41.094  55.035 -51.828  1.00  0.00    -0.239 NA
HETATM   32  C   UNL     1     -40.092  52.781 -51.497  1.00  0.00     0.033 A 
HETATM   33  C   UNL     1     -39.611  51.617 -52.105  1.00  0.00     0.002 A 
HETATM   34  C   UNL     1     -39.627  51.487 -53.490  1.00  0.00     0.002 A 
ENDBRANCH   3  26
BRANCH   4  35
HETATM   35  O   UNL     1     -40.488  57.601 -50.825  1.00  0.00    -0.359 OA
HETATM   36  H   UNL     1     -40.411  56.625 -50.895  1.00  0.00     0.218 HD
ENDBRANCH   4  35
TORSDOF 8
ENDMDL
MODEL 8
REMARK VINA RESULT:      -7.6      3.282      7.694
REMARK  8 active torsions:
REMARK  status: ('A' for Active; 'I' for Inactive)
REMARK    1  A    between atoms: C_2  and  C_3 
REMARK    2  A    between atoms: C_3  and  O_4 
REMARK    3  A    between atoms: O_4  and  C_5 
REMARK    4  A    between atoms: C_7  and  C_8 
REMARK       I    between atoms: C_8  and  N_9 
REMARK    5  A    between atoms: N_9  and  C_10 
REMARK    6  A    between atoms: N_11  and  C_12 
REMARK    7  A    between atoms: C_14  and  C_15 
REMARK    8  A    between atoms: C_24  and  O_25 
ROOT
HETATM    1  C   UNL     1     -42.468  58.706 -57.548  1.00  0.00     0.035 A 
HETATM    2  C   UNL     1     -41.987  57.892 -56.518  1.00  0.00     0.046 A 
HETATM    3  C   UNL     1     -42.355  56.535 -56.421  1.00  0.00     0.036 A 
HETATM    4  C   UNL     1     -43.247  56.028 -57.391  1.00  0.00     0.084 A 
HETATM    5  C   UNL     1     -43.782  56.841 -58.400  1.00  0.00    -0.026 A 
HETATM    6  C   UNL     1     -44.714  56.281 -59.437  1.00  0.00     0.051 C 
HETATM    7  C   UNL     1     -43.382  58.181 -58.467  1.00  0.00     0.039 A 
ENDROOT
BRANCH   1   8
HETATM    8  N   UNL     1     -42.140  60.072 -57.683  1.00  0.00    -0.333 N 
HETATM    9  C   UNL     1     -42.371  61.121 -56.864  1.00  0.00     0.179 C 
HETATM   10  S   UNL     1     -42.677  62.622 -57.542  1.00  0.00    -0.040 SA
HETATM   11  H   UNL     1     -41.858  60.344 -58.619  1.00  0.00     0.168 HD
BRANCH   9  12
HETATM   12  N   UNL     1     -42.298  61.047 -55.505  1.00  0.00    -0.299 N 
HETATM   13  C   UNL     1     -43.307  60.831 -54.571  1.00  0.00     0.257 C 
HETATM   14  O   UNL     1     -44.515  60.918 -54.738  1.00  0.00    -0.267 OA
HETATM   15  H   UNL     1     -41.364  60.817 -55.192  1.00  0.00     0.171 HD
BRANCH  13  16
HETATM   16  C   UNL     1     -42.813  60.500 -53.217  1.00  0.00     0.035 A 
HETATM   17  C   UNL     1     -43.462  60.994 -52.080  1.00  0.00     0.053 A 
HETATM   18  C   UNL     1     -42.926  60.712 -50.825  1.00  0.00     0.069 A 
HETATM   19  C   UNL     1     -41.755  59.960 -50.704  1.00  0.00     0.037 A 
HETATM   20  C   UNL     1     -41.120  59.463 -51.841  1.00  0.00     0.004 A 
HETATM   21  C   UNL     1     -41.643  59.740 -53.103  1.00  0.00     0.017 A 
BRANCH  18  22
HETATM   22  O   UNL     1     -43.438  61.248 -49.678  1.00  0.00    -0.351 OA
BRANCH  22  23
HETATM   23  C   UNL     1     -44.414  62.265 -49.931  1.00  0.00     0.175 C 
BRANCH  23  24
HETATM   24  C   UNL     1     -44.022  63.482 -49.098  1.00  0.00     0.022 C 
HETATM   25  C   UNL     1     -42.892  64.274 -49.732  1.00  0.00     0.007 C 
ENDBRANCH  23  24
ENDBRANCH  22  23
ENDBRANCH  18  22
ENDBRANCH  13  16
ENDBRANCH   9  12
ENDBRANCH   1   8
BRANCH   3  26
HETATM   26  C   UNL     1     -41.839  55.648 -55.352  1.00  0.00     0.112 A 
HETATM   27  S   UNL     1     -41.979  56.027 -53.678  1.00  0.00    -0.067 SA
HETATM   28  C   UNL     1     -41.216  54.544 -53.258  1.00  0.00     0.035 A 
HETATM   29  C   UNL     1     -40.897  53.855 -54.426  1.00  0.00     0.075 A 
HETATM   30  C   UNL     1     -40.919  54.027 -51.986  1.00  0.00     0.021 A 
HETATM   31  N   UNL     1     -41.263  54.486 -55.604  1.00  0.00    -0.239 NA
HETATM   32  C   UNL     1     -40.251  52.605 -54.324  1.00  0.00     0.033 A 
HETATM   33  C   UNL     1     -39.948  52.081 -53.063  1.00  0.00     0.002 A 
HETATM   34  C   UNL     1     -40.282  52.784 -51.910  1.00  0.00     0.002 A 
ENDBRANCH   3  26
BRANCH   4  35
HETATM   35  O   UNL     1     -43.645  54.710 -57.396  1.00  0.00    -0.359 OA
HETATM   36  H   UNL     1     -43.937  54.480 -56.487  1.00  0.00     0.218 HD
ENDBRANCH   4  35
TORSDOF 8
ENDMDL
MODEL 9
REMARK VINA RESULT:      -7.4     16.519     18.398
REMARK  8 active torsions:
REMARK  status: ('A' for Active; 'I' for Inactive)
REMARK    1  A    between atoms: C_2  and  C_3 
REMARK    2  A    between atoms: C_3  and  O_4 
REMARK    3  A    between atoms: O_4  and  C_5 
REMARK    4  A    between atoms: C_7  and  C_8 
REMARK       I    between atoms: C_8  and  N_9 
REMARK    5  A    between atoms: N_9  and  C_10 
REMARK    6  A    between atoms: N_11  and  C_12 
REMARK    7  A    between atoms: C_14  and  C_15 
REMARK    8  A    between atoms: C_24  and  O_25 
ROOT
HETATM    1  C   UNL     1     -34.538  38.600 -57.464  1.00  0.00     0.035 A 
HETATM    2  C   UNL     1     -35.527  38.234 -58.382  1.00  0.00     0.046 A 
HETATM    3  C   UNL     1     -36.449  39.175 -58.882  1.00  0.00     0.036 A 
HETATM    4  C   UNL     1     -36.353  40.502 -58.408  1.00  0.00     0.084 A 
HETATM    5  C   UNL     1     -35.403  40.877 -57.448  1.00  0.00    -0.026 A 
HETATM    6  C   UNL     1     -35.301  42.297 -56.969  1.00  0.00     0.051 C 
HETATM    7  C   UNL     1     -34.499  39.914 -56.984  1.00  0.00     0.039 A 
ENDROOT
BRANCH   1   8
HETATM    8  N   UNL     1     -33.599  37.695 -56.924  1.00  0.00    -0.333 N 
HETATM    9  C   UNL     1     -32.722  37.836 -55.905  1.00  0.00     0.179 C 
HETATM   10  S   UNL     1     -31.242  37.057 -56.002  1.00  0.00    -0.040 SA
HETATM   11  H   UNL     1     -33.418  36.883 -57.505  1.00  0.00     0.168 HD
BRANCH   9  12
HETATM   12  N   UNL     1     -33.000  38.519 -54.760  1.00  0.00    -0.299 N 
HETATM   13  C   UNL     1     -32.495  39.733 -54.305  1.00  0.00     0.257 C 
HETATM   14  O   UNL     1     -31.502  40.327 -54.699  1.00  0.00    -0.267 OA
HETATM   15  H   UNL     1     -33.895  38.253 -54.372  1.00  0.00     0.171 HD
BRANCH  13  16
HETATM   16  C   UNL     1     -33.255  40.318 -53.179  1.00  0.00     0.035 A 
HETATM   17  C   UNL     1     -34.501  40.918 -53.395  1.00  0.00     0.053 A 
HETATM   18  C   UNL     1     -35.154  41.514 -52.318  1.00  0.00     0.069 A 
HETATM   19  C   UNL     1     -34.571  41.525 -51.049  1.00  0.00     0.037 A 
HETATM   20  C   UNL     1     -33.334  40.916 -50.841  1.00  0.00     0.004 A 
HETATM   21  C   UNL     1     -32.667  40.319 -51.909  1.00  0.00     0.017 A 
BRANCH  18  22
HETATM   22  O   UNL     1     -36.318  42.213 -52.469  1.00  0.00    -0.351 OA
BRANCH  22  23
HETATM   23  C   UNL     1     -37.263  41.538 -53.307  1.00  0.00     0.175 C 
BRANCH  23  24
HETATM   24  C   UNL     1     -38.265  40.845 -52.388  1.00  0.00     0.022 C 
HETATM   25  C   UNL     1     -39.700  41.215 -52.719  1.00  0.00     0.007 C 
ENDBRANCH  23  24
ENDBRANCH  22  23
ENDBRANCH  18  22
ENDBRANCH  13  16
ENDBRANCH   9  12
ENDBRANCH   1   8
BRANCH   3  26
HETATM   26  C   UNL     1     -37.490  38.815 -59.873  1.00  0.00     0.112 A 
HETATM   27  S   UNL     1     -37.135  38.512 -61.531  1.00  0.00    -0.067 SA
HETATM   28  C   UNL     1     -38.790  38.165 -61.843  1.00  0.00     0.035 A 
HETATM   29  C   UNL     1     -39.512  38.307 -60.660  1.00  0.00     0.075 A 
HETATM   30  C   UNL     1     -39.407  37.793 -63.049  1.00  0.00     0.021 A 
HETATM   31  N   UNL     1     -38.763  38.666 -59.550  1.00  0.00    -0.239 NA
HETATM   32  C   UNL     1     -40.902  38.078 -60.679  1.00  0.00     0.033 A 
HETATM   33  C   UNL     1     -41.529  37.710 -61.874  1.00  0.00     0.002 A 
HETATM   34  C   UNL     1     -40.787  37.567 -63.042  1.00  0.00     0.002 A 
ENDBRANCH   3  26
BRANCH   4  35
HETATM   35  O   UNL     1     -37.191  41.498 -58.857  1.00  0.00    -0.359 OA
HETATM   36  H   UNL     1     -37.713  41.137 -59.606  1.00  0.00     0.218 HD
ENDBRANCH   4  35
TORSDOF 8
ENDMDL
MODEL 10
REMARK VINA RESULT:      -7.4     15.905     18.605
REMARK  8 active torsions:
REMARK  status: ('A' for Active; 'I' for Inactive)
REMARK    1  A    between atoms: C_2  and  C_3 
REMARK    2  A    between atoms: C_3  and  O_4 
REMARK    3  A    between atoms: O_4  and  C_5 
REMARK    4  A    between atoms: C_7  and  C_8 
REMARK       I    between atoms: C_8  and  N_9 
REMARK    5  A    between atoms: N_9  and  C_10 
REMARK    6  A    between atoms: N_11  and  C_12 
REMARK    7  A    between atoms: C_14  and  C_15 
REMARK    8  A    between atoms: C_24  and  O_25 
ROOT
HETATM    1  C   UNL     1     -37.837  40.867 -56.043  1.00  0.00     0.035 A 
HETATM    2  C   UNL     1     -36.472  40.574 -55.969  1.00  0.00     0.046 A 
HETATM    3  C   UNL     1     -35.794  39.960 -57.041  1.00  0.00     0.036 A 
HETATM    4  C   UNL     1     -36.546  39.630 -58.190  1.00  0.00     0.084 A 
HETATM    5  C   UNL     1     -37.926  39.868 -58.263  1.00  0.00    -0.026 A 
HETATM    6  C   UNL     1     -38.708  39.529 -59.500  1.00  0.00     0.051 C 
HETATM    7  C   UNL     1     -38.559  40.488 -57.180  1.00  0.00     0.039 A 
ENDROOT
BRANCH   1   8
HETATM    8  N   UNL     1     -38.566  41.469 -54.995  1.00  0.00    -0.333 N 
HETATM    9  C   UNL     1     -38.659  41.147 -53.686  1.00  0.00     0.179 C 
HETATM   10  S   UNL     1     -40.114  41.401 -52.895  1.00  0.00    -0.040 SA
HETATM   11  H   UNL     1     -39.276  42.126 -55.302  1.00  0.00     0.168 HD
BRANCH   9  12
HETATM   12  N   UNL     1     -37.610  40.693 -52.945  1.00  0.00    -0.299 N 
HETATM   13  C   UNL     1     -36.509  41.383 -52.447  1.00  0.00     0.257 C 
HETATM   14  O   UNL     1     -36.102  42.486 -52.782  1.00  0.00    -0.267 OA
HETATM   15  H   UNL     1     -37.839  39.838 -52.456  1.00  0.00     0.171 HD
BRANCH  13  16
HETATM   16  C   UNL     1     -35.742  40.638 -51.426  1.00  0.00     0.035 A 
HETATM   17  C   UNL     1     -34.352  40.513 -51.528  1.00  0.00     0.053 A 
HETATM   18  C   UNL     1     -33.676  39.747 -50.578  1.00  0.00     0.069 A 
HETATM   19  C   UNL     1     -34.373  39.107 -49.553  1.00  0.00     0.037 A 
HETATM   20  C   UNL     1     -35.758  39.245 -49.453  1.00  0.00     0.004 A 
HETATM   21  C   UNL     1     -36.447  40.005 -50.396  1.00  0.00     0.017 A 
BRANCH  18  22
HETATM   22  O   UNL     1     -32.338  39.488 -50.672  1.00  0.00    -0.351 OA
BRANCH  22  23
HETATM   23  C   UNL     1     -31.866  39.500 -52.024  1.00  0.00     0.175 C 
BRANCH  23  24
HETATM   24  C   UNL     1     -31.765  38.047 -52.479  1.00  0.00     0.022 C 
HETATM   25  C   UNL     1     -32.722  37.731 -53.614  1.00  0.00     0.007 C 
ENDBRANCH  23  24
ENDBRANCH  22  23
ENDBRANCH  18  22
ENDBRANCH  13  16
ENDBRANCH   9  12
ENDBRANCH   1   8
BRANCH   3  26
HETATM   26  C   UNL     1     -34.343  39.662 -56.994  1.00  0.00     0.112 A 
HETATM   27  S   UNL     1     -33.208  40.679 -56.192  1.00  0.00    -0.067 SA
HETATM   28  C   UNL     1     -31.928  39.604 -56.597  1.00  0.00     0.035 A 
HETATM   29  C   UNL     1     -32.449  38.537 -57.325  1.00  0.00     0.075 A 
HETATM   30  C   UNL     1     -30.560  39.698 -56.293  1.00  0.00     0.021 A 
HETATM   31  N   UNL     1     -33.818  38.576 -57.535  1.00  0.00    -0.239 NA
HETATM   32  C   UNL     1     -31.574  37.527 -57.773  1.00  0.00     0.033 A 
HETATM   33  C   UNL     1     -30.209  37.611 -57.479  1.00  0.00     0.002 A 
HETATM   34  C   UNL     1     -29.711  38.683 -56.746  1.00  0.00     0.002 A 
ENDBRANCH   3  26
BRANCH   4  35
HETATM   35  O   UNL     1     -35.968  39.053 -59.297  1.00  0.00    -0.359 OA
HETATM   36  H   UNL     1     -36.684  38.652 -59.836  1.00  0.00     0.218 HD
ENDBRANCH   4  35
TORSDOF 8
ENDMDL
