MODEL 1
REMARK VINA RESULT:      -8.2      0.000      0.000
REMARK  3 active torsions:
REMARK  status: ('A' for Active; 'I' for Inactive)
REMARK    1  A    between atoms: C_5  and  C_6 
REMARK    2  A    between atoms: C_8  and  N_9 
REMARK       I    between atoms: N_9  and  C_10 
REMARK    3  A    between atoms: C_10  and  C_11 
ROOT
HETATM    1  C   UNL     1     -43.431  56.608 -55.641  1.00  0.00     0.010 A 
HETATM    2  C   UNL     1     -42.678  55.484 -55.278  1.00  0.00     0.044 A 
HETATM    3  C   UNL     1     -42.614  55.067 -53.948  1.00  0.00     0.035 A 
HETATM    4  C   UNL     1     -43.302  55.804 -52.978  1.00  0.00     0.029 A 
HETATM    5  C   UNL     1     -44.042  56.935 -53.334  1.00  0.00     0.003 A 
HETATM    6  C   UNL     1     -44.114  57.338 -54.667  1.00  0.00     0.015 A 
ENDROOT
BRANCH   3   7
HETATM    7  N   UNL     1     -41.918  53.916 -53.523  1.00  0.00    -0.323 N 
HETATM    8  C   UNL     1     -40.667  53.491 -53.919  1.00  0.00     0.259 C 
HETATM    9  O   UNL     1     -39.914  54.137 -54.648  1.00  0.00    -0.267 OA
HETATM   10  H   UNL     1     -42.427  53.303 -52.891  1.00  0.00     0.169 HD
BRANCH   8  11
HETATM   11  C   UNL     1     -40.231  52.157 -53.372  1.00  0.00     0.070 A 
HETATM   12  C   UNL     1     -39.922  51.812 -51.935  1.00  0.00     0.116 A 
HETATM   13  S   UNL     1     -39.961  52.836 -50.603  1.00  0.00    -0.059 SA
HETATM   14  N   UNL     1     -39.572  50.497 -51.686  1.00  0.00    -0.356 N 
HETATM   15  C   UNL     1     -39.495  49.522 -52.644  1.00  0.00     0.089 A 
HETATM   16  H   UNL     1     -39.371  50.249 -50.721  1.00  0.00     0.166 HD
HETATM   17  C   UNL     1     -39.764  49.815 -53.919  1.00  0.00     0.018 A 
HETATM   18  C   UNL     1     -40.142  51.160 -54.279  1.00  0.00     0.022 A 
ENDBRANCH   8  11
ENDBRANCH   3   7
BRANCH   1  19
HETATM   19  C   UNL     1     -43.513  56.993 -57.087  1.00  0.00     0.116 A 
HETATM   20  N   UNL     1     -44.616  57.159 -57.831  1.00  0.00    -0.344 N 
HETATM   21  C   UNL     1     -44.311  57.472 -59.149  1.00  0.00     0.029 A 
HETATM   22  H   UNL     1     -45.557  57.036 -57.475  1.00  0.00     0.167 HD
HETATM   23  C   UNL     1     -45.339  57.669 -60.187  1.00  0.00     0.070 C 
HETATM   24  C   UNL     1     -42.933  57.537 -59.205  1.00  0.00     0.029 A 
HETATM   25  N   UNL     1     -42.496  57.238 -57.926  1.00  0.00    -0.344 N 
HETATM   26  C   UNL     1     -42.014  57.831 -60.317  1.00  0.00     0.070 C 
HETATM   27  H   UNL     1     -41.518  57.203 -57.648  1.00  0.00     0.167 HD
ENDBRANCH   1  19
TORSDOF 3
ENDMDL
MODEL 2
REMARK VINA RESULT:      -8.0      3.049      8.174
REMARK  3 active torsions:
REMARK  status: ('A' for Active; 'I' for Inactive)
REMARK    1  A    between atoms: C_5  and  C_6 
REMARK    2  A    between atoms: C_8  and  N_9 
REMARK       I    between atoms: N_9  and  C_10 
REMARK    3  A    between atoms: C_10  and  C_11 
ROOT
HETATM    1  C   UNL     1     -41.249  54.510 -54.263  1.00  0.00     0.010 A 
HETATM    2  C   UNL     1     -42.143  54.492 -55.340  1.00  0.00     0.044 A 
HETATM    3  C   UNL     1     -42.685  55.677 -55.840  1.00  0.00     0.035 A 
HETATM    4  C   UNL     1     -42.332  56.886 -55.231  1.00  0.00     0.029 A 
HETATM    5  C   UNL     1     -41.451  56.908 -54.146  1.00  0.00     0.003 A 
HETATM    6  C   UNL     1     -40.903  55.722 -53.661  1.00  0.00     0.015 A 
ENDROOT
BRANCH   3   7
HETATM    7  N   UNL     1     -43.549  55.733 -56.953  1.00  0.00    -0.323 N 
HETATM    8  C   UNL     1     -43.377  56.448 -58.120  1.00  0.00     0.259 C 
HETATM    9  O   UNL     1     -42.358  57.078 -58.403  1.00  0.00    -0.267 OA
HETATM   10  H   UNL     1     -44.426  55.228 -56.854  1.00  0.00     0.169 HD
BRANCH   8  11
HETATM   11  C   UNL     1     -44.530  56.399 -59.087  1.00  0.00     0.070 A 
HETATM   12  C   UNL     1     -45.773  57.257 -59.076  1.00  0.00     0.116 A 
HETATM   13  S   UNL     1     -46.185  58.450 -57.967  1.00  0.00    -0.059 SA
HETATM   14  N   UNL     1     -46.675  57.037 -60.102  1.00  0.00    -0.356 N 
HETATM   15  C   UNL     1     -46.504  56.112 -61.097  1.00  0.00     0.089 A 
HETATM   16  H   UNL     1     -47.512  57.614 -60.110  1.00  0.00     0.166 HD
HETATM   17  C   UNL     1     -45.410  55.346 -61.117  1.00  0.00     0.018 A 
HETATM   18  C   UNL     1     -44.407  55.504 -60.091  1.00  0.00     0.022 A 
ENDBRANCH   8  11
ENDBRANCH   3   7
BRANCH   1  19
HETATM   19  C   UNL     1     -40.653  53.220 -53.789  1.00  0.00     0.116 A 
HETATM   20  N   UNL     1     -40.295  52.160 -54.528  1.00  0.00    -0.344 N 
HETATM   21  C   UNL     1     -39.818  51.118 -53.745  1.00  0.00     0.029 A 
HETATM   22  H   UNL     1     -40.393  52.120 -55.536  1.00  0.00     0.167 HD
HETATM   23  C   UNL     1     -39.393  49.822 -54.303  1.00  0.00     0.070 C 
HETATM   24  C   UNL     1     -39.855  51.584 -52.446  1.00  0.00     0.029 A 
HETATM   25  N   UNL     1     -40.370  52.866 -52.527  1.00  0.00    -0.344 N 
HETATM   26  C   UNL     1     -39.475  50.952 -51.170  1.00  0.00     0.070 C 
HETATM   27  H   UNL     1     -40.521  53.475 -51.726  1.00  0.00     0.167 HD
ENDBRANCH   1  19
TORSDOF 3
ENDMDL
MODEL 3
REMARK VINA RESULT:      -7.9      2.888      8.152
REMARK  3 active torsions:
REMARK  status: ('A' for Active; 'I' for Inactive)
REMARK    1  A    between atoms: C_5  and  C_6 
REMARK    2  A    between atoms: C_8  and  N_9 
REMARK       I    between atoms: N_9  and  C_10 
REMARK    3  A    between atoms: C_10  and  C_11 
ROOT
HETATM    1  C   UNL     1     -40.886  54.403 -53.249  1.00  0.00     0.010 A 
HETATM    2  C   UNL     1     -41.076  54.928 -54.532  1.00  0.00     0.044 A 
HETATM    3  C   UNL     1     -41.485  56.250 -54.710  1.00  0.00     0.035 A 
HETATM    4  C   UNL     1     -41.719  57.039 -53.578  1.00  0.00     0.029 A 
HETATM    5  C   UNL     1     -41.544  56.515 -52.294  1.00  0.00     0.003 A 
HETATM    6  C   UNL     1     -41.122  55.197 -52.125  1.00  0.00     0.015 A 
ENDROOT
BRANCH   3   7
HETATM    7  N   UNL     1     -41.645  56.856 -55.973  1.00  0.00    -0.323 N 
HETATM    8  C   UNL     1     -42.823  57.113 -56.644  1.00  0.00     0.259 C 
HETATM    9  O   UNL     1     -43.945  56.933 -56.167  1.00  0.00    -0.267 OA
HETATM   10  H   UNL     1     -40.784  57.079 -56.466  1.00  0.00     0.169 HD
BRANCH   8  11
HETATM   11  C   UNL     1     -42.671  57.672 -58.033  1.00  0.00     0.070 A 
HETATM   12  C   UNL     1     -43.044  57.004 -59.336  1.00  0.00     0.116 A 
HETATM   13  S   UNL     1     -43.690  55.468 -59.553  1.00  0.00    -0.059 SA
HETATM   14  N   UNL     1     -42.834  57.747 -60.483  1.00  0.00    -0.356 N 
HETATM   15  C   UNL     1     -42.323  59.017 -60.500  1.00  0.00     0.089 A 
HETATM   16  H   UNL     1     -43.090  57.312 -61.366  1.00  0.00     0.166 HD
HETATM   17  C   UNL     1     -41.988  59.617 -59.355  1.00  0.00     0.018 A 
HETATM   18  C   UNL     1     -42.174  58.925 -58.103  1.00  0.00     0.022 A 
ENDBRANCH   8  11
ENDBRANCH   3   7
BRANCH   1  19
HETATM   19  C   UNL     1     -40.399  52.993 -53.103  1.00  0.00     0.116 A 
HETATM   20  N   UNL     1     -40.150  52.105 -54.077  1.00  0.00    -0.344 N 
HETATM   21  C   UNL     1     -39.756  50.875 -53.570  1.00  0.00     0.029 A 
HETATM   22  H   UNL     1     -40.269  52.306 -55.064  1.00  0.00     0.167 HD
HETATM   23  C   UNL     1     -39.458  49.711 -54.424  1.00  0.00     0.070 C 
HETATM   24  C   UNL     1     -39.728  51.031 -52.199  1.00  0.00     0.029 A 
HETATM   25  N   UNL     1     -40.127  52.336 -51.967  1.00  0.00    -0.344 N 
HETATM   26  C   UNL     1     -39.385  50.093 -51.115  1.00  0.00     0.070 C 
HETATM   27  H   UNL     1     -40.210  52.754 -51.043  1.00  0.00     0.167 HD
ENDBRANCH   1  19
TORSDOF 3
ENDMDL
MODEL 4
REMARK VINA RESULT:      -7.9      1.389      2.051
REMARK  3 active torsions:
REMARK  status: ('A' for Active; 'I' for Inactive)
REMARK    1  A    between atoms: C_5  and  C_6 
REMARK    2  A    between atoms: C_8  and  N_9 
REMARK       I    between atoms: N_9  and  C_10 
REMARK    3  A    between atoms: C_10  and  C_11 
ROOT
HETATM    1  C   UNL     1     -44.482  57.204 -54.606  1.00  0.00     0.010 A 
HETATM    2  C   UNL     1     -43.658  56.077 -54.503  1.00  0.00     0.044 A 
HETATM    3  C   UNL     1     -43.143  55.680 -53.268  1.00  0.00     0.035 A 
HETATM    4  C   UNL     1     -43.452  56.439 -52.134  1.00  0.00     0.029 A 
HETATM    5  C   UNL     1     -44.263  57.573 -52.235  1.00  0.00     0.003 A 
HETATM    6  C   UNL     1     -44.786  57.956 -53.470  1.00  0.00     0.015 A 
ENDROOT
BRANCH   3   7
HETATM    7  N   UNL     1     -42.350  54.528 -53.086  1.00  0.00    -0.323 N 
HETATM    8  C   UNL     1     -41.080  54.290 -53.572  1.00  0.00     0.259 C 
HETATM    9  O   UNL     1     -40.399  55.126 -54.168  1.00  0.00    -0.267 OA
HETATM   10  H   UNL     1     -42.794  53.764 -52.583  1.00  0.00     0.169 HD
BRANCH   8  11
HETATM   11  C   UNL     1     -40.529  52.915 -53.305  1.00  0.00     0.070 A 
HETATM   12  C   UNL     1     -40.043  52.362 -51.987  1.00  0.00     0.116 A 
HETATM   13  S   UNL     1     -39.971  53.155 -50.507  1.00  0.00    -0.059 SA
HETATM   14  N   UNL     1     -39.612  51.048 -51.999  1.00  0.00    -0.356 N 
HETATM   15  C   UNL     1     -39.604  50.246 -53.109  1.00  0.00     0.089 A 
HETATM   16  H   UNL     1     -39.290  50.661 -51.116  1.00  0.00     0.166 HD
HETATM   17  C   UNL     1     -40.030  50.724 -54.281  1.00  0.00     0.018 A 
HETATM   18  C   UNL     1     -40.504  52.084 -54.370  1.00  0.00     0.022 A 
ENDBRANCH   8  11
ENDBRANCH   3   7
BRANCH   1  19
HETATM   19  C   UNL     1     -45.054  57.568 -55.942  1.00  0.00     0.116 A 
HETATM   20  N   UNL     1     -44.503  57.380 -57.150  1.00  0.00    -0.344 N 
HETATM   21  C   UNL     1     -45.299  57.886 -58.169  1.00  0.00     0.029 A 
HETATM   22  H   UNL     1     -43.597  56.948 -57.293  1.00  0.00     0.167 HD
HETATM   23  C   UNL     1     -44.910  57.844 -59.589  1.00  0.00     0.070 C 
HETATM   24  C   UNL     1     -46.425  58.385 -57.546  1.00  0.00     0.029 A 
HETATM   25  N   UNL     1     -46.227  58.167 -56.193  1.00  0.00    -0.344 N 
HETATM   26  C   UNL     1     -47.631  59.039 -58.084  1.00  0.00     0.070 C 
HETATM   27  H   UNL     1     -46.889  58.430 -55.467  1.00  0.00     0.167 HD
ENDBRANCH   1  19
TORSDOF 3
ENDMDL
MODEL 5
REMARK VINA RESULT:      -7.7      2.954      8.225
REMARK  3 active torsions:
REMARK  status: ('A' for Active; 'I' for Inactive)
REMARK    1  A    between atoms: C_5  and  C_6 
REMARK    2  A    between atoms: C_8  and  N_9 
REMARK       I    between atoms: N_9  and  C_10 
REMARK    3  A    between atoms: C_10  and  C_11 
ROOT
HETATM    1  C   UNL     1     -41.320  54.894 -54.252  1.00  0.00     0.010 A 
HETATM    2  C   UNL     1     -42.273  54.966 -55.275  1.00  0.00     0.044 A 
HETATM    3  C   UNL     1     -42.778  56.197 -55.696  1.00  0.00     0.035 A 
HETATM    4  C   UNL     1     -42.327  57.360 -55.063  1.00  0.00     0.029 A 
HETATM    5  C   UNL     1     -41.386  57.292 -54.031  1.00  0.00     0.003 A 
HETATM    6  C   UNL     1     -40.876  56.060 -53.626  1.00  0.00     0.015 A 
ENDROOT
BRANCH   3   7
HETATM    7  N   UNL     1     -43.700  56.344 -56.753  1.00  0.00    -0.323 N 
HETATM    8  C   UNL     1     -43.482  56.914 -57.991  1.00  0.00     0.259 C 
HETATM    9  O   UNL     1     -42.382  57.294 -58.395  1.00  0.00    -0.267 OA
HETATM   10  H   UNL     1     -44.650  56.042 -56.553  1.00  0.00     0.169 HD
BRANCH   8  11
HETATM   11  C   UNL     1     -44.695  57.030 -58.875  1.00  0.00     0.070 A 
HETATM   12  C   UNL     1     -45.289  55.961 -59.761  1.00  0.00     0.116 A 
HETATM   13  S   UNL     1     -44.726  54.395 -59.996  1.00  0.00    -0.059 SA
HETATM   14  N   UNL     1     -46.434  56.310 -60.454  1.00  0.00    -0.356 N 
HETATM   15  C   UNL     1     -47.038  57.537 -60.381  1.00  0.00     0.089 A 
HETATM   16  H   UNL     1     -46.849  55.596 -61.047  1.00  0.00     0.166 HD
HETATM   17  C   UNL     1     -46.521  58.491 -59.603  1.00  0.00     0.018 A 
HETATM   18  C   UNL     1     -45.329  58.222 -58.836  1.00  0.00     0.022 A 
ENDBRANCH   8  11
ENDBRANCH   3   7
BRANCH   1  19
HETATM   19  C   UNL     1     -40.768  53.556 -53.865  1.00  0.00     0.116 A 
HETATM   20  N   UNL     1     -40.555  52.494 -54.655  1.00  0.00    -0.344 N 
HETATM   21  C   UNL     1     -40.076  51.404 -53.944  1.00  0.00     0.029 A 
HETATM   22  H   UNL     1     -40.754  52.486 -55.650  1.00  0.00     0.167 HD
HETATM   23  C   UNL     1     -39.794  50.098 -54.566  1.00  0.00     0.070 C 
HETATM   24  C   UNL     1     -39.955  51.837 -52.638  1.00  0.00     0.029 A 
HETATM   25  N   UNL     1     -40.388  53.152 -52.644  1.00  0.00    -0.344 N 
HETATM   26  C   UNL     1     -39.496  51.150 -51.419  1.00  0.00     0.070 C 
HETATM   27  H   UNL     1     -40.420  53.748 -51.820  1.00  0.00     0.167 HD
ENDBRANCH   1  19
TORSDOF 3
ENDMDL
MODEL 6
REMARK VINA RESULT:      -7.7      3.392      8.394
REMARK  3 active torsions:
REMARK  status: ('A' for Active; 'I' for Inactive)
REMARK    1  A    between atoms: C_5  and  C_6 
REMARK    2  A    between atoms: C_8  and  N_9 
REMARK       I    between atoms: N_9  and  C_10 
REMARK    3  A    between atoms: C_10  and  C_11 
ROOT
HETATM    1  C   UNL     1     -40.830  54.592 -51.586  1.00  0.00     0.010 A 
HETATM    2  C   UNL     1     -41.295  55.415 -52.619  1.00  0.00     0.044 A 
HETATM    3  C   UNL     1     -41.683  56.730 -52.365  1.00  0.00     0.035 A 
HETATM    4  C   UNL     1     -41.617  57.209 -51.052  1.00  0.00     0.029 A 
HETATM    5  C   UNL     1     -41.168  56.386 -50.015  1.00  0.00     0.003 A 
HETATM    6  C   UNL     1     -40.768  55.077 -50.279  1.00  0.00     0.015 A 
ENDROOT
BRANCH   3   7
HETATM    7  N   UNL     1     -42.111  57.627 -53.366  1.00  0.00    -0.323 N 
HETATM    8  C   UNL     1     -41.453  58.745 -53.836  1.00  0.00     0.259 C 
HETATM    9  O   UNL     1     -40.312  59.068 -53.504  1.00  0.00    -0.267 OA
HETATM   10  H   UNL     1     -43.039  57.454 -53.743  1.00  0.00     0.169 HD
BRANCH   8  11
HETATM   11  C   UNL     1     -42.215  59.574 -54.836  1.00  0.00     0.070 A 
HETATM   12  C   UNL     1     -42.682  59.154 -56.209  1.00  0.00     0.116 A 
HETATM   13  S   UNL     1     -42.441  57.672 -56.964  1.00  0.00    -0.059 SA
HETATM   14  N   UNL     1     -43.396  60.097 -56.925  1.00  0.00    -0.356 N 
HETATM   15  C   UNL     1     -43.693  61.353 -56.468  1.00  0.00     0.089 A 
HETATM   16  H   UNL     1     -43.724  59.823 -57.847  1.00  0.00     0.166 HD
HETATM   17  C   UNL     1     -43.284  61.737 -55.256  1.00  0.00     0.018 A 
HETATM   18  C   UNL     1     -42.535  60.822 -54.430  1.00  0.00     0.022 A 
ENDBRANCH   8  11
ENDBRANCH   3   7
BRANCH   1  19
HETATM   19  C   UNL     1     -40.377  53.201 -51.911  1.00  0.00     0.116 A 
HETATM   20  N   UNL     1     -40.220  52.650 -53.123  1.00  0.00    -0.344 N 
HETATM   21  C   UNL     1     -39.829  51.321 -53.043  1.00  0.00     0.029 A 
HETATM   22  H   UNL     1     -40.398  53.143 -53.991  1.00  0.00     0.167 HD
HETATM   23  C   UNL     1     -39.623  50.470 -54.229  1.00  0.00     0.070 C 
HETATM   24  C   UNL     1     -39.706  51.051 -51.694  1.00  0.00     0.029 A 
HETATM   25  N   UNL     1     -40.050  52.227 -51.049  1.00  0.00    -0.344 N 
HETATM   26  C   UNL     1     -39.319  49.826 -50.974  1.00  0.00     0.070 C 
HETATM   27  H   UNL     1     -40.058  52.345 -50.039  1.00  0.00     0.167 HD
ENDBRANCH   1  19
TORSDOF 3
ENDMDL
MODEL 7
REMARK VINA RESULT:      -7.5      2.409      4.390
REMARK  3 active torsions:
REMARK  status: ('A' for Active; 'I' for Inactive)
REMARK    1  A    between atoms: C_5  and  C_6 
REMARK    2  A    between atoms: C_8  and  N_9 
REMARK       I    between atoms: N_9  and  C_10 
REMARK    3  A    between atoms: C_10  and  C_11 
ROOT
HETATM    1  C   UNL     1     -43.666  57.329 -54.113  1.00  0.00     0.010 A 
HETATM    2  C   UNL     1     -43.045  56.211 -53.545  1.00  0.00     0.044 A 
HETATM    3  C   UNL     1     -42.590  55.162 -54.346  1.00  0.00     0.035 A 
HETATM    4  C   UNL     1     -42.783  55.240 -55.729  1.00  0.00     0.029 A 
HETATM    5  C   UNL     1     -43.416  56.348 -56.300  1.00  0.00     0.003 A 
HETATM    6  C   UNL     1     -43.855  57.399 -55.495  1.00  0.00     0.015 A 
ENDROOT
BRANCH   3   7
HETATM    7  N   UNL     1     -41.911  54.033 -53.844  1.00  0.00    -0.323 N 
HETATM    8  C   UNL     1     -40.656  53.577 -54.192  1.00  0.00     0.259 C 
HETATM    9  O   UNL     1     -39.885  54.177 -54.944  1.00  0.00    -0.267 OA
HETATM   10  H   UNL     1     -42.436  53.460 -53.188  1.00  0.00     0.169 HD
BRANCH   8  11
HETATM   11  C   UNL     1     -40.240  52.273 -53.565  1.00  0.00     0.070 A 
HETATM   12  C   UNL     1     -39.924  52.016 -52.111  1.00  0.00     0.116 A 
HETATM   13  S   UNL     1     -39.930  53.125 -50.848  1.00  0.00    -0.059 SA
HETATM   14  N   UNL     1     -39.597  50.713 -51.779  1.00  0.00    -0.356 N 
HETATM   15  C   UNL     1     -39.547  49.677 -52.673  1.00  0.00     0.089 A 
HETATM   16  H   UNL     1     -39.390  50.525 -50.802  1.00  0.00     0.166 HD
HETATM   17  C   UNL     1     -39.823  49.893 -53.962  1.00  0.00     0.018 A 
HETATM   18  C   UNL     1     -40.180  51.219 -54.406  1.00  0.00     0.022 A 
ENDBRANCH   8  11
ENDBRANCH   3   7
BRANCH   1  19
HETATM   19  C   UNL     1     -44.096  58.455 -53.223  1.00  0.00     0.116 A 
HETATM   20  N   UNL     1     -43.400  59.029 -52.231  1.00  0.00    -0.344 N 
HETATM   21  C   UNL     1     -44.132  60.016 -51.585  1.00  0.00     0.029 A 
HETATM   22  H   UNL     1     -42.461  58.750 -51.969  1.00  0.00     0.167 HD
HETATM   23  C   UNL     1     -43.616  60.778 -50.435  1.00  0.00     0.070 C 
HETATM   24  C   UNL     1     -45.343  60.071 -52.248  1.00  0.00     0.029 A 
HETATM   25  N   UNL     1     -45.270  59.103 -53.234  1.00  0.00    -0.344 N 
HETATM   26  C   UNL     1     -46.532  60.915 -52.040  1.00  0.00     0.070 C 
HETATM   27  H   UNL     1     -46.017  58.899 -53.893  1.00  0.00     0.167 HD
ENDBRANCH   1  19
TORSDOF 3
ENDMDL
MODEL 8
REMARK VINA RESULT:      -7.4      3.259      7.955
REMARK  3 active torsions:
REMARK  status: ('A' for Active; 'I' for Inactive)
REMARK    1  A    between atoms: C_5  and  C_6 
REMARK    2  A    between atoms: C_8  and  N_9 
REMARK       I    between atoms: N_9  and  C_10 
REMARK    3  A    between atoms: C_10  and  C_11 
ROOT
HETATM    1  C   UNL     1     -42.795  55.887 -52.521  1.00  0.00     0.010 A 
HETATM    2  C   UNL     1     -43.024  55.597 -53.872  1.00  0.00     0.044 A 
HETATM    3  C   UNL     1     -43.781  56.457 -54.668  1.00  0.00     0.035 A 
HETATM    4  C   UNL     1     -44.324  57.608 -54.087  1.00  0.00     0.029 A 
HETATM    5  C   UNL     1     -44.110  57.894 -52.736  1.00  0.00     0.003 A 
HETATM    6  C   UNL     1     -43.340  57.038 -51.950  1.00  0.00     0.015 A 
ENDROOT
BRANCH   3   7
HETATM    7  N   UNL     1     -44.007  56.252 -56.045  1.00  0.00    -0.323 N 
HETATM    8  C   UNL     1     -43.292  56.769 -57.105  1.00  0.00     0.259 C 
HETATM    9  O   UNL     1     -42.256  57.424 -56.988  1.00  0.00    -0.267 OA
HETATM   10  H   UNL     1     -44.830  55.700 -56.278  1.00  0.00     0.169 HD
BRANCH   8  11
HETATM   11  C   UNL     1     -43.843  56.461 -58.472  1.00  0.00     0.070 A 
HETATM   12  C   UNL     1     -44.307  57.448 -59.517  1.00  0.00     0.116 A 
HETATM   13  S   UNL     1     -44.351  59.124 -59.397  1.00  0.00    -0.059 SA
HETATM   14  N   UNL     1     -44.743  56.908 -60.714  1.00  0.00    -0.356 N 
HETATM   15  C   UNL     1     -44.773  55.568 -60.993  1.00  0.00     0.089 A 
HETATM   16  H   UNL     1     -45.049  57.563 -61.429  1.00  0.00     0.166 HD
HETATM   17  C   UNL     1     -44.366  54.686 -60.077  1.00  0.00     0.018 A 
HETATM   18  C   UNL     1     -43.890  55.151 -58.797  1.00  0.00     0.022 A 
ENDBRANCH   8  11
ENDBRANCH   3   7
BRANCH   1  19
HETATM   19  C   UNL     1     -41.935  54.962 -51.714  1.00  0.00     0.116 A 
HETATM   20  N   UNL     1     -41.631  55.051 -50.411  1.00  0.00    -0.344 N 
HETATM   21  C   UNL     1     -40.768  54.042 -50.009  1.00  0.00     0.029 A 
HETATM   22  H   UNL     1     -41.969  55.790 -49.805  1.00  0.00     0.167 HD
HETATM   23  C   UNL     1     -40.246  53.930 -48.636  1.00  0.00     0.070 C 
HETATM   24  C   UNL     1     -40.558  53.265 -51.131  1.00  0.00     0.029 A 
HETATM   25  N   UNL     1     -41.290  53.866 -52.140  1.00  0.00    -0.344 N 
HETATM   26  C   UNL     1     -39.749  52.052 -51.342  1.00  0.00     0.070 C 
HETATM   27  H   UNL     1     -41.336  53.525 -53.097  1.00  0.00     0.167 HD
ENDBRANCH   1  19
TORSDOF 3
ENDMDL
MODEL 9
REMARK VINA RESULT:      -7.3      1.922      2.306
REMARK  3 active torsions:
REMARK  status: ('A' for Active; 'I' for Inactive)
REMARK    1  A    between atoms: C_5  and  C_6 
REMARK    2  A    between atoms: C_8  and  N_9 
REMARK       I    between atoms: N_9  and  C_10 
REMARK    3  A    between atoms: C_10  and  C_11 
ROOT
HETATM    1  C   UNL     1     -43.226  58.075 -56.246  1.00  0.00     0.010 A 
HETATM    2  C   UNL     1     -42.473  56.985 -55.794  1.00  0.00     0.044 A 
HETATM    3  C   UNL     1     -42.980  56.118 -54.826  1.00  0.00     0.035 A 
HETATM    4  C   UNL     1     -44.252  56.368 -54.299  1.00  0.00     0.029 A 
HETATM    5  C   UNL     1     -45.002  57.463 -54.737  1.00  0.00     0.003 A 
HETATM    6  C   UNL     1     -44.495  58.317 -55.716  1.00  0.00     0.015 A 
ENDROOT
BRANCH   3   7
HETATM    7  N   UNL     1     -42.296  54.974 -54.364  1.00  0.00    -0.323 N 
HETATM    8  C   UNL     1     -41.364  54.899 -53.350  1.00  0.00     0.259 C 
HETATM    9  O   UNL     1     -41.066  55.839 -52.612  1.00  0.00    -0.267 OA
HETATM   10  H   UNL     1     -42.475  54.117 -54.881  1.00  0.00     0.169 HD
BRANCH   8  11
HETATM   11  C   UNL     1     -40.719  53.552 -53.159  1.00  0.00     0.070 A 
HETATM   12  C   UNL     1     -40.201  52.958 -51.871  1.00  0.00     0.116 A 
HETATM   13  S   UNL     1     -40.190  53.666 -50.347  1.00  0.00    -0.059 SA
HETATM   14  N   UNL     1     -39.679  51.680 -51.955  1.00  0.00    -0.356 N 
HETATM   15  C   UNL     1     -39.610  50.947 -53.110  1.00  0.00     0.089 A 
HETATM   16  H   UNL     1     -39.335  51.266 -51.093  1.00  0.00     0.166 HD
HETATM   17  C   UNL     1     -40.064  51.462 -54.256  1.00  0.00     0.018 A 
HETATM   18  C   UNL     1     -40.631  52.789 -54.270  1.00  0.00     0.022 A 
ENDBRANCH   8  11
ENDBRANCH   3   7
BRANCH   1  19
HETATM   19  C   UNL     1     -42.664  58.953 -57.322  1.00  0.00     0.116 A 
HETATM   20  N   UNL     1     -42.772  58.797 -58.650  1.00  0.00    -0.344 N 
HETATM   21  C   UNL     1     -42.083  59.780 -59.346  1.00  0.00     0.029 A 
HETATM   22  H   UNL     1     -43.273  58.031 -59.086  1.00  0.00     0.167 HD
HETATM   23  C   UNL     1     -42.008  59.820 -60.817  1.00  0.00     0.070 C 
HETATM   24  C   UNL     1     -41.548  60.611 -58.382  1.00  0.00     0.029 A 
HETATM   25  N   UNL     1     -41.930  60.064 -57.169  1.00  0.00    -0.344 N 
HETATM   26  C   UNL     1     -40.724  61.827 -58.489  1.00  0.00     0.070 C 
HETATM   27  H   UNL     1     -41.684  60.454 -56.262  1.00  0.00     0.167 HD
ENDBRANCH   1  19
TORSDOF 3
ENDMDL
MODEL 10
REMARK VINA RESULT:      -7.1      3.891      7.674
REMARK  3 active torsions:
REMARK  status: ('A' for Active; 'I' for Inactive)
REMARK    1  A    between atoms: C_5  and  C_6 
REMARK    2  A    between atoms: C_8  and  N_9 
REMARK       I    between atoms: N_9  and  C_10 
REMARK    3  A    between atoms: C_10  and  C_11 
ROOT
HETATM    1  C   UNL     1     -41.708  56.401 -53.547  1.00  0.00     0.010 A 
HETATM    2  C   UNL     1     -42.407  56.522 -54.753  1.00  0.00     0.044 A 
HETATM    3  C   UNL     1     -42.462  55.460 -55.657  1.00  0.00     0.035 A 
HETATM    4  C   UNL     1     -41.790  54.274 -55.342  1.00  0.00     0.029 A 
HETATM    5  C   UNL     1     -41.078  54.154 -54.145  1.00  0.00     0.003 A 
HETATM    6  C   UNL     1     -41.039  55.215 -53.240  1.00  0.00     0.015 A 
ENDROOT
BRANCH   3   7
HETATM    7  N   UNL     1     -43.190  55.497 -56.864  1.00  0.00    -0.323 N 
HETATM    8  C   UNL     1     -43.122  56.446 -57.863  1.00  0.00     0.259 C 
HETATM    9  O   UNL     1     -42.310  57.372 -57.885  1.00  0.00    -0.267 OA
HETATM   10  H   UNL     1     -43.885  54.764 -56.981  1.00  0.00     0.169 HD
BRANCH   8  11
HETATM   11  C   UNL     1     -44.108  56.277 -58.988  1.00  0.00     0.070 A 
HETATM   12  C   UNL     1     -45.133  57.278 -59.467  1.00  0.00     0.116 A 
HETATM   13  S   UNL     1     -45.442  58.808 -58.844  1.00  0.00    -0.059 SA
HETATM   14  N   UNL     1     -45.903  56.891 -60.549  1.00  0.00    -0.356 N 
HETATM   15  C   UNL     1     -45.787  55.686 -61.190  1.00  0.00     0.089 A 
HETATM   16  H   UNL     1     -46.590  57.559 -60.887  1.00  0.00     0.166 HD
HETATM   17  C   UNL     1     -44.886  54.793 -60.775  1.00  0.00     0.018 A 
HETATM   18  C   UNL     1     -44.031  55.105 -59.654  1.00  0.00     0.022 A 
ENDBRANCH   8  11
ENDBRANCH   3   7
BRANCH   1  19
HETATM   19  C   UNL     1     -41.714  57.549 -52.583  1.00  0.00     0.116 A 
HETATM   20  N   UNL     1     -42.730  58.377 -52.299  1.00  0.00    -0.344 N 
HETATM   21  C   UNL     1     -42.361  59.358 -51.388  1.00  0.00     0.029 A 
HETATM   22  H   UNL     1     -43.647  58.309 -52.726  1.00  0.00     0.167 HD
HETATM   23  C   UNL     1     -43.277  60.419 -50.934  1.00  0.00     0.070 C 
HETATM   24  C   UNL     1     -41.045  59.091 -51.069  1.00  0.00     0.029 A 
HETATM   25  N   UNL     1     -40.699  57.982 -51.822  1.00  0.00    -0.344 N 
HETATM   26  C   UNL     1     -40.103  59.767 -50.160  1.00  0.00     0.070 C 
HETATM   27  H   UNL     1     -39.782  57.542 -51.807  1.00  0.00     0.167 HD
ENDBRANCH   1  19
TORSDOF 3
ENDMDL
