MODEL 1
REMARK VINA RESULT:      -8.8      0.000      0.000
REMARK  8 active torsions:
REMARK  status: ('A' for Active; 'I' for Inactive)
REMARK    1  A    between atoms: C_2  and  O_3 
REMARK    2  A    between atoms: O_3  and  C_4 
REMARK    3  A    between atoms: C_4  and  C_5 
REMARK    4  A    between atoms: C_6  and  C_8 
REMARK    5  A    between atoms: C_6  and  O_7 
REMARK    6  A    between atoms: C_16  and  C_17 
REMARK    7  A    between atoms: C_18  and  C_19 
REMARK    8  A    between atoms: N_26  and  C_27 
ROOT
HETATM    1  C   UNL     1     -41.414  57.180 -52.350  1.00  0.00     0.177 C 
HETATM    2  C   UNL     1     -41.694  57.408 -50.843  1.00  0.00     0.250 C 
HETATM    3  N   UNL     1     -43.050  57.889 -50.684  1.00  0.00    -0.303 N 
HETATM    4  C   UNL     1     -44.098  57.342 -51.356  1.00  0.00     0.319 C 
HETATM    5  O   UNL     1     -45.251  57.534 -51.000  1.00  0.00    -0.247 OA
HETATM    6  N   UNL     1     -43.798  56.620 -52.467  1.00  0.00    -0.333 N 
HETATM    7  C   UNL     1     -42.467  56.192 -52.854  1.00  0.00     0.142 C 
HETATM    8  H   UNL     1     -43.297  58.334 -49.808  1.00  0.00     0.167 HD
HETATM    9  H   UNL     1     -44.611  56.194 -52.899  1.00  0.00     0.165 HD
ENDROOT
BRANCH   7  10
HETATM   10  C   UNL     1     -42.427  55.781 -54.304  1.00  0.00     0.015 A 
HETATM   11  C   UNL     1     -41.819  54.611 -54.871  1.00  0.00     0.097 A 
HETATM   12  N   UNL     1     -42.001  54.559 -56.196  1.00  0.00    -0.167 NA
HETATM   13  N   UNL     1     -42.677  55.679 -56.523  1.00  0.00    -0.244 N 
HETATM   14  C   UNL     1     -42.902  56.462 -55.412  1.00  0.00     0.130 A 
BRANCH  11  15
HETATM   15  C   UNL     1     -41.092  53.533 -54.201  1.00  0.00    -0.005 A 
HETATM   16  C   UNL     1     -40.775  52.365 -54.909  1.00  0.00     0.014 A 
HETATM   17  C   UNL     1     -40.093  51.319 -54.283  1.00  0.00     0.001 A 
HETATM   18  C   UNL     1     -39.720  51.433 -52.945  1.00  0.00     0.000 A 
HETATM   19  C   UNL     1     -40.017  52.596 -52.237  1.00  0.00     0.001 A 
HETATM   20  C   UNL     1     -40.693  53.646 -52.863  1.00  0.00     0.014 A 
ENDBRANCH  11  15
BRANCH  13  21
HETATM   21  C   UNL     1     -43.061  55.931 -57.870  1.00  0.00     0.058 A 
HETATM   22  C   UNL     1     -43.758  54.942 -58.582  1.00  0.00     0.031 A 
HETATM   23  C   UNL     1     -44.153  55.166 -59.902  1.00  0.00     0.002 A 
HETATM   24  C   UNL     1     -43.858  56.379 -60.520  1.00  0.00     0.000 A 
HETATM   25  C   UNL     1     -43.169  57.368 -59.821  1.00  0.00     0.002 A 
HETATM   26  C   UNL     1     -42.768  57.150 -58.500  1.00  0.00     0.031 A 
ENDBRANCH  13  21
ENDBRANCH   7  10
BRANCH   1  27
HETATM   27  C   UNL     1     -41.397  58.535 -53.033  1.00  0.00     0.270 C 
HETATM   28  O   UNL     1     -40.338  59.089 -53.318  1.00  0.00    -0.265 OA
BRANCH  27  29
HETATM   29  O   UNL     1     -42.614  59.085 -53.245  1.00  0.00    -0.321 OA
BRANCH  29  30
HETATM   30  C   UNL     1     -42.665  60.515 -53.377  1.00  0.00     0.174 C 
HETATM   31  C   UNL     1     -43.000  61.159 -52.045  1.00  0.00     0.034 C 
ENDBRANCH  29  30
ENDBRANCH  27  29
ENDBRANCH   1  27
BRANCH   2  32
HETATM   32  C   UNL     1     -41.435  56.087 -50.013  1.00  0.00     0.439 C 
HETATM   33  F   UNL     1     -40.283  55.489 -50.404  1.00  0.00    -0.166 F 
HETATM   34  F   UNL     1     -41.334  56.344 -48.686  1.00  0.00    -0.166 F 
HETATM   35  F   UNL     1     -42.420  55.172 -50.151  1.00  0.00    -0.166 F 
ENDBRANCH   2  32
BRANCH   2  36
HETATM   36  O   UNL     1     -40.867  58.432 -50.270  1.00  0.00    -0.363 OA
HETATM   37  H   UNL     1     -40.068  58.029 -49.877  1.00  0.00     0.213 HD
ENDBRANCH   2  36
TORSDOF 8
ENDMDL
MODEL 2
REMARK VINA RESULT:      -8.8      1.841      2.404
REMARK  8 active torsions:
REMARK  status: ('A' for Active; 'I' for Inactive)
REMARK    1  A    between atoms: C_2  and  O_3 
REMARK    2  A    between atoms: O_3  and  C_4 
REMARK    3  A    between atoms: C_4  and  C_5 
REMARK    4  A    between atoms: C_6  and  C_8 
REMARK    5  A    between atoms: C_6  and  O_7 
REMARK    6  A    between atoms: C_16  and  C_17 
REMARK    7  A    between atoms: C_18  and  C_19 
REMARK    8  A    between atoms: N_26  and  C_27 
ROOT
HETATM    1  C   UNL     1     -42.597  56.604 -52.328  1.00  0.00     0.177 C 
HETATM    2  C   UNL     1     -42.993  56.439 -50.839  1.00  0.00     0.250 C 
HETATM    3  N   UNL     1     -43.987  57.436 -50.503  1.00  0.00    -0.303 N 
HETATM    4  C   UNL     1     -45.039  57.716 -51.317  1.00  0.00     0.319 C 
HETATM    5  O   UNL     1     -46.021  58.315 -50.906  1.00  0.00    -0.247 OA
HETATM    6  N   UNL     1     -44.918  57.341 -52.618  1.00  0.00    -0.333 N 
HETATM    7  C   UNL     1     -43.882  56.473 -53.148  1.00  0.00     0.142 C 
HETATM    8  H   UNL     1     -44.149  57.635 -49.523  1.00  0.00     0.167 HD
HETATM    9  H   UNL     1     -45.750  57.528 -53.168  1.00  0.00     0.165 HD
ENDROOT
BRANCH   7  10
HETATM   10  C   UNL     1     -43.790  56.588 -54.648  1.00  0.00     0.015 A 
HETATM   11  C   UNL     1     -42.953  55.836 -55.538  1.00  0.00     0.097 A 
HETATM   12  N   UNL     1     -43.153  56.189 -56.813  1.00  0.00    -0.167 NA
HETATM   13  N   UNL     1     -44.068  57.179 -56.786  1.00  0.00    -0.244 N 
HETATM   14  C   UNL     1     -44.433  57.478 -55.490  1.00  0.00     0.130 A 
BRANCH  11  15
HETATM   15  C   UNL     1     -41.988  54.781 -55.226  1.00  0.00    -0.005 A 
HETATM   16  C   UNL     1     -42.445  53.511 -54.849  1.00  0.00     0.014 A 
HETATM   17  C   UNL     1     -41.540  52.495 -54.535  1.00  0.00     0.001 A 
HETATM   18  C   UNL     1     -40.169  52.740 -54.598  1.00  0.00     0.000 A 
HETATM   19  C   UNL     1     -39.704  53.994 -54.987  1.00  0.00     0.001 A 
HETATM   20  C   UNL     1     -40.608  55.010 -55.308  1.00  0.00     0.014 A 
ENDBRANCH  11  15
BRANCH  13  21
HETATM   21  C   UNL     1     -44.534  57.775 -57.991  1.00  0.00     0.058 A 
HETATM   22  C   UNL     1     -43.608  58.120 -58.989  1.00  0.00     0.031 A 
HETATM   23  C   UNL     1     -44.039  58.699 -60.184  1.00  0.00     0.002 A 
HETATM   24  C   UNL     1     -45.396  58.936 -60.393  1.00  0.00     0.000 A 
HETATM   25  C   UNL     1     -46.323  58.595 -59.409  1.00  0.00     0.002 A 
HETATM   26  C   UNL     1     -45.898  58.017 -58.209  1.00  0.00     0.031 A 
ENDBRANCH  13  21
ENDBRANCH   7  10
BRANCH   1  27
HETATM   27  C   UNL     1     -41.852  57.919 -52.472  1.00  0.00     0.270 C 
HETATM   28  O   UNL     1     -42.417  58.926 -52.892  1.00  0.00    -0.265 OA
BRANCH  27  29
HETATM   29  O   UNL     1     -40.538  57.870 -52.155  1.00  0.00    -0.321 OA
BRANCH  29  30
HETATM   30  C   UNL     1     -39.879  59.128 -51.935  1.00  0.00     0.174 C 
HETATM   31  C   UNL     1     -39.959  59.519 -50.471  1.00  0.00     0.034 C 
ENDBRANCH  29  30
ENDBRANCH  27  29
ENDBRANCH   1  27
BRANCH   2  32
HETATM   32  C   UNL     1     -43.506  54.972 -50.548  1.00  0.00     0.439 C 
HETATM   33  F   UNL     1     -43.434  54.206 -51.665  1.00  0.00    -0.166 F 
HETATM   34  F   UNL     1     -42.769  54.367 -49.587  1.00  0.00    -0.166 F 
HETATM   35  F   UNL     1     -44.790  54.933 -50.127  1.00  0.00    -0.166 F 
ENDBRANCH   2  32
BRANCH   2  36
HETATM   36  O   UNL     1     -41.900  56.687 -49.941  1.00  0.00    -0.363 OA
HETATM   37  H   UNL     1     -42.244  57.009 -49.085  1.00  0.00     0.213 HD
ENDBRANCH   2  36
TORSDOF 8
ENDMDL
MODEL 3
REMARK VINA RESULT:      -8.7      2.286      5.768
REMARK  8 active torsions:
REMARK  status: ('A' for Active; 'I' for Inactive)
REMARK    1  A    between atoms: C_2  and  O_3 
REMARK    2  A    between atoms: O_3  and  C_4 
REMARK    3  A    between atoms: C_4  and  C_5 
REMARK    4  A    between atoms: C_6  and  C_8 
REMARK    5  A    between atoms: C_6  and  O_7 
REMARK    6  A    between atoms: C_16  and  C_17 
REMARK    7  A    between atoms: C_18  and  C_19 
REMARK    8  A    between atoms: N_26  and  C_27 
ROOT
HETATM    1  C   UNL     1     -43.621  56.537 -51.840  1.00  0.00     0.177 C 
HETATM    2  C   UNL     1     -43.921  57.990 -51.393  1.00  0.00     0.250 C 
HETATM    3  N   UNL     1     -42.736  58.547 -50.776  1.00  0.00    -0.303 N 
HETATM    4  C   UNL     1     -41.496  58.386 -51.311  1.00  0.00     0.319 C 
HETATM    5  O   UNL     1     -40.560  59.096 -50.972  1.00  0.00    -0.247 OA
HETATM    6  N   UNL     1     -41.342  57.367 -52.196  1.00  0.00    -0.333 N 
HETATM    7  C   UNL     1     -42.422  56.601 -52.788  1.00  0.00     0.142 C 
HETATM    8  H   UNL     1     -42.842  59.373 -50.200  1.00  0.00     0.167 HD
HETATM    9  H   UNL     1     -40.413  57.326 -52.601  1.00  0.00     0.165 HD
ENDROOT
BRANCH   7  10
HETATM   10  C   UNL     1     -41.914  55.315 -53.387  1.00  0.00     0.015 A 
HETATM   11  C   UNL     1     -41.875  54.944 -54.773  1.00  0.00     0.097 A 
HETATM   12  N   UNL     1     -41.334  53.732 -54.940  1.00  0.00    -0.167 NA
HETATM   13  N   UNL     1     -41.051  53.276 -53.702  1.00  0.00    -0.244 N 
HETATM   14  C   UNL     1     -41.438  54.186 -52.742  1.00  0.00     0.130 A 
BRANCH  11  15
HETATM   15  C   UNL     1     -42.312  55.704 -55.944  1.00  0.00    -0.005 A 
HETATM   16  C   UNL     1     -42.895  55.035 -57.028  1.00  0.00     0.014 A 
HETATM   17  C   UNL     1     -43.307  55.742 -58.160  1.00  0.00     0.001 A 
HETATM   18  C   UNL     1     -43.141  57.125 -58.216  1.00  0.00     0.000 A 
HETATM   19  C   UNL     1     -42.576  57.802 -57.137  1.00  0.00     0.001 A 
HETATM   20  C   UNL     1     -42.170  57.097 -56.002  1.00  0.00     0.014 A 
ENDBRANCH  11  15
BRANCH  13  21
HETATM   21  C   UNL     1     -40.433  52.008 -53.515  1.00  0.00     0.058 A 
HETATM   22  C   UNL     1     -40.343  51.122 -54.600  1.00  0.00     0.031 A 
HETATM   23  C   UNL     1     -39.736  49.874 -54.446  1.00  0.00     0.002 A 
HETATM   24  C   UNL     1     -39.213  49.503 -53.209  1.00  0.00     0.000 A 
HETATM   25  C   UNL     1     -39.296  50.377 -52.126  1.00  0.00     0.002 A 
HETATM   26  C   UNL     1     -39.904  51.627 -52.273  1.00  0.00     0.031 A 
ENDBRANCH  13  21
ENDBRANCH   7  10
BRANCH   1  27
HETATM   27  C   UNL     1     -43.434  55.692 -50.593  1.00  0.00     0.270 C 
HETATM   28  O   UNL     1     -44.330  54.958 -50.183  1.00  0.00    -0.265 OA
BRANCH  27  29
HETATM   29  O   UNL     1     -42.249  55.857 -49.962  1.00  0.00    -0.321 OA
BRANCH  29  30
HETATM   30  C   UNL     1     -41.648  54.680 -49.398  1.00  0.00     0.174 C 
HETATM   31  C   UNL     1     -40.136  54.758 -49.497  1.00  0.00     0.034 C 
ENDBRANCH  29  30
ENDBRANCH  27  29
ENDBRANCH   1  27
BRANCH   2  32
HETATM   32  C   UNL     1     -44.420  58.866 -52.611  1.00  0.00     0.439 C 
HETATM   33  F   UNL     1     -45.037  58.095 -53.540  1.00  0.00    -0.166 F 
HETATM   34  F   UNL     1     -45.300  59.816 -52.215  1.00  0.00    -0.166 F 
HETATM   35  F   UNL     1     -43.416  59.515 -53.243  1.00  0.00    -0.166 F 
ENDBRANCH   2  32
BRANCH   2  36
HETATM   36  O   UNL     1     -44.936  58.064 -50.380  1.00  0.00    -0.363 OA
HETATM   37  H   UNL     1     -45.692  57.496 -50.629  1.00  0.00     0.213 HD
ENDBRANCH   2  36
TORSDOF 8
ENDMDL
MODEL 4
REMARK VINA RESULT:      -8.5      1.323      1.665
REMARK  8 active torsions:
REMARK  status: ('A' for Active; 'I' for Inactive)
REMARK    1  A    between atoms: C_2  and  O_3 
REMARK    2  A    between atoms: O_3  and  C_4 
REMARK    3  A    between atoms: C_4  and  C_5 
REMARK    4  A    between atoms: C_6  and  C_8 
REMARK    5  A    between atoms: C_6  and  O_7 
REMARK    6  A    between atoms: C_16  and  C_17 
REMARK    7  A    between atoms: C_18  and  C_19 
REMARK    8  A    between atoms: N_26  and  C_27 
ROOT
HETATM    1  C   UNL     1     -42.199  58.480 -52.967  1.00  0.00     0.177 C 
HETATM    2  C   UNL     1     -42.307  58.859 -51.468  1.00  0.00     0.250 C 
HETATM    3  N   UNL     1     -43.669  58.649 -51.026  1.00  0.00    -0.303 N 
HETATM    4  C   UNL     1     -44.378  57.538 -51.359  1.00  0.00     0.319 C 
HETATM    5  O   UNL     1     -45.388  57.221 -50.749  1.00  0.00    -0.247 OA
HETATM    6  N   UNL     1     -43.933  56.832 -52.432  1.00  0.00    -0.333 N 
HETATM    7  C   UNL     1     -42.657  57.026 -53.093  1.00  0.00     0.142 C 
HETATM    8  H   UNL     1     -43.964  59.095 -50.166  1.00  0.00     0.167 HD
HETATM    9  H   UNL     1     -44.467  55.986 -52.603  1.00  0.00     0.165 HD
ENDROOT
BRANCH   7  10
HETATM   10  C   UNL     1     -42.647  56.388 -54.458  1.00  0.00     0.015 A 
HETATM   11  C   UNL     1     -42.066  55.132 -54.839  1.00  0.00     0.097 A 
HETATM   12  N   UNL     1     -42.270  54.872 -56.135  1.00  0.00    -0.167 NA
HETATM   13  N   UNL     1     -42.936  55.936 -56.629  1.00  0.00    -0.244 N 
HETATM   14  C   UNL     1     -43.131  56.891 -55.654  1.00  0.00     0.130 A 
BRANCH  11  15
HETATM   15  C   UNL     1     -41.343  54.163 -54.016  1.00  0.00    -0.005 A 
HETATM   16  C   UNL     1     -40.635  53.121 -54.630  1.00  0.00     0.014 A 
HETATM   17  C   UNL     1     -39.949  52.178 -53.861  1.00  0.00     0.001 A 
HETATM   18  C   UNL     1     -39.963  52.271 -52.470  1.00  0.00     0.000 A 
HETATM   19  C   UNL     1     -40.651  53.312 -51.850  1.00  0.00     0.001 A 
HETATM   20  C   UNL     1     -41.332  54.260 -52.618  1.00  0.00     0.014 A 
ENDBRANCH  11  15
BRANCH  13  21
HETATM   21  C   UNL     1     -43.339  55.976 -57.993  1.00  0.00     0.058 A 
HETATM   22  C   UNL     1     -43.857  54.815 -58.590  1.00  0.00     0.031 A 
HETATM   23  C   UNL     1     -44.267  54.829 -59.924  1.00  0.00     0.002 A 
HETATM   24  C   UNL     1     -44.166  56.000 -60.671  1.00  0.00     0.000 A 
HETATM   25  C   UNL     1     -43.655  57.158 -60.087  1.00  0.00     0.002 A 
HETATM   26  C   UNL     1     -43.240  57.151 -58.752  1.00  0.00     0.031 A 
ENDBRANCH  13  21
ENDBRANCH   7  10
BRANCH   1  27
HETATM   27  C   UNL     1     -42.996  59.496 -53.765  1.00  0.00     0.270 C 
HETATM   28  O   UNL     1     -44.224  59.465 -53.785  1.00  0.00    -0.265 OA
BRANCH  27  29
HETATM   29  O   UNL     1     -42.255  60.377 -54.473  1.00  0.00    -0.321 OA
BRANCH  29  30
HETATM   30  C   UNL     1     -42.835  60.883 -55.686  1.00  0.00     0.174 C 
HETATM   31  C   UNL     1     -42.105  60.327 -56.895  1.00  0.00     0.034 C 
ENDBRANCH  29  30
ENDBRANCH  27  29
ENDBRANCH   1  27
BRANCH   2  32
HETATM   32  C   UNL     1     -41.272  58.037 -50.600  1.00  0.00     0.439 C 
HETATM   33  F   UNL     1     -40.183  57.703 -51.336  1.00  0.00    -0.166 F 
HETATM   34  F   UNL     1     -40.843  58.747 -49.529  1.00  0.00    -0.166 F 
HETATM   35  F   UNL     1     -41.785  56.884 -50.113  1.00  0.00    -0.166 F 
ENDBRANCH   2  32
BRANCH   2  36
HETATM   36  O   UNL     1     -42.047  60.250 -51.224  1.00  0.00    -0.363 OA
HETATM   37  H   UNL     1     -41.086  60.421 -51.284  1.00  0.00     0.213 HD
ENDBRANCH   2  36
TORSDOF 8
ENDMDL
MODEL 5
REMARK VINA RESULT:      -8.2      1.725      2.277
REMARK  8 active torsions:
REMARK  status: ('A' for Active; 'I' for Inactive)
REMARK    1  A    between atoms: C_2  and  O_3 
REMARK    2  A    between atoms: O_3  and  C_4 
REMARK    3  A    between atoms: C_4  and  C_5 
REMARK    4  A    between atoms: C_6  and  C_8 
REMARK    5  A    between atoms: C_6  and  O_7 
REMARK    6  A    between atoms: C_16  and  C_17 
REMARK    7  A    between atoms: C_18  and  C_19 
REMARK    8  A    between atoms: N_26  and  C_27 
ROOT
HETATM    1  C   UNL     1     -42.422  57.858 -52.593  1.00  0.00     0.177 C 
HETATM    2  C   UNL     1     -42.525  57.765 -51.049  1.00  0.00     0.250 C 
HETATM    3  N   UNL     1     -43.830  58.236 -50.636  1.00  0.00    -0.303 N 
HETATM    4  C   UNL     1     -44.971  57.874 -51.281  1.00  0.00     0.319 C 
HETATM    5  O   UNL     1     -46.068  58.015 -50.762  1.00  0.00    -0.247 OA
HETATM    6  N   UNL     1     -44.830  57.398 -52.546  1.00  0.00    -0.333 N 
HETATM    7  C   UNL     1     -43.572  57.029 -53.167  1.00  0.00     0.142 C 
HETATM    8  H   UNL     1     -43.959  58.490 -49.664  1.00  0.00     0.167 HD
HETATM    9  H   UNL     1     -45.705  57.096 -52.960  1.00  0.00     0.165 HD
ENDROOT
BRANCH   7  10
HETATM   10  C   UNL     1     -43.710  56.937 -54.666  1.00  0.00     0.015 A 
HETATM   11  C   UNL     1     -43.055  56.021 -55.555  1.00  0.00     0.097 A 
HETATM   12  N   UNL     1     -43.436  56.215 -56.823  1.00  0.00    -0.167 NA
HETATM   13  N   UNL     1     -44.292  57.256 -56.800  1.00  0.00    -0.244 N 
HETATM   14  C   UNL     1     -44.437  57.747 -55.520  1.00  0.00     0.130 A 
BRANCH  11  15
HETATM   15  C   UNL     1     -42.099  54.958 -55.245  1.00  0.00    -0.005 A 
HETATM   16  C   UNL     1     -42.568  53.699 -54.846  1.00  0.00     0.014 A 
HETATM   17  C   UNL     1     -41.671  52.675 -54.533  1.00  0.00     0.001 A 
HETATM   18  C   UNL     1     -40.298  52.900 -54.619  1.00  0.00     0.000 A 
HETATM   19  C   UNL     1     -39.822  54.144 -55.030  1.00  0.00     0.001 A 
HETATM   20  C   UNL     1     -40.718  55.167 -55.350  1.00  0.00     0.014 A 
ENDBRANCH  11  15
BRANCH  13  21
HETATM   21  C   UNL     1     -44.914  57.715 -57.995  1.00  0.00     0.058 A 
HETATM   22  C   UNL     1     -44.128  57.941 -59.136  1.00  0.00     0.031 A 
HETATM   23  C   UNL     1     -44.714  58.385 -60.323  1.00  0.00     0.002 A 
HETATM   24  C   UNL     1     -46.089  58.604 -60.380  1.00  0.00     0.000 A 
HETATM   25  C   UNL     1     -46.878  58.381 -59.253  1.00  0.00     0.002 A 
HETATM   26  C   UNL     1     -46.298  57.939 -58.061  1.00  0.00     0.031 A 
ENDBRANCH  13  21
ENDBRANCH   7  10
BRANCH   1  27
HETATM   27  C   UNL     1     -42.411  59.327 -52.974  1.00  0.00     0.270 C 
HETATM   28  O   UNL     1     -43.076  60.150 -52.348  1.00  0.00    -0.265 OA
BRANCH  27  29
HETATM   29  O   UNL     1     -41.669  59.632 -54.062  1.00  0.00    -0.321 OA
BRANCH  29  30
HETATM   30  C   UNL     1     -42.239  60.567 -54.993  1.00  0.00     0.174 C 
HETATM   31  C   UNL     1     -41.997  60.109 -56.419  1.00  0.00     0.034 C 
ENDBRANCH  29  30
ENDBRANCH  27  29
ENDBRANCH   1  27
BRANCH   2  32
HETATM   32  C   UNL     1     -42.245  56.291 -50.550  1.00  0.00     0.439 C 
HETATM   33  F   UNL     1     -41.557  55.588 -51.484  1.00  0.00    -0.166 F 
HETATM   34  F   UNL     1     -41.515  56.281 -49.409  1.00  0.00    -0.166 F 
HETATM   35  F   UNL     1     -43.374  55.596 -50.288  1.00  0.00    -0.166 F 
ENDBRANCH   2  32
BRANCH   2  36
HETATM   36  O   UNL     1     -41.591  58.621 -50.375  1.00  0.00    -0.363 OA
HETATM   37  H   UNL     1     -42.073  59.333 -49.909  1.00  0.00     0.213 HD
ENDBRANCH   2  36
TORSDOF 8
ENDMDL
MODEL 6
REMARK VINA RESULT:      -8.2      4.596      7.980
REMARK  8 active torsions:
REMARK  status: ('A' for Active; 'I' for Inactive)
REMARK    1  A    between atoms: C_2  and  O_3 
REMARK    2  A    between atoms: O_3  and  C_4 
REMARK    3  A    between atoms: C_4  and  C_5 
REMARK    4  A    between atoms: C_6  and  C_8 
REMARK    5  A    between atoms: C_6  and  O_7 
REMARK    6  A    between atoms: C_16  and  C_17 
REMARK    7  A    between atoms: C_18  and  C_19 
REMARK    8  A    between atoms: N_26  and  C_27 
ROOT
HETATM    1  C   UNL     1     -43.824  58.018 -58.802  1.00  0.00     0.177 C 
HETATM    2  C   UNL     1     -44.752  58.074 -60.042  1.00  0.00     0.250 C 
HETATM    3  N   UNL     1     -44.536  56.890 -60.845  1.00  0.00    -0.303 N 
HETATM    4  C   UNL     1     -44.433  55.649 -60.298  1.00  0.00     0.319 C 
HETATM    5  O   UNL     1     -44.558  54.641 -60.977  1.00  0.00    -0.247 OA
HETATM    6  N   UNL     1     -44.133  55.592 -58.974  1.00  0.00    -0.333 N 
HETATM    7  C   UNL     1     -44.148  56.720 -58.061  1.00  0.00     0.142 C 
HETATM    8  H   UNL     1     -44.858  56.900 -61.806  1.00  0.00     0.167 HD
HETATM    9  H   UNL     1     -44.119  54.646 -58.607  1.00  0.00     0.165 HD
ENDROOT
BRANCH   7  10
HETATM   10  C   UNL     1     -43.389  56.408 -56.797  1.00  0.00     0.015 A 
HETATM   11  C   UNL     1     -43.141  57.277 -55.682  1.00  0.00     0.097 A 
HETATM   12  N   UNL     1     -42.450  56.654 -54.721  1.00  0.00    -0.167 NA
HETATM   13  N   UNL     1     -42.202  55.412 -55.185  1.00  0.00    -0.244 N 
HETATM   14  C   UNL     1     -42.710  55.251 -56.456  1.00  0.00     0.130 A 
BRANCH  11  15
HETATM   15  C   UNL     1     -43.553  58.667 -55.487  1.00  0.00    -0.005 A 
HETATM   16  C   UNL     1     -44.911  58.973 -55.327  1.00  0.00     0.014 A 
HETATM   17  C   UNL     1     -45.325  60.296 -55.152  1.00  0.00     0.001 A 
HETATM   18  C   UNL     1     -44.384  61.323 -55.133  1.00  0.00     0.000 A 
HETATM   19  C   UNL     1     -43.030  61.029 -55.276  1.00  0.00     0.001 A 
HETATM   20  C   UNL     1     -42.613  59.706 -55.444  1.00  0.00     0.014 A 
ENDBRANCH  11  15
BRANCH  13  21
HETATM   21  C   UNL     1     -41.498  54.464 -54.391  1.00  0.00     0.058 A 
HETATM   22  C   UNL     1     -41.651  54.489 -52.996  1.00  0.00     0.031 A 
HETATM   23  C   UNL     1     -40.977  53.565 -52.194  1.00  0.00     0.002 A 
HETATM   24  C   UNL     1     -40.149  52.609 -52.779  1.00  0.00     0.000 A 
HETATM   25  C   UNL     1     -39.993  52.576 -54.164  1.00  0.00     0.002 A 
HETATM   26  C   UNL     1     -40.663  53.499 -54.973  1.00  0.00     0.031 A 
ENDBRANCH  13  21
ENDBRANCH   7  10
BRANCH   1  27
HETATM   27  C   UNL     1     -42.392  58.167 -59.282  1.00  0.00     0.270 C 
HETATM   28  O   UNL     1     -41.924  57.406 -60.126  1.00  0.00    -0.265 OA
BRANCH  27  29
HETATM   29  O   UNL     1     -41.684  59.147 -58.677  1.00  0.00    -0.321 OA
BRANCH  29  30
HETATM   30  C   UNL     1     -41.772  60.460 -59.255  1.00  0.00     0.174 C 
HETATM   31  C   UNL     1     -41.056  61.472 -58.382  1.00  0.00     0.034 C 
ENDBRANCH  29  30
ENDBRANCH  27  29
ENDBRANCH   1  27
BRANCH   2  32
HETATM   32  C   UNL     1     -46.266  58.225 -59.611  1.00  0.00     0.439 C 
HETATM   33  F   UNL     1     -46.366  58.851 -58.412  1.00  0.00    -0.166 F 
HETATM   34  F   UNL     1     -46.972  58.950 -60.512  1.00  0.00    -0.166 F 
HETATM   35  F   UNL     1     -46.904  57.040 -59.489  1.00  0.00    -0.166 F 
ENDBRANCH   2  32
BRANCH   2  36
HETATM   36  O   UNL     1     -44.453  59.174 -60.914  1.00  0.00    -0.363 OA
HETATM   37  H   UNL     1     -43.694  58.944 -61.486  1.00  0.00     0.213 HD
ENDBRANCH   2  36
TORSDOF 8
ENDMDL
MODEL 7
REMARK VINA RESULT:      -7.8      3.054      6.110
REMARK  8 active torsions:
REMARK  status: ('A' for Active; 'I' for Inactive)
REMARK    1  A    between atoms: C_2  and  O_3 
REMARK    2  A    between atoms: O_3  and  C_4 
REMARK    3  A    between atoms: C_4  and  C_5 
REMARK    4  A    between atoms: C_6  and  C_8 
REMARK    5  A    between atoms: C_6  and  O_7 
REMARK    6  A    between atoms: C_16  and  C_17 
REMARK    7  A    between atoms: C_18  and  C_19 
REMARK    8  A    between atoms: N_26  and  C_27 
ROOT
HETATM    1  C   UNL     1     -43.113  59.087 -54.128  1.00  0.00     0.177 C 
HETATM    2  C   UNL     1     -43.608  60.500 -54.532  1.00  0.00     0.250 C 
HETATM    3  N   UNL     1     -42.626  61.110 -55.403  1.00  0.00    -0.303 N 
HETATM    4  C   UNL     1     -42.033  60.429 -56.420  1.00  0.00     0.319 C 
HETATM    5  O   UNL     1     -41.453  61.012 -57.324  1.00  0.00    -0.247 OA
HETATM    6  N   UNL     1     -42.075  59.073 -56.349  1.00  0.00    -0.333 N 
HETATM    7  C   UNL     1     -42.888  58.306 -55.423  1.00  0.00     0.142 C 
HETATM    8  H   UNL     1     -42.666  62.114 -55.536  1.00  0.00     0.167 HD
HETATM    9  H   UNL     1     -41.663  58.617 -57.156  1.00  0.00     0.165 HD
ENDROOT
BRANCH   7  10
HETATM   10  C   UNL     1     -42.406  56.881 -55.326  1.00  0.00     0.015 A 
HETATM   11  C   UNL     1     -42.426  55.873 -56.347  1.00  0.00     0.097 A 
HETATM   12  N   UNL     1     -41.894  54.726 -55.912  1.00  0.00    -0.167 NA
HETATM   13  N   UNL     1     -41.559  54.935 -54.623  1.00  0.00    -0.244 N 
HETATM   14  C   UNL     1     -41.904  56.209 -54.225  1.00  0.00     0.130 A 
BRANCH  11  15
HETATM   15  C   UNL     1     -42.912  55.965 -57.724  1.00  0.00    -0.005 A 
HETATM   16  C   UNL     1     -43.760  54.970 -58.229  1.00  0.00     0.014 A 
HETATM   17  C   UNL     1     -44.223  55.033 -59.546  1.00  0.00     0.001 A 
HETATM   18  C   UNL     1     -43.844  56.094 -60.367  1.00  0.00     0.000 A 
HETATM   19  C   UNL     1     -43.014  57.097 -59.870  1.00  0.00     0.001 A 
HETATM   20  C   UNL     1     -42.555  57.038 -58.552  1.00  0.00     0.014 A 
ENDBRANCH  11  15
BRANCH  13  21
HETATM   21  C   UNL     1     -40.936  53.912 -53.855  1.00  0.00     0.058 A 
HETATM   22  C   UNL     1     -40.420  52.781 -54.509  1.00  0.00     0.031 A 
HETATM   23  C   UNL     1     -39.797  51.766 -53.780  1.00  0.00     0.002 A 
HETATM   24  C   UNL     1     -39.682  51.873 -52.396  1.00  0.00     0.000 A 
HETATM   25  C   UNL     1     -40.189  52.993 -51.739  1.00  0.00     0.002 A 
HETATM   26  C   UNL     1     -40.816  54.012 -52.461  1.00  0.00     0.031 A 
ENDBRANCH  13  21
ENDBRANCH   7  10
BRANCH   1  27
HETATM   27  C   UNL     1     -41.897  59.255 -53.236  1.00  0.00     0.270 C 
HETATM   28  O   UNL     1     -40.789  59.490 -53.712  1.00  0.00    -0.265 OA
BRANCH  27  29
HETATM   29  O   UNL     1     -42.125  59.076 -51.916  1.00  0.00    -0.321 OA
BRANCH  29  30
HETATM   30  C   UNL     1     -41.597  60.074 -51.026  1.00  0.00     0.174 C 
HETATM   31  C   UNL     1     -40.786  59.423 -49.922  1.00  0.00     0.034 C 
ENDBRANCH  29  30
ENDBRANCH  27  29
ENDBRANCH   1  27
BRANCH   2  32
HETATM   32  C   UNL     1     -45.034  60.427 -55.211  1.00  0.00     0.439 C 
HETATM   33  F   UNL     1     -45.883  61.324 -54.648  1.00  0.00    -0.166 F 
HETATM   34  F   UNL     1     -44.971  60.698 -56.537  1.00  0.00    -0.166 F 
HETATM   35  F   UNL     1     -45.616  59.212 -55.096  1.00  0.00    -0.166 F 
ENDBRANCH   2  32
BRANCH   2  36
HETATM   36  O   UNL     1     -43.720  61.393 -53.414  1.00  0.00    -0.363 OA
HETATM   37  H   UNL     1     -43.923  60.884 -52.605  1.00  0.00     0.213 HD
ENDBRANCH   2  36
TORSDOF 8
ENDMDL
MODEL 8
REMARK VINA RESULT:      -7.6      2.589      3.575
REMARK  8 active torsions:
REMARK  status: ('A' for Active; 'I' for Inactive)
REMARK    1  A    between atoms: C_2  and  O_3 
REMARK    2  A    between atoms: O_3  and  C_4 
REMARK    3  A    between atoms: C_4  and  C_5 
REMARK    4  A    between atoms: C_6  and  C_8 
REMARK    5  A    between atoms: C_6  and  O_7 
REMARK    6  A    between atoms: C_16  and  C_17 
REMARK    7  A    between atoms: C_18  and  C_19 
REMARK    8  A    between atoms: N_26  and  C_27 
ROOT
HETATM    1  C   UNL     1     -42.869  58.762 -52.947  1.00  0.00     0.177 C 
HETATM    2  C   UNL     1     -43.782  58.788 -51.695  1.00  0.00     0.250 C 
HETATM    3  N   UNL     1     -44.720  59.884 -51.819  1.00  0.00    -0.303 N 
HETATM    4  C   UNL     1     -45.378  60.148 -52.979  1.00  0.00     0.319 C 
HETATM    5  O   UNL     1     -46.373  60.857 -52.999  1.00  0.00    -0.247 OA
HETATM    6  N   UNL     1     -44.844  59.627 -54.114  1.00  0.00    -0.333 N 
HETATM    7  C   UNL     1     -43.786  58.635 -54.164  1.00  0.00     0.142 C 
HETATM    8  H   UNL     1     -45.196  60.200 -50.983  1.00  0.00     0.167 HD
HETATM    9  H   UNL     1     -45.402  59.811 -54.941  1.00  0.00     0.165 HD
ENDROOT
BRANCH   7  10
HETATM   10  C   UNL     1     -43.156  58.578 -55.533  1.00  0.00     0.015 A 
HETATM   11  C   UNL     1     -42.472  57.474 -56.142  1.00  0.00     0.097 A 
HETATM   12  N   UNL     1     -42.061  57.775 -57.379  1.00  0.00    -0.167 NA
HETATM   13  N   UNL     1     -42.421  59.058 -57.589  1.00  0.00    -0.244 N 
HETATM   14  C   UNL     1     -43.036  59.586 -56.474  1.00  0.00     0.130 A 
BRANCH  11  15
HETATM   15  C   UNL     1     -42.212  56.139 -55.602  1.00  0.00    -0.005 A 
HETATM   16  C   UNL     1     -43.137  55.110 -55.820  1.00  0.00     0.014 A 
HETATM   17  C   UNL     1     -42.913  53.832 -55.302  1.00  0.00     0.001 A 
HETATM   18  C   UNL     1     -41.760  53.572 -54.564  1.00  0.00     0.000 A 
HETATM   19  C   UNL     1     -40.826  54.584 -54.354  1.00  0.00     0.001 A 
HETATM   20  C   UNL     1     -41.045  55.861 -54.877  1.00  0.00     0.014 A 
ENDBRANCH  11  15
BRANCH  13  21
HETATM   21  C   UNL     1     -42.155  59.695 -58.833  1.00  0.00     0.058 A 
HETATM   22  C   UNL     1     -42.217  58.944 -60.017  1.00  0.00     0.031 A 
HETATM   23  C   UNL     1     -41.967  59.547 -61.251  1.00  0.00     0.002 A 
HETATM   24  C   UNL     1     -41.657  60.903 -61.313  1.00  0.00     0.000 A 
HETATM   25  C   UNL     1     -41.595  61.658 -60.143  1.00  0.00     0.002 A 
HETATM   26  C   UNL     1     -41.841  61.061 -58.903  1.00  0.00     0.031 A 
ENDBRANCH  13  21
ENDBRANCH   7  10
BRANCH   1  27
HETATM   27  C   UNL     1     -41.986  59.996 -52.909  1.00  0.00     0.270 C 
HETATM   28  O   UNL     1     -42.472  61.120 -52.801  1.00  0.00    -0.265 OA
BRANCH  27  29
HETATM   29  O   UNL     1     -40.663  59.759 -53.053  1.00  0.00    -0.321 OA
BRANCH  29  30
HETATM   30  C   UNL     1     -40.104  58.705 -52.253  1.00  0.00     0.174 C 
HETATM   31  C   UNL     1     -39.542  59.263 -50.959  1.00  0.00     0.034 C 
ENDBRANCH  29  30
ENDBRANCH  27  29
ENDBRANCH   1  27
BRANCH   2  32
HETATM   32  C   UNL     1     -44.517  57.402 -51.500  1.00  0.00     0.439 C 
HETATM   33  F   UNL     1     -44.402  56.634 -52.612  1.00  0.00    -0.166 F 
HETATM   34  F   UNL     1     -43.997  56.703 -50.463  1.00  0.00    -0.166 F 
HETATM   35  F   UNL     1     -45.839  57.533 -51.249  1.00  0.00    -0.166 F 
ENDBRANCH   2  32
BRANCH   2  36
HETATM   36  O   UNL     1     -43.059  59.054 -50.483  1.00  0.00    -0.363 OA
HETATM   37  H   UNL     1     -42.276  58.471 -50.432  1.00  0.00     0.213 HD
ENDBRANCH   2  36
TORSDOF 8
ENDMDL
MODEL 9
REMARK VINA RESULT:      -7.6     15.904     18.089
REMARK  8 active torsions:
REMARK  status: ('A' for Active; 'I' for Inactive)
REMARK    1  A    between atoms: C_2  and  O_3 
REMARK    2  A    between atoms: O_3  and  C_4 
REMARK    3  A    between atoms: C_4  and  C_5 
REMARK    4  A    between atoms: C_6  and  C_8 
REMARK    5  A    between atoms: C_6  and  O_7 
REMARK    6  A    between atoms: C_16  and  C_17 
REMARK    7  A    between atoms: C_18  and  C_19 
REMARK    8  A    between atoms: N_26  and  C_27 
ROOT
HETATM    1  C   UNL     1     -34.683  41.085 -53.245  1.00  0.00     0.177 C 
HETATM    2  C   UNL     1     -34.410  41.215 -51.725  1.00  0.00     0.250 C 
HETATM    3  N   UNL     1     -35.582  40.776 -50.997  1.00  0.00    -0.303 N 
HETATM    4  C   UNL     1     -36.265  39.649 -51.333  1.00  0.00     0.319 C 
HETATM    5  O   UNL     1     -37.044  39.122 -50.553  1.00  0.00    -0.247 OA
HETATM    6  N   UNL     1     -36.074  39.174 -52.591  1.00  0.00    -0.333 N 
HETATM    7  C   UNL     1     -35.043  39.621 -53.509  1.00  0.00     0.142 C 
HETATM    8  H   UNL     1     -35.667  41.046 -50.025  1.00  0.00     0.167 HD
HETATM    9  H   UNL     1     -36.566  38.305 -52.770  1.00  0.00     0.165 HD
ENDROOT
BRANCH   7  10
HETATM   10  C   UNL     1     -35.353  39.204 -54.923  1.00  0.00     0.015 A 
HETATM   11  C   UNL     1     -34.426  38.889 -55.972  1.00  0.00     0.097 A 
HETATM   12  N   UNL     1     -35.060  38.534 -57.095  1.00  0.00    -0.167 NA
HETATM   13  N   UNL     1     -36.378  38.643 -56.830  1.00  0.00    -0.244 N 
HETATM   14  C   UNL     1     -36.586  39.096 -55.545  1.00  0.00     0.130 A 
BRANCH  11  15
HETATM   15  C   UNL     1     -32.964  38.892 -55.942  1.00  0.00    -0.005 A 
HETATM   16  C   UNL     1     -32.283  37.919 -55.197  1.00  0.00     0.014 A 
HETATM   17  C   UNL     1     -30.887  37.913 -55.145  1.00  0.00     0.001 A 
HETATM   18  C   UNL     1     -30.160  38.878 -55.840  1.00  0.00     0.000 A 
HETATM   19  C   UNL     1     -30.827  39.840 -56.596  1.00  0.00     0.001 A 
HETATM   20  C   UNL     1     -32.222  39.844 -56.654  1.00  0.00     0.014 A 
ENDBRANCH  11  15
BRANCH  13  21
HETATM   21  C   UNL     1     -37.351  38.312 -57.815  1.00  0.00     0.058 A 
HETATM   22  C   UNL     1     -37.865  37.007 -57.859  1.00  0.00     0.031 A 
HETATM   23  C   UNL     1     -38.826  36.658 -58.811  1.00  0.00     0.002 A 
HETATM   24  C   UNL     1     -39.280  37.608 -59.723  1.00  0.00     0.000 A 
HETATM   25  C   UNL     1     -38.776  38.907 -59.684  1.00  0.00     0.002 A 
HETATM   26  C   UNL     1     -37.813  39.263 -58.736  1.00  0.00     0.031 A 
ENDBRANCH  13  21
ENDBRANCH   7  10
BRANCH   1  27
HETATM   27  C   UNL     1     -35.743  42.104 -53.620  1.00  0.00     0.270 C 
HETATM   28  O   UNL     1     -36.725  42.290 -52.905  1.00  0.00    -0.265 OA
BRANCH  27  29
HETATM   29  O   UNL     1     -35.543  42.731 -54.801  1.00  0.00    -0.321 OA
BRANCH  29  30
HETATM   30  C   UNL     1     -36.477  42.441 -55.854  1.00  0.00     0.174 C 
HETATM   31  C   UNL     1     -35.747  42.242 -57.169  1.00  0.00     0.034 C 
ENDBRANCH  29  30
ENDBRANCH  27  29
ENDBRANCH   1  27
BRANCH   2  32
HETATM   32  C   UNL     1     -33.118  40.404 -51.310  1.00  0.00     0.439 C 
HETATM   33  F   UNL     1     -31.994  41.041 -51.723  1.00  0.00    -0.166 F 
HETATM   34  F   UNL     1     -33.035  40.253 -49.966  1.00  0.00    -0.166 F 
HETATM   35  F   UNL     1     -33.081  39.160 -51.837  1.00  0.00    -0.166 F 
ENDBRANCH   2  32
BRANCH   2  36
HETATM   36  O   UNL     1     -34.203  42.574 -51.311  1.00  0.00    -0.363 OA
HETATM   37  H   UNL     1     -33.899  42.592 -50.382  1.00  0.00     0.213 HD
ENDBRANCH   2  36
TORSDOF 8
ENDMDL
MODEL 10
REMARK VINA RESULT:      -7.6      2.678      3.684
REMARK  8 active torsions:
REMARK  status: ('A' for Active; 'I' for Inactive)
REMARK    1  A    between atoms: C_2  and  O_3 
REMARK    2  A    between atoms: O_3  and  C_4 
REMARK    3  A    between atoms: C_4  and  C_5 
REMARK    4  A    between atoms: C_6  and  C_8 
REMARK    5  A    between atoms: C_6  and  O_7 
REMARK    6  A    between atoms: C_16  and  C_17 
REMARK    7  A    between atoms: C_18  and  C_19 
REMARK    8  A    between atoms: N_26  and  C_27 
ROOT
HETATM    1  C   UNL     1     -43.652  59.406 -52.070  1.00  0.00     0.177 C 
HETATM    2  C   UNL     1     -44.595  60.159 -51.097  1.00  0.00     0.250 C 
HETATM    3  N   UNL     1     -45.330  61.163 -51.837  1.00  0.00    -0.303 N 
HETATM    4  C   UNL     1     -45.890  60.908 -53.049  1.00  0.00     0.319 C 
HETATM    5  O   UNL     1     -46.750  61.638 -53.519  1.00  0.00    -0.247 OA
HETATM    6  N   UNL     1     -45.408  59.834 -53.728  1.00  0.00    -0.333 N 
HETATM    7  C   UNL     1     -44.531  58.818 -53.176  1.00  0.00     0.142 C 
HETATM    8  H   UNL     1     -45.778  61.906 -51.314  1.00  0.00     0.167 HD
HETATM    9  H   UNL     1     -45.895  59.661 -54.601  1.00  0.00     0.165 HD
ENDROOT
BRANCH   7  10
HETATM   10  C   UNL     1     -43.868  58.019 -54.269  1.00  0.00     0.015 A 
HETATM   11  C   UNL     1     -43.172  56.770 -54.148  1.00  0.00     0.097 A 
HETATM   12  N   UNL     1     -42.731  56.339 -55.334  1.00  0.00    -0.167 NA
HETATM   13  N   UNL     1     -43.081  57.286 -56.229  1.00  0.00    -0.244 N 
HETATM   14  C   UNL     1     -43.721  58.337 -55.608  1.00  0.00     0.130 A 
BRANCH  11  15
HETATM   15  C   UNL     1     -42.930  55.962 -52.953  1.00  0.00    -0.005 A 
HETATM   16  C   UNL     1     -42.163  56.487 -51.903  1.00  0.00     0.014 A 
HETATM   17  C   UNL     1     -41.910  55.725 -50.760  1.00  0.00     0.001 A 
HETATM   18  C   UNL     1     -42.423  54.434 -50.655  1.00  0.00     0.000 A 
HETATM   19  C   UNL     1     -43.199  53.908 -51.686  1.00  0.00     0.001 A 
HETATM   20  C   UNL     1     -43.459  54.671 -52.827  1.00  0.00     0.014 A 
ENDBRANCH  11  15
BRANCH  13  21
HETATM   21  C   UNL     1     -42.782  57.129 -57.612  1.00  0.00     0.058 A 
HETATM   22  C   UNL     1     -43.179  55.955 -58.271  1.00  0.00     0.031 A 
HETATM   23  C   UNL     1     -42.905  55.779 -59.629  1.00  0.00     0.002 A 
HETATM   24  C   UNL     1     -42.236  56.774 -60.338  1.00  0.00     0.000 A 
HETATM   25  C   UNL     1     -41.840  57.944 -59.692  1.00  0.00     0.002 A 
HETATM   26  C   UNL     1     -42.109  58.126 -58.333  1.00  0.00     0.031 A 
ENDBRANCH  13  21
ENDBRANCH   7  10
BRANCH   1  27
HETATM   27  C   UNL     1     -42.577  60.376 -52.525  1.00  0.00     0.270 C 
HETATM   28  O   UNL     1     -42.870  61.446 -53.054  1.00  0.00    -0.265 OA
BRANCH  27  29
HETATM   29  O   UNL     1     -41.307  59.947 -52.349  1.00  0.00    -0.321 OA
BRANCH  29  30
HETATM   30  C   UNL     1     -40.870  59.757 -50.993  1.00  0.00     0.174 C 
HETATM   31  C   UNL     1     -39.477  59.157 -50.965  1.00  0.00     0.034 C 
ENDBRANCH  29  30
ENDBRANCH  27  29
ENDBRANCH   1  27
BRANCH   2  32
HETATM   32  C   UNL     1     -45.560  59.152 -50.351  1.00  0.00     0.439 C 
HETATM   33  F   UNL     1     -46.772  59.107 -50.957  1.00  0.00    -0.166 F 
HETATM   34  F   UNL     1     -45.058  57.894 -50.342  1.00  0.00    -0.166 F 
HETATM   35  F   UNL     1     -45.779  59.486 -49.060  1.00  0.00    -0.166 F 
ENDBRANCH   2  32
BRANCH   2  36
HETATM   36  O   UNL     1     -43.885  60.888 -50.085  1.00  0.00    -0.363 OA
HETATM   37  H   UNL     1     -44.453  61.602 -49.734  1.00  0.00     0.213 HD
ENDBRANCH   2  36
TORSDOF 8
ENDMDL
