MODEL 1
REMARK VINA RESULT:      -7.5      0.000      0.000
REMARK  8 active torsions:
REMARK  status: ('A' for Active; 'I' for Inactive)
REMARK       I    between atoms: C_2  and  N_3 
REMARK    1  A    between atoms: N_3  and  C_4 
REMARK    2  A    between atoms: C_6  and  C_7 
REMARK    3  A    between atoms: C_7  and  N_8 
REMARK    4  A    between atoms: C_11  and  C_12 
REMARK    5  A    between atoms: C_14  and  S_15 
REMARK    6  A    between atoms: S_15  and  C_16 
REMARK    7  A    between atoms: C_16  and  C_17 
REMARK    8  A    between atoms: C_17  and  N_18 
ROOT
HETATM    1  N   UNL     1     -42.110  56.993 -57.083  1.00  0.00    -0.066 N 
HETATM    2  H   UNL     1     -41.211  56.571 -57.355  1.00  0.00     0.280 HD
HETATM    3  C   UNL     1     -41.966  57.488 -55.651  1.00  0.00     0.246 C 
HETATM    4  C   UNL     1     -41.685  56.312 -54.707  1.00  0.00     0.064 C 
HETATM    5  C   UNL     1     -42.753  55.219 -54.846  1.00  0.00     0.014 C 
HETATM    6  C   UNL     1     -42.879  54.767 -56.298  1.00  0.00     0.028 C 
HETATM    7  C   UNL     1     -43.177  55.933 -57.228  1.00  0.00     0.235 C 
ENDROOT
BRANCH   4   8
HETATM    8  C   UNL     1     -41.511  56.751 -53.268  1.00  0.00     0.044 A 
HETATM    9  N   UNL     1     -41.635  55.776 -52.344  1.00  0.00    -0.227 NA
HETATM   10  C   UNL     1     -41.541  56.123 -51.047  1.00  0.00     0.188 A 
HETATM   11  N   UNL     1     -41.326  57.368 -50.605  1.00  0.00    -0.235 NA
HETATM   12  C   UNL     1     -41.187  58.316 -51.551  1.00  0.00     0.121 A 
HETATM   13  C   UNL     1     -41.275  58.063 -52.904  1.00  0.00     0.047 A 
BRANCH  10  14
HETATM   14  S   UNL     1     -41.726  54.818 -49.861  1.00  0.00    -0.088 SA
BRANCH  14  15
HETATM   15  C   UNL     1     -40.169  53.915 -50.135  1.00  0.00     0.110 C 
BRANCH  15  16
HETATM   16  C   UNL     1     -40.485  52.539 -50.726  1.00  0.00     0.245 C 
BRANCH  16  17
HETATM   17  N   UNL     1     -39.652  52.257 -51.964  1.00  0.00    -0.070 N 
HETATM   18  H   UNL     1     -38.705  52.630 -51.802  1.00  0.00     0.279 HD
HETATM   19  C   UNL     1     -40.181  52.965 -53.208  1.00  0.00     0.235 C 
HETATM   20  C   UNL     1     -40.625  51.845 -54.125  1.00  0.00     0.029 C 
HETATM   21  C   UNL     1     -39.629  50.745 -53.828  1.00  0.00     0.029 C 
HETATM   22  C   UNL     1     -39.524  50.783 -52.317  1.00  0.00     0.235 C 
ENDBRANCH  16  17
ENDBRANCH  15  16
ENDBRANCH  14  15
ENDBRANCH  10  14
ENDBRANCH   4   8
BRANCH   1  23
HETATM   23  C   UNL     1     -42.344  58.123 -58.077  1.00  0.00     0.280 C 
BRANCH  23  24
HETATM   24  C   UNL     1     -43.767  58.238 -58.506  1.00  0.00     0.010 A 
HETATM   25  S   UNL     1     -44.225  57.793 -60.100  1.00  0.00    -0.075 SA
HETATM   26  C   UNL     1     -45.853  58.169 -59.805  1.00  0.00     0.076 A 
HETATM   27  C   UNL     1     -46.064  58.640 -58.532  1.00  0.00     0.038 A 
HETATM   28  C   UNL     1     -44.852  58.695 -57.780  1.00  0.00     0.019 A 
BRANCH  26  29
HETATM   29  N   UNL     1     -46.688  57.955 -60.875  1.00  0.00    -0.322 N 
HETATM   30  C   UNL     1     -47.436  56.803 -61.025  1.00  0.00     0.218 C 
HETATM   31  C   UNL     1     -48.307  56.834 -62.255  1.00  0.00     0.117 C 
HETATM   32  O   UNL     1     -47.396  55.818 -60.295  1.00  0.00    -0.274 OA
HETATM   33  H   UNL     1     -46.742  58.681 -61.578  1.00  0.00     0.169 HD
ENDBRANCH  26  29
ENDBRANCH  23  24
ENDBRANCH   1  23
TORSDOF 8
ENDMDL
MODEL 2
REMARK VINA RESULT:      -7.3      2.979      9.024
REMARK  8 active torsions:
REMARK  status: ('A' for Active; 'I' for Inactive)
REMARK       I    between atoms: C_2  and  N_3 
REMARK    1  A    between atoms: N_3  and  C_4 
REMARK    2  A    between atoms: C_6  and  C_7 
REMARK    3  A    between atoms: C_7  and  N_8 
REMARK    4  A    between atoms: C_11  and  C_12 
REMARK    5  A    between atoms: C_14  and  S_15 
REMARK    6  A    between atoms: S_15  and  C_16 
REMARK    7  A    between atoms: C_16  and  C_17 
REMARK    8  A    between atoms: C_17  and  N_18 
ROOT
HETATM    1  N   UNL     1     -42.320  57.762 -53.955  1.00  0.00    -0.066 N 
HETATM    2  H   UNL     1     -42.146  58.776 -53.919  1.00  0.00     0.280 HD
HETATM    3  C   UNL     1     -42.096  57.312 -55.391  1.00  0.00     0.246 C 
HETATM    4  C   UNL     1     -43.096  58.003 -56.327  1.00  0.00     0.064 C 
HETATM    5  C   UNL     1     -44.541  57.780 -55.860  1.00  0.00     0.014 C 
HETATM    6  C   UNL     1     -44.715  58.224 -54.412  1.00  0.00     0.028 C 
HETATM    7  C   UNL     1     -43.736  57.522 -53.484  1.00  0.00     0.235 C 
ENDROOT
BRANCH   4   8
HETATM    8  C   UNL     1     -42.904  57.608 -57.777  1.00  0.00     0.044 A 
HETATM    9  N   UNL     1     -43.714  56.625 -58.223  1.00  0.00    -0.227 NA
HETATM   10  C   UNL     1     -43.549  56.202 -59.490  1.00  0.00     0.188 A 
HETATM   11  N   UNL     1     -42.640  56.689 -60.344  1.00  0.00    -0.235 NA
HETATM   12  C   UNL     1     -41.860  57.680 -59.875  1.00  0.00     0.121 A 
HETATM   13  C   UNL     1     -41.946  58.179 -58.592  1.00  0.00     0.047 A 
BRANCH  10  14
HETATM   14  S   UNL     1     -44.619  54.898 -60.037  1.00  0.00    -0.088 SA
BRANCH  14  15
HETATM   15  C   UNL     1     -45.874  55.869 -60.929  1.00  0.00     0.110 C 
BRANCH  15  16
HETATM   16  C   UNL     1     -47.006  56.232 -59.965  1.00  0.00     0.245 C 
BRANCH  16  17
HETATM   17  N   UNL     1     -47.194  57.736 -59.865  1.00  0.00    -0.070 N 
HETATM   18  H   UNL     1     -48.156  57.956 -60.159  1.00  0.00     0.279 HD
HETATM   19  C   UNL     1     -46.273  58.512 -60.801  1.00  0.00     0.235 C 
HETATM   20  C   UNL     1     -45.354  59.285 -59.879  1.00  0.00     0.029 C 
HETATM   21  C   UNL     1     -46.245  59.607 -58.699  1.00  0.00     0.029 C 
HETATM   22  C   UNL     1     -46.987  58.306 -58.470  1.00  0.00     0.235 C 
ENDBRANCH  16  17
ENDBRANCH  15  16
ENDBRANCH  14  15
ENDBRANCH  10  14
ENDBRANCH   4   8
BRANCH   1  23
HETATM   23  C   UNL     1     -41.323  57.146 -52.982  1.00  0.00     0.280 C 
BRANCH  23  24
HETATM   24  C   UNL     1     -41.415  55.659 -52.916  1.00  0.00     0.010 A 
HETATM   25  S   UNL     1     -40.631  54.695 -54.100  1.00  0.00    -0.075 SA
HETATM   26  C   UNL     1     -41.160  53.257 -53.371  1.00  0.00     0.076 A 
HETATM   27  C   UNL     1     -41.931  53.482 -52.257  1.00  0.00     0.038 A 
HETATM   28  C   UNL     1     -42.094  54.877 -51.999  1.00  0.00     0.019 A 
BRANCH  26  29
HETATM   29  N   UNL     1     -40.747  52.112 -54.008  1.00  0.00    -0.322 N 
HETATM   30  C   UNL     1     -39.796  51.260 -53.478  1.00  0.00     0.218 C 
HETATM   31  C   UNL     1     -39.554  50.051 -54.345  1.00  0.00     0.117 C 
HETATM   32  O   UNL     1     -39.157  51.445 -52.447  1.00  0.00    -0.274 OA
HETATM   33  H   UNL     1     -41.161  51.900 -54.906  1.00  0.00     0.169 HD
ENDBRANCH  26  29
ENDBRANCH  23  24
ENDBRANCH   1  23
TORSDOF 8
ENDMDL
MODEL 3
REMARK VINA RESULT:      -7.3      3.522      8.105
REMARK  8 active torsions:
REMARK  status: ('A' for Active; 'I' for Inactive)
REMARK       I    between atoms: C_2  and  N_3 
REMARK    1  A    between atoms: N_3  and  C_4 
REMARK    2  A    between atoms: C_6  and  C_7 
REMARK    3  A    between atoms: C_7  and  N_8 
REMARK    4  A    between atoms: C_11  and  C_12 
REMARK    5  A    between atoms: C_14  and  S_15 
REMARK    6  A    between atoms: S_15  and  C_16 
REMARK    7  A    between atoms: C_16  and  C_17 
REMARK    8  A    between atoms: C_17  and  N_18 
ROOT
HETATM    1  N   UNL     1     -42.041  57.542 -52.491  1.00  0.00    -0.066 N 
HETATM    2  H   UNL     1     -41.060  57.472 -52.797  1.00  0.00     0.280 HD
HETATM    3  C   UNL     1     -42.710  58.603 -53.352  1.00  0.00     0.246 C 
HETATM    4  C   UNL     1     -42.041  59.967 -53.133  1.00  0.00     0.064 C 
HETATM    5  C   UNL     1     -42.020  60.344 -51.646  1.00  0.00     0.014 C 
HETATM    6  C   UNL     1     -41.360  59.246 -50.819  1.00  0.00     0.028 C 
HETATM    7  C   UNL     1     -42.039  57.900 -51.023  1.00  0.00     0.235 C 
ENDROOT
BRANCH   4   8
HETATM    8  C   UNL     1     -42.655  61.059 -53.984  1.00  0.00     0.044 A 
HETATM    9  N   UNL     1     -42.673  60.820 -55.312  1.00  0.00    -0.227 NA
HETATM   10  C   UNL     1     -43.161  61.782 -56.117  1.00  0.00     0.188 A 
HETATM   11  N   UNL     1     -43.637  62.960 -55.695  1.00  0.00    -0.235 NA
HETATM   12  C   UNL     1     -43.623  63.161 -54.364  1.00  0.00     0.121 A 
HETATM   13  C   UNL     1     -43.138  62.242 -53.458  1.00  0.00     0.047 A 
BRANCH  10  14
HETATM   14  S   UNL     1     -43.153  61.440 -57.857  1.00  0.00    -0.088 SA
BRANCH  14  15
HETATM   15  C   UNL     1     -43.207  59.621 -57.824  1.00  0.00     0.110 C 
BRANCH  15  16
HETATM   16  C   UNL     1     -42.098  59.070 -58.725  1.00  0.00     0.245 C 
BRANCH  16  17
HETATM   17  N   UNL     1     -41.878  57.585 -58.495  1.00  0.00    -0.070 N 
HETATM   18  H   UNL     1     -40.864  57.419 -58.435  1.00  0.00     0.279 HD
HETATM   19  C   UNL     1     -42.383  56.725 -59.651  1.00  0.00     0.235 C 
HETATM   20  C   UNL     1     -43.521  55.920 -59.060  1.00  0.00     0.029 C 
HETATM   21  C   UNL     1     -43.071  55.688 -57.634  1.00  0.00     0.029 C 
HETATM   22  C   UNL     1     -42.520  57.040 -57.228  1.00  0.00     0.235 C 
ENDBRANCH  16  17
ENDBRANCH  15  16
ENDBRANCH  14  15
ENDBRANCH  10  14
ENDBRANCH   4   8
BRANCH   1  23
HETATM   23  C   UNL     1     -42.631  56.154 -52.700  1.00  0.00     0.280 C 
BRANCH  23  24
HETATM   24  C   UNL     1     -41.732  55.247 -53.471  1.00  0.00     0.010 A 
HETATM   25  S   UNL     1     -41.855  53.546 -53.277  1.00  0.00    -0.075 SA
HETATM   26  C   UNL     1     -40.618  53.265 -54.403  1.00  0.00     0.076 A 
HETATM   27  C   UNL     1     -40.098  54.427 -54.918  1.00  0.00     0.038 A 
HETATM   28  C   UNL     1     -40.733  55.581 -54.367  1.00  0.00     0.019 A 
BRANCH  26  29
HETATM   29  N   UNL     1     -40.330  51.938 -54.612  1.00  0.00    -0.322 N 
HETATM   30  C   UNL     1     -39.658  51.161 -53.688  1.00  0.00     0.218 C 
HETATM   31  C   UNL     1     -39.511  49.728 -54.133  1.00  0.00     0.117 C 
HETATM   32  O   UNL     1     -39.173  51.555 -52.632  1.00  0.00    -0.274 OA
HETATM   33  H   UNL     1     -40.625  51.528 -55.488  1.00  0.00     0.169 HD
ENDBRANCH  26  29
ENDBRANCH  23  24
ENDBRANCH   1  23
TORSDOF 8
ENDMDL
MODEL 4
REMARK VINA RESULT:      -7.1      2.816      4.144
REMARK  8 active torsions:
REMARK  status: ('A' for Active; 'I' for Inactive)
REMARK       I    between atoms: C_2  and  N_3 
REMARK    1  A    between atoms: N_3  and  C_4 
REMARK    2  A    between atoms: C_6  and  C_7 
REMARK    3  A    between atoms: C_7  and  N_8 
REMARK    4  A    between atoms: C_11  and  C_12 
REMARK    5  A    between atoms: C_14  and  S_15 
REMARK    6  A    between atoms: S_15  and  C_16 
REMARK    7  A    between atoms: C_16  and  C_17 
REMARK    8  A    between atoms: C_17  and  N_18 
ROOT
HETATM    1  N   UNL     1     -45.559  60.030 -54.126  1.00  0.00    -0.066 N 
HETATM    2  H   UNL     1     -46.208  59.241 -54.253  1.00  0.00     0.280 HD
HETATM    3  C   UNL     1     -44.253  59.464 -53.588  1.00  0.00     0.246 C 
HETATM    4  C   UNL     1     -44.480  58.807 -52.220  1.00  0.00     0.064 C 
HETATM    5  C   UNL     1     -45.147  59.780 -51.239  1.00  0.00     0.014 C 
HETATM    6  C   UNL     1     -46.440  60.339 -51.826  1.00  0.00     0.028 C 
HETATM    7  C   UNL     1     -46.206  61.007 -53.172  1.00  0.00     0.235 C 
ENDROOT
BRANCH   4   8
HETATM    8  C   UNL     1     -43.215  58.205 -51.646  1.00  0.00     0.044 A 
HETATM    9  N   UNL     1     -43.297  56.906 -51.293  1.00  0.00    -0.227 NA
HETATM   10  C   UNL     1     -42.215  56.338 -50.730  1.00  0.00     0.188 A 
HETATM   11  N   UNL     1     -41.056  56.968 -50.499  1.00  0.00    -0.235 NA
HETATM   12  C   UNL     1     -40.999  58.258 -50.880  1.00  0.00     0.121 A 
HETATM   13  C   UNL     1     -42.054  58.932 -51.458  1.00  0.00     0.047 A 
BRANCH  10  14
HETATM   14  S   UNL     1     -42.366  54.634 -50.262  1.00  0.00    -0.088 SA
BRANCH  14  15
HETATM   15  C   UNL     1     -42.941  53.922 -51.835  1.00  0.00     0.110 C 
BRANCH  15  16
HETATM   16  C   UNL     1     -41.744  53.747 -52.774  1.00  0.00     0.245 C 
BRANCH  16  17
HETATM   17  N   UNL     1     -42.024  54.326 -54.150  1.00  0.00    -0.070 N 
HETATM   18  H   UNL     1     -41.957  53.561 -54.836  1.00  0.00     0.279 HD
HETATM   19  C   UNL     1     -40.995  55.371 -54.574  1.00  0.00     0.235 C 
HETATM   20  C   UNL     1     -41.777  56.665 -54.657  1.00  0.00     0.029 C 
HETATM   21  C   UNL     1     -43.141  56.211 -55.130  1.00  0.00     0.029 C 
HETATM   22  C   UNL     1     -43.393  54.971 -54.296  1.00  0.00     0.235 C 
ENDBRANCH  16  17
ENDBRANCH  15  16
ENDBRANCH  14  15
ENDBRANCH  10  14
ENDBRANCH   4   8
BRANCH   1  23
HETATM   23  C   UNL     1     -45.407  60.655 -55.506  1.00  0.00     0.280 C 
BRANCH  23  24
HETATM   24  C   UNL     1     -44.870  59.704 -56.522  1.00  0.00     0.010 A 
HETATM   25  S   UNL     1     -45.783  58.321 -56.973  1.00  0.00    -0.075 SA
HETATM   26  C   UNL     1     -44.597  57.819 -58.076  1.00  0.00     0.076 A 
HETATM   27  C   UNL     1     -43.513  58.662 -58.106  1.00  0.00     0.038 A 
HETATM   28  C   UNL     1     -43.663  59.750 -57.194  1.00  0.00     0.019 A 
BRANCH  26  29
HETATM   29  N   UNL     1     -44.900  56.660 -58.747  1.00  0.00    -0.322 N 
HETATM   30  C   UNL     1     -43.958  55.688 -59.032  1.00  0.00     0.218 C 
HETATM   31  C   UNL     1     -44.552  54.493 -59.732  1.00  0.00     0.117 C 
HETATM   32  O   UNL     1     -42.755  55.763 -58.805  1.00  0.00    -0.274 OA
HETATM   33  H   UNL     1     -45.857  56.528 -59.045  1.00  0.00     0.169 HD
ENDBRANCH  26  29
ENDBRANCH  23  24
ENDBRANCH   1  23
TORSDOF 8
ENDMDL
MODEL 5
REMARK VINA RESULT:      -7.1      2.859      8.669
REMARK  8 active torsions:
REMARK  status: ('A' for Active; 'I' for Inactive)
REMARK       I    between atoms: C_2  and  N_3 
REMARK    1  A    between atoms: N_3  and  C_4 
REMARK    2  A    between atoms: C_6  and  C_7 
REMARK    3  A    between atoms: C_7  and  N_8 
REMARK    4  A    between atoms: C_11  and  C_12 
REMARK    5  A    between atoms: C_14  and  S_15 
REMARK    6  A    between atoms: S_15  and  C_16 
REMARK    7  A    between atoms: C_16  and  C_17 
REMARK    8  A    between atoms: C_17  and  N_18 
ROOT
HETATM    1  N   UNL     1     -42.176  57.296 -54.293  1.00  0.00    -0.066 N 
HETATM    2  H   UNL     1     -41.251  57.115 -54.707  1.00  0.00     0.280 HD
HETATM    3  C   UNL     1     -43.080  57.808 -55.405  1.00  0.00     0.246 C 
HETATM    4  C   UNL     1     -42.539  59.130 -55.965  1.00  0.00     0.064 C 
HETATM    5  C   UNL     1     -42.335  60.165 -54.850  1.00  0.00     0.014 C 
HETATM    6  C   UNL     1     -41.442  59.604 -53.749  1.00  0.00     0.028 C 
HETATM    7  C   UNL     1     -41.992  58.304 -53.182  1.00  0.00     0.235 C 
ENDROOT
BRANCH   4   8
HETATM    8  C   UNL     1     -43.390  59.676 -57.093  1.00  0.00     0.044 A 
HETATM    9  N   UNL     1     -44.624  59.140 -57.201  1.00  0.00    -0.227 NA
HETATM   10  C   UNL     1     -45.401  59.554 -58.218  1.00  0.00     0.188 A 
HETATM   11  N   UNL     1     -45.042  60.465 -59.131  1.00  0.00    -0.235 NA
HETATM   12  C   UNL     1     -43.813  60.994 -58.985  1.00  0.00     0.121 A 
HETATM   13  C   UNL     1     -42.939  60.632 -57.982  1.00  0.00     0.047 A 
BRANCH  10  14
HETATM   14  S   UNL     1     -47.010  58.815 -58.339  1.00  0.00    -0.088 SA
BRANCH  14  15
HETATM   15  C   UNL     1     -46.563  57.192 -59.031  1.00  0.00     0.110 C 
BRANCH  15  16
HETATM   16  C   UNL     1     -45.979  57.387 -60.433  1.00  0.00     0.245 C 
BRANCH  16  17
HETATM   17  N   UNL     1     -44.657  56.658 -60.594  1.00  0.00    -0.070 N 
HETATM   18  H   UNL     1     -44.663  56.187 -61.510  1.00  0.00     0.279 HD
HETATM   19  C   UNL     1     -44.453  55.562 -59.552  1.00  0.00     0.235 C 
HETATM   20  C   UNL     1     -43.275  56.034 -58.726  1.00  0.00     0.029 C 
HETATM   21  C   UNL     1     -42.416  56.759 -59.740  1.00  0.00     0.029 C 
HETATM   22  C   UNL     1     -43.430  57.555 -60.534  1.00  0.00     0.235 C 
ENDBRANCH  16  17
ENDBRANCH  15  16
ENDBRANCH  14  15
ENDBRANCH  10  14
ENDBRANCH   4   8
BRANCH   1  23
HETATM   23  C   UNL     1     -42.636  55.959 -53.728  1.00  0.00     0.280 C 
BRANCH  23  24
HETATM   24  C   UNL     1     -41.665  54.855 -53.977  1.00  0.00     0.010 A 
HETATM   25  S   UNL     1     -41.448  53.619 -52.805  1.00  0.00    -0.075 SA
HETATM   26  C   UNL     1     -40.298  52.822 -53.765  1.00  0.00     0.076 A 
HETATM   27  C   UNL     1     -40.058  53.474 -54.950  1.00  0.00     0.038 A 
HETATM   28  C   UNL     1     -40.839  54.663 -55.069  1.00  0.00     0.019 A 
BRANCH  26  29
HETATM   29  N   UNL     1     -39.791  51.674 -53.209  1.00  0.00    -0.322 N 
HETATM   30  C   UNL     1     -40.100  50.411 -53.679  1.00  0.00     0.218 C 
HETATM   31  C   UNL     1     -39.378  49.321 -52.930  1.00  0.00     0.117 C 
HETATM   32  O   UNL     1     -40.902  50.151 -54.571  1.00  0.00    -0.274 OA
HETATM   33  H   UNL     1     -39.170  51.773 -52.417  1.00  0.00     0.169 HD
ENDBRANCH  26  29
ENDBRANCH  23  24
ENDBRANCH   1  23
TORSDOF 8
ENDMDL
MODEL 6
REMARK VINA RESULT:      -7.0      3.037      4.116
REMARK  8 active torsions:
REMARK  status: ('A' for Active; 'I' for Inactive)
REMARK       I    between atoms: C_2  and  N_3 
REMARK    1  A    between atoms: N_3  and  C_4 
REMARK    2  A    between atoms: C_6  and  C_7 
REMARK    3  A    between atoms: C_7  and  N_8 
REMARK    4  A    between atoms: C_11  and  C_12 
REMARK    5  A    between atoms: C_14  and  S_15 
REMARK    6  A    between atoms: S_15  and  C_16 
REMARK    7  A    between atoms: C_16  and  C_17 
REMARK    8  A    between atoms: C_17  and  N_18 
ROOT
HETATM    1  N   UNL     1     -42.708  57.461 -56.505  1.00  0.00    -0.066 N 
HETATM    2  H   UNL     1     -41.778  57.576 -56.931  1.00  0.00     0.280 HD
HETATM    3  C   UNL     1     -42.549  57.654 -55.004  1.00  0.00     0.246 C 
HETATM    4  C   UNL     1     -41.620  56.579 -54.424  1.00  0.00     0.064 C 
HETATM    5  C   UNL     1     -42.107  55.169 -54.787  1.00  0.00     0.014 C 
HETATM    6  C   UNL     1     -42.274  55.026 -56.296  1.00  0.00     0.028 C 
HETATM    7  C   UNL     1     -43.211  56.082 -56.863  1.00  0.00     0.235 C 
ENDROOT
BRANCH   4   8
HETATM    8  C   UNL     1     -41.408  56.736 -52.933  1.00  0.00     0.044 A 
HETATM    9  N   UNL     1     -41.429  55.592 -52.219  1.00  0.00    -0.227 NA
HETATM   10  C   UNL     1     -41.296  55.682 -50.883  1.00  0.00     0.188 A 
HETATM   11  N   UNL     1     -41.138  56.828 -50.208  1.00  0.00    -0.235 NA
HETATM   12  C   UNL     1     -41.102  57.951 -50.950  1.00  0.00     0.121 A 
HETATM   13  C   UNL     1     -41.237  57.964 -52.322  1.00  0.00     0.047 A 
BRANCH  10  14
HETATM   14  S   UNL     1     -41.346  54.159 -49.975  1.00  0.00    -0.088 SA
BRANCH  14  15
HETATM   15  C   UNL     1     -39.824  53.372 -50.591  1.00  0.00     0.110 C 
BRANCH  15  16
HETATM   16  C   UNL     1     -40.128  51.921 -50.971  1.00  0.00     0.245 C 
BRANCH  16  17
HETATM   17  N   UNL     1     -39.450  51.529 -52.272  1.00  0.00    -0.070 N 
HETATM   18  H   UNL     1     -38.441  51.711 -52.172  1.00  0.00     0.279 HD
HETATM   19  C   UNL     1     -39.918  52.366 -53.459  1.00  0.00     0.235 C 
HETATM   20  C   UNL     1     -40.628  51.380 -54.364  1.00  0.00     0.029 C 
HETATM   21  C   UNL     1     -39.841  50.103 -54.162  1.00  0.00     0.029 C 
HETATM   22  C   UNL     1     -39.628  50.070 -52.663  1.00  0.00     0.235 C 
ENDBRANCH  16  17
ENDBRANCH  15  16
ENDBRANCH  14  15
ENDBRANCH  10  14
ENDBRANCH   4   8
BRANCH   1  23
HETATM   23  C   UNL     1     -43.583  58.530 -57.147  1.00  0.00     0.280 C 
BRANCH  23  24
HETATM   24  C   UNL     1     -42.809  59.493 -57.982  1.00  0.00     0.010 A 
HETATM   25  S   UNL     1     -41.810  60.671 -57.234  1.00  0.00    -0.075 SA
HETATM   26  C   UNL     1     -41.317  61.297 -58.732  1.00  0.00     0.076 A 
HETATM   27  C   UNL     1     -41.899  60.647 -59.792  1.00  0.00     0.038 A 
HETATM   28  C   UNL     1     -42.778  59.609 -59.360  1.00  0.00     0.019 A 
BRANCH  26  29
HETATM   29  N   UNL     1     -40.433  62.344 -58.647  1.00  0.00    -0.322 N 
HETATM   30  C   UNL     1     -40.837  63.665 -58.592  1.00  0.00     0.218 C 
HETATM   31  C   UNL     1     -39.679  64.620 -58.453  1.00  0.00     0.117 C 
HETATM   32  O   UNL     1     -41.991  64.070 -58.691  1.00  0.00    -0.274 OA
HETATM   33  H   UNL     1     -39.446  62.124 -58.630  1.00  0.00     0.169 HD
ENDBRANCH  26  29
ENDBRANCH  23  24
ENDBRANCH   1  23
TORSDOF 8
ENDMDL
MODEL 7
REMARK VINA RESULT:      -6.8      3.163      8.764
REMARK  8 active torsions:
REMARK  status: ('A' for Active; 'I' for Inactive)
REMARK       I    between atoms: C_2  and  N_3 
REMARK    1  A    between atoms: N_3  and  C_4 
REMARK    2  A    between atoms: C_6  and  C_7 
REMARK    3  A    between atoms: C_7  and  N_8 
REMARK    4  A    between atoms: C_11  and  C_12 
REMARK    5  A    between atoms: C_14  and  S_15 
REMARK    6  A    between atoms: S_15  and  C_16 
REMARK    7  A    between atoms: C_16  and  C_17 
REMARK    8  A    between atoms: C_17  and  N_18 
ROOT
HETATM    1  N   UNL     1     -43.000  57.891 -54.146  1.00  0.00    -0.066 N 
HETATM    2  H   UNL     1     -42.040  57.521 -54.110  1.00  0.00     0.280 HD
HETATM    3  C   UNL     1     -43.373  58.045 -55.613  1.00  0.00     0.246 C 
HETATM    4  C   UNL     1     -42.445  59.058 -56.295  1.00  0.00     0.064 C 
HETATM    5  C   UNL     1     -42.437  60.398 -55.547  1.00  0.00     0.014 C 
HETATM    6  C   UNL     1     -42.080  60.195 -54.078  1.00  0.00     0.028 C 
HETATM    7  C   UNL     1     -43.015  59.205 -53.400  1.00  0.00     0.235 C 
ENDROOT
BRANCH   4   8
HETATM    8  C   UNL     1     -42.758  59.235 -57.766  1.00  0.00     0.044 A 
HETATM    9  N   UNL     1     -44.023  59.608 -58.050  1.00  0.00    -0.227 NA
HETATM   10  C   UNL     1     -44.366  59.729 -59.346  1.00  0.00     0.188 A 
HETATM   11  N   UNL     1     -43.541  59.511 -60.377  1.00  0.00    -0.235 NA
HETATM   12  C   UNL     1     -42.281  59.158 -60.061  1.00  0.00     0.121 A 
HETATM   13  C   UNL     1     -41.833  59.001 -58.766  1.00  0.00     0.047 A 
BRANCH  10  14
HETATM   14  S   UNL     1     -46.042  60.205 -59.682  1.00  0.00    -0.088 SA
BRANCH  14  15
HETATM   15  C   UNL     1     -46.756  58.582 -60.095  1.00  0.00     0.110 C 
BRANCH  15  16
HETATM   16  C   UNL     1     -46.612  57.649 -58.890  1.00  0.00     0.245 C 
BRANCH  16  17
HETATM   17  N   UNL     1     -46.116  56.274 -59.303  1.00  0.00    -0.070 N 
HETATM   18  H   UNL     1     -46.597  55.574 -58.720  1.00  0.00     0.279 HD
HETATM   19  C   UNL     1     -44.623  56.083 -59.054  1.00  0.00     0.235 C 
HETATM   20  C   UNL     1     -44.022  55.929 -60.435  1.00  0.00     0.029 C 
HETATM   21  C   UNL     1     -45.108  55.207 -61.202  1.00  0.00     0.029 C 
HETATM   22  C   UNL     1     -46.368  55.925 -60.762  1.00  0.00     0.235 C 
ENDBRANCH  16  17
ENDBRANCH  15  16
ENDBRANCH  14  15
ENDBRANCH  10  14
ENDBRANCH   4   8
BRANCH   1  23
HETATM   23  C   UNL     1     -43.858  56.860 -53.424  1.00  0.00     0.280 C 
BRANCH  23  24
HETATM   24  C   UNL     1     -43.130  55.589 -53.141  1.00  0.00     0.010 A 
HETATM   25  S   UNL     1     -42.525  54.637 -54.436  1.00  0.00    -0.075 SA
HETATM   26  C   UNL     1     -41.879  53.485 -53.371  1.00  0.00     0.076 A 
HETATM   27  C   UNL     1     -42.120  53.791 -52.054  1.00  0.00     0.038 A 
HETATM   28  C   UNL     1     -42.859  55.005 -51.918  1.00  0.00     0.019 A 
BRANCH  26  29
HETATM   29  N   UNL     1     -41.236  52.440 -53.987  1.00  0.00    -0.322 N 
HETATM   30  C   UNL     1     -40.161  51.781 -53.421  1.00  0.00     0.218 C 
HETATM   31  C   UNL     1     -39.665  50.641 -54.273  1.00  0.00     0.117 C 
HETATM   32  O   UNL     1     -39.605  52.081 -52.369  1.00  0.00    -0.274 OA
HETATM   33  H   UNL     1     -41.572  52.155 -54.898  1.00  0.00     0.169 HD
ENDBRANCH  26  29
ENDBRANCH  23  24
ENDBRANCH   1  23
TORSDOF 8
ENDMDL
MODEL 8
REMARK VINA RESULT:      -6.8     16.652     20.267
REMARK  8 active torsions:
REMARK  status: ('A' for Active; 'I' for Inactive)
REMARK       I    between atoms: C_2  and  N_3 
REMARK    1  A    between atoms: N_3  and  C_4 
REMARK    2  A    between atoms: C_6  and  C_7 
REMARK    3  A    between atoms: C_7  and  N_8 
REMARK    4  A    between atoms: C_11  and  C_12 
REMARK    5  A    between atoms: C_14  and  S_15 
REMARK    6  A    between atoms: S_15  and  C_16 
REMARK    7  A    between atoms: C_16  and  C_17 
REMARK    8  A    between atoms: C_17  and  N_18 
ROOT
HETATM    1  N   UNL     1     -35.349  41.189 -54.052  1.00  0.00    -0.066 N 
HETATM    2  H   UNL     1     -34.758  41.881 -53.569  1.00  0.00     0.280 HD
HETATM    3  C   UNL     1     -34.423  40.160 -54.683  1.00  0.00     0.246 C 
HETATM    4  C   UNL     1     -33.519  40.828 -55.728  1.00  0.00     0.064 C 
HETATM    5  C   UNL     1     -34.344  41.594 -56.770  1.00  0.00     0.014 C 
HETATM    6  C   UNL     1     -35.272  42.598 -56.093  1.00  0.00     0.028 C 
HETATM    7  C   UNL     1     -36.180  41.929 -55.074  1.00  0.00     0.235 C 
ENDROOT
BRANCH   4   8
HETATM    8  C   UNL     1     -32.559  39.852 -56.375  1.00  0.00     0.044 A 
HETATM    9  N   UNL     1     -33.121  38.941 -57.195  1.00  0.00    -0.227 NA
HETATM   10  C   UNL     1     -32.318  38.017 -57.755  1.00  0.00     0.188 A 
HETATM   11  N   UNL     1     -30.995  37.940 -57.561  1.00  0.00    -0.235 NA
HETATM   12  C   UNL     1     -30.461  38.874 -56.753  1.00  0.00     0.121 A 
HETATM   13  C   UNL     1     -31.199  39.856 -56.127  1.00  0.00     0.047 A 
BRANCH  10  14
HETATM   14  S   UNL     1     -33.095  36.825 -58.813  1.00  0.00    -0.088 SA
BRANCH  14  15
HETATM   15  C   UNL     1     -34.729  36.711 -58.018  1.00  0.00     0.110 C 
BRANCH  15  16
HETATM   16  C   UNL     1     -35.760  37.438 -58.885  1.00  0.00     0.245 C 
BRANCH  16  17
HETATM   17  N   UNL     1     -35.973  38.868 -58.421  1.00  0.00    -0.070 N 
HETATM   18  H   UNL     1     -35.056  39.258 -58.162  1.00  0.00     0.279 HD
HETATM   19  C   UNL     1     -36.845  38.962 -57.172  1.00  0.00     0.235 C 
HETATM   20  C   UNL     1     -38.095  39.682 -57.632  1.00  0.00     0.029 C 
HETATM   21  C   UNL     1     -37.572  40.639 -58.681  1.00  0.00     0.029 C 
HETATM   22  C   UNL     1     -36.596  39.784 -59.463  1.00  0.00     0.235 C 
ENDBRANCH  16  17
ENDBRANCH  15  16
ENDBRANCH  14  15
ENDBRANCH  10  14
ENDBRANCH   4   8
BRANCH   1  23
HETATM   23  C   UNL     1     -36.241  40.594 -52.970  1.00  0.00     0.280 C 
BRANCH  23  24
HETATM   24  C   UNL     1     -35.482  39.812 -51.952  1.00  0.00     0.010 A 
HETATM   25  S   UNL     1     -34.530  40.624 -50.777  1.00  0.00    -0.075 SA
HETATM   26  C   UNL     1     -34.053  39.162 -50.061  1.00  0.00     0.076 A 
HETATM   27  C   UNL     1     -34.583  38.066 -50.696  1.00  0.00     0.038 A 
HETATM   28  C   UNL     1     -35.401  38.440 -51.804  1.00  0.00     0.019 A 
BRANCH  26  29
HETATM   29  N   UNL     1     -33.217  39.304 -48.980  1.00  0.00    -0.322 N 
HETATM   30  C   UNL     1     -31.879  39.628 -49.104  1.00  0.00     0.218 C 
HETATM   31  C   UNL     1     -31.193  39.774 -47.770  1.00  0.00     0.117 C 
HETATM   32  O   UNL     1     -31.261  39.748 -50.157  1.00  0.00    -0.274 OA
HETATM   33  H   UNL     1     -33.612  39.157 -48.061  1.00  0.00     0.169 HD
ENDBRANCH  26  29
ENDBRANCH  23  24
ENDBRANCH   1  23
TORSDOF 8
ENDMDL
MODEL 9
REMARK VINA RESULT:      -6.7      2.768      8.724
REMARK  8 active torsions:
REMARK  status: ('A' for Active; 'I' for Inactive)
REMARK       I    between atoms: C_2  and  N_3 
REMARK    1  A    between atoms: N_3  and  C_4 
REMARK    2  A    between atoms: C_6  and  C_7 
REMARK    3  A    between atoms: C_7  and  N_8 
REMARK    4  A    between atoms: C_11  and  C_12 
REMARK    5  A    between atoms: C_14  and  S_15 
REMARK    6  A    between atoms: S_15  and  C_16 
REMARK    7  A    between atoms: C_16  and  C_17 
REMARK    8  A    between atoms: C_17  and  N_18 
ROOT
HETATM    1  N   UNL     1     -41.470  57.219 -51.222  1.00  0.00    -0.066 N 
HETATM    2  H   UNL     1     -40.537  56.979 -51.584  1.00  0.00     0.280 HD
HETATM    3  C   UNL     1     -42.352  57.548 -52.418  1.00  0.00     0.246 C 
HETATM    4  C   UNL     1     -41.800  58.769 -53.166  1.00  0.00     0.064 C 
HETATM    5  C   UNL     1     -41.619  59.965 -52.222  1.00  0.00     0.014 C 
HETATM    6  C   UNL     1     -40.749  59.586 -51.029  1.00  0.00     0.028 C 
HETATM    7  C   UNL     1     -41.310  58.388 -50.278  1.00  0.00     0.235 C 
ENDROOT
BRANCH   4   8
HETATM    8  C   UNL     1     -42.628  59.129 -54.382  1.00  0.00     0.044 A 
HETATM    9  N   UNL     1     -41.931  59.350 -55.515  1.00  0.00    -0.227 NA
HETATM   10  C   UNL     1     -42.615  59.724 -56.612  1.00  0.00     0.188 A 
HETATM   11  N   UNL     1     -43.943  59.887 -56.662  1.00  0.00    -0.235 NA
HETATM   12  C   UNL     1     -44.613  59.641 -55.521  1.00  0.00     0.121 A 
HETATM   13  C   UNL     1     -44.003  59.261 -54.344  1.00  0.00     0.047 A 
BRANCH  10  14
HETATM   14  S   UNL     1     -41.664  60.022 -58.079  1.00  0.00    -0.088 SA
BRANCH  14  15
HETATM   15  C   UNL     1     -42.788  59.332 -59.333  1.00  0.00     0.110 C 
BRANCH  15  16
HETATM   16  C   UNL     1     -42.580  57.817 -59.413  1.00  0.00     0.245 C 
BRANCH  16  17
HETATM   17  N   UNL     1     -43.843  57.059 -59.043  1.00  0.00    -0.070 N 
HETATM   18  H   UNL     1     -44.205  57.455 -58.164  1.00  0.00     0.279 HD
HETATM   19  C   UNL     1     -43.588  55.579 -58.771  1.00  0.00     0.235 C 
HETATM   20  C   UNL     1     -44.332  54.855 -59.874  1.00  0.00     0.029 C 
HETATM   21  C   UNL     1     -45.539  55.736 -60.108  1.00  0.00     0.029 C 
HETATM   22  C   UNL     1     -44.949  57.131 -60.084  1.00  0.00     0.235 C 
ENDBRANCH  16  17
ENDBRANCH  15  16
ENDBRANCH  14  15
ENDBRANCH  10  14
ENDBRANCH   4   8
BRANCH   1  23
HETATM   23  C   UNL     1     -41.941  55.984 -50.465  1.00  0.00     0.280 C 
BRANCH  23  24
HETATM   24  C   UNL     1     -41.096  54.782 -50.726  1.00  0.00     0.010 A 
HETATM   25  S   UNL     1     -41.571  53.639 -51.916  1.00  0.00    -0.075 SA
HETATM   26  C   UNL     1     -40.201  52.680 -51.633  1.00  0.00     0.076 A 
HETATM   27  C   UNL     1     -39.393  53.192 -50.647  1.00  0.00     0.038 A 
HETATM   28  C   UNL     1     -39.919  54.405 -50.108  1.00  0.00     0.019 A 
BRANCH  26  29
HETATM   29  N   UNL     1     -40.123  51.555 -52.416  1.00  0.00    -0.322 N 
HETATM   30  C   UNL     1     -39.908  51.603 -53.781  1.00  0.00     0.218 C 
HETATM   31  C   UNL     1     -39.815  50.233 -54.402  1.00  0.00     0.117 C 
HETATM   32  O   UNL     1     -39.842  52.621 -54.464  1.00  0.00    -0.274 OA
HETATM   33  H   UNL     1     -40.236  50.659 -51.961  1.00  0.00     0.169 HD
ENDBRANCH  26  29
ENDBRANCH  23  24
ENDBRANCH   1  23
TORSDOF 8
ENDMDL
MODEL 10
REMARK VINA RESULT:      -6.7      3.175      5.363
REMARK  8 active torsions:
REMARK  status: ('A' for Active; 'I' for Inactive)
REMARK       I    between atoms: C_2  and  N_3 
REMARK    1  A    between atoms: N_3  and  C_4 
REMARK    2  A    between atoms: C_6  and  C_7 
REMARK    3  A    between atoms: C_7  and  N_8 
REMARK    4  A    between atoms: C_11  and  C_12 
REMARK    5  A    between atoms: C_14  and  S_15 
REMARK    6  A    between atoms: S_15  and  C_16 
REMARK    7  A    between atoms: C_16  and  C_17 
REMARK    8  A    between atoms: C_17  and  N_18 
ROOT
HETATM    1  N   UNL     1     -43.468  57.943 -56.768  1.00  0.00    -0.066 N 
HETATM    2  H   UNL     1     -42.585  58.306 -57.153  1.00  0.00     0.280 HD
HETATM    3  C   UNL     1     -43.116  57.051 -55.586  1.00  0.00     0.246 C 
HETATM    4  C   UNL     1     -42.271  55.858 -56.053  1.00  0.00     0.064 C 
HETATM    5  C   UNL     1     -42.969  55.090 -57.183  1.00  0.00     0.014 C 
HETATM    6  C   UNL     1     -43.322  56.024 -58.336  1.00  0.00     0.028 C 
HETATM    7  C   UNL     1     -44.176  57.194 -57.873  1.00  0.00     0.235 C 
ENDROOT
BRANCH   4   8
HETATM    8  C   UNL     1     -41.873  54.945 -54.912  1.00  0.00     0.044 A 
HETATM    9  N   UNL     1     -42.747  54.883 -53.886  1.00  0.00    -0.227 NA
HETATM   10  C   UNL     1     -42.416  54.126 -52.824  1.00  0.00     0.188 A 
HETATM   11  N   UNL     1     -41.282  53.424 -52.712  1.00  0.00    -0.235 NA
HETATM   12  C   UNL     1     -40.439  53.491 -53.759  1.00  0.00     0.121 A 
HETATM   13  C   UNL     1     -40.683  54.243 -54.889  1.00  0.00     0.047 A 
BRANCH  10  14
HETATM   14  S   UNL     1     -43.581  54.081 -51.488  1.00  0.00    -0.088 SA
BRANCH  14  15
HETATM   15  C   UNL     1     -43.609  55.843 -51.031  1.00  0.00     0.110 C 
BRANCH  15  16
HETATM   16  C   UNL     1     -42.224  56.252 -50.524  1.00  0.00     0.245 C 
BRANCH  16  17
HETATM   17  N   UNL     1     -41.931  57.714 -50.813  1.00  0.00    -0.070 N 
HETATM   18  H   UNL     1     -42.520  58.285 -50.190  1.00  0.00     0.279 HD
HETATM   19  C   UNL     1     -42.297  58.121 -52.238  1.00  0.00     0.235 C 
HETATM   20  C   UNL     1     -40.974  58.467 -52.887  1.00  0.00     0.029 C 
HETATM   21  C   UNL     1     -40.177  59.061 -51.745  1.00  0.00     0.029 C 
HETATM   22  C   UNL     1     -40.482  58.122 -50.596  1.00  0.00     0.235 C 
ENDBRANCH  16  17
ENDBRANCH  15  16
ENDBRANCH  14  15
ENDBRANCH  10  14
ENDBRANCH   4   8
BRANCH   1  23
HETATM   23  C   UNL     1     -44.268  59.173 -56.360  1.00  0.00     0.280 C 
BRANCH  23  24
HETATM   24  C   UNL     1     -43.663  60.449 -56.841  1.00  0.00     0.010 A 
HETATM   25  S   UNL     1     -41.983  60.527 -57.188  1.00  0.00    -0.075 SA
HETATM   26  C   UNL     1     -42.090  62.157 -57.647  1.00  0.00     0.076 A 
HETATM   27  C   UNL     1     -43.364  62.655 -57.533  1.00  0.00     0.038 A 
HETATM   28  C   UNL     1     -44.277  61.670 -57.050  1.00  0.00     0.019 A 
BRANCH  26  29
HETATM   29  N   UNL     1     -40.899  62.714 -58.046  1.00  0.00    -0.322 N 
HETATM   30  C   UNL     1     -40.462  62.693 -59.357  1.00  0.00     0.218 C 
HETATM   31  C   UNL     1     -39.151  63.412 -59.543  1.00  0.00     0.117 C 
HETATM   32  O   UNL     1     -41.017  62.124 -60.293  1.00  0.00    -0.274 OA
HETATM   33  H   UNL     1     -40.325  63.150 -57.336  1.00  0.00     0.169 HD
ENDBRANCH  26  29
ENDBRANCH  23  24
ENDBRANCH   1  23
TORSDOF 8
ENDMDL
