MODEL 1
REMARK VINA RESULT:      -7.7      0.000      0.000
REMARK  11 active torsions:
REMARK  status: ('A' for Active; 'I' for Inactive)
REMARK    1  A    between atoms: C_2  and  O_3 
REMARK    2  A    between atoms: O_3  and  C_4 
REMARK    3  A    between atoms: C_5  and  O_6 
REMARK    4  A    between atoms: C_9  and  C_10 
REMARK    5  A    between atoms: N_11  and  C_12 
REMARK    6  A    between atoms: C_12  and  C_13 
REMARK    7  A    between atoms: C_13  and  C_14 
REMARK    8  A    between atoms: C_14  and  N_15 
REMARK    9  A    between atoms: C_27  and  O_28 
REMARK   10  A    between atoms: C_27  and  C_29 
REMARK   11  A    between atoms: C_30  and  C_31 
ROOT
HETATM    1  C   UNL     1     -43.259  58.117 -55.181  1.00  0.00     0.161 C 
HETATM    2  N   UNL     1     -44.387  59.034 -55.356  1.00  0.00    -0.332 N 
HETATM    3  C   UNL     1     -44.882  58.981 -56.642  1.00  0.00     0.295 C 
HETATM    4  O   UNL     1     -45.603  59.806 -57.173  1.00  0.00    -0.264 OA
HETATM    5  C   UNL     1     -43.448  57.076 -56.263  1.00  0.00     0.058 C 
HETATM    6  C   UNL     1     -44.282  57.732 -57.296  1.00  0.00     0.250 C 
HETATM    7  O   UNL     1     -44.460  57.369 -58.438  1.00  0.00    -0.282 OA
HETATM    8  C   UNL     1     -43.063  55.796 -56.401  1.00  0.00     0.078 C 
ENDROOT
BRANCH   1   9
HETATM    9  C   UNL     1     -43.017  57.658 -53.765  1.00  0.00    -0.028 A 
HETATM   10  C   UNL     1     -43.964  56.909 -53.048  1.00  0.00     0.012 A 
HETATM   11  C   UNL     1     -43.682  56.474 -51.754  1.00  0.00     0.040 A 
HETATM   12  C   UNL     1     -42.456  56.783 -51.178  1.00  0.00     0.099 A 
HETATM   13  C   UNL     1     -41.490  57.526 -51.862  1.00  0.00     0.102 A 
HETATM   14  C   UNL     1     -41.776  57.957 -53.156  1.00  0.00     0.049 A 
BRANCH  12  15
HETATM   15  O   UNL     1     -42.208  56.333 -49.911  1.00  0.00    -0.358 OA
HETATM   16  H   UNL     1     -41.770  55.467 -50.024  1.00  0.00     0.218 HD
ENDBRANCH  12  15
BRANCH  13  17
HETATM   17  O   UNL     1     -40.330  57.758 -51.172  1.00  0.00    -0.349 OA
BRANCH  17  18
HETATM   18  C   UNL     1     -39.855  59.106 -51.132  1.00  0.00     0.171 C 
HETATM   19  C   UNL     1     -40.728  59.892 -50.172  1.00  0.00     0.034 C 
ENDBRANCH  17  18
ENDBRANCH  13  17
ENDBRANCH   1   9
BRANCH   2  20
HETATM   20  C   UNL     1     -44.708  60.124 -54.445  1.00  0.00     0.129 C 
BRANCH  20  21
HETATM   21  C   UNL     1     -43.552  61.064 -54.109  1.00  0.00     0.048 C 
BRANCH  21  22
HETATM   22  C   UNL     1     -43.421  61.537 -52.661  1.00  0.00     0.236 C 
BRANCH  22  23
HETATM   23  N   UNL     1     -44.584  61.185 -51.775  1.00  0.00    -0.067 N 
HETATM   24  H   UNL     1     -45.395  60.963 -52.392  1.00  0.00     0.280 HD
HETATM   25  C   UNL     1     -44.352  60.016 -50.829  1.00  0.00     0.261 C 
HETATM   26  C   UNL     1     -45.610  59.770 -49.988  1.00  0.00     0.195 C 
HETATM   27  O   UNL     1     -45.972  60.944 -49.255  1.00  0.00    -0.388 OA
HETATM   28  C   UNL     1     -46.275  62.035 -50.131  1.00  0.00     0.195 C 
HETATM   29  C   UNL     1     -45.053  62.406 -50.977  1.00  0.00     0.261 C 
ENDBRANCH  22  23
ENDBRANCH  21  22
ENDBRANCH  20  21
ENDBRANCH   2  20
BRANCH   8  30
HETATM   30  O   UNL     1     -43.299  55.043 -57.532  1.00  0.00    -0.360 OA
HETATM   31  H   UNL     1     -44.261  54.973 -57.705  1.00  0.00     0.217 HD
ENDBRANCH   8  30
BRANCH   8  32
HETATM   32  C   UNL     1     -42.442  55.032 -55.347  1.00  0.00     0.038 C 
HETATM   33  C   UNL     1     -41.285  54.361 -55.423  1.00  0.00     0.014 C 
BRANCH  33  34
HETATM   34  C   UNL     1     -40.770  53.643 -54.249  1.00  0.00    -0.036 A 
HETATM   35  C   UNL     1     -40.191  52.371 -54.367  1.00  0.00     0.011 A 
HETATM   36  C   UNL     1     -39.754  51.680 -53.235  1.00  0.00     0.001 A 
HETATM   37  C   UNL     1     -39.879  52.260 -51.975  1.00  0.00     0.000 A 
HETATM   38  C   UNL     1     -40.431  53.535 -51.849  1.00  0.00     0.001 A 
HETATM   39  C   UNL     1     -40.869  54.226 -52.982  1.00  0.00     0.011 A 
ENDBRANCH  33  34
ENDBRANCH   8  32
TORSDOF 11
ENDMDL
MODEL 2
REMARK VINA RESULT:      -7.4      1.882      3.302
REMARK  11 active torsions:
REMARK  status: ('A' for Active; 'I' for Inactive)
REMARK    1  A    between atoms: C_2  and  O_3 
REMARK    2  A    between atoms: O_3  and  C_4 
REMARK    3  A    between atoms: C_5  and  O_6 
REMARK    4  A    between atoms: C_9  and  C_10 
REMARK    5  A    between atoms: N_11  and  C_12 
REMARK    6  A    between atoms: C_12  and  C_13 
REMARK    7  A    between atoms: C_13  and  C_14 
REMARK    8  A    between atoms: C_14  and  N_15 
REMARK    9  A    between atoms: C_27  and  O_28 
REMARK   10  A    between atoms: C_27  and  C_29 
REMARK   11  A    between atoms: C_30  and  C_31 
ROOT
HETATM    1  C   UNL     1     -43.459  58.085 -54.986  1.00  0.00     0.161 C 
HETATM    2  N   UNL     1     -44.698  58.859 -55.083  1.00  0.00    -0.332 N 
HETATM    3  C   UNL     1     -45.233  58.793 -56.353  1.00  0.00     0.295 C 
HETATM    4  O   UNL     1     -46.071  59.539 -56.824  1.00  0.00    -0.264 OA
HETATM    5  C   UNL     1     -43.559  57.069 -56.104  1.00  0.00     0.058 C 
HETATM    6  C   UNL     1     -44.509  57.654 -57.079  1.00  0.00     0.250 C 
HETATM    7  O   UNL     1     -44.685  57.315 -58.229  1.00  0.00    -0.282 OA
HETATM    8  C   UNL     1     -43.025  55.854 -56.309  1.00  0.00     0.078 C 
ENDROOT
BRANCH   1   9
HETATM    9  C   UNL     1     -43.107  57.608 -53.599  1.00  0.00    -0.028 A 
HETATM   10  C   UNL     1     -43.969  56.794 -52.846  1.00  0.00     0.012 A 
HETATM   11  C   UNL     1     -43.585  56.346 -51.583  1.00  0.00     0.040 A 
HETATM   12  C   UNL     1     -42.343  56.705 -51.075  1.00  0.00     0.099 A 
HETATM   13  C   UNL     1     -41.460  57.512 -51.797  1.00  0.00     0.102 A 
HETATM   14  C   UNL     1     -41.847  57.957 -53.060  1.00  0.00     0.049 A 
BRANCH  12  15
HETATM   15  O   UNL     1     -41.994  56.239 -49.838  1.00  0.00    -0.358 OA
HETATM   16  H   UNL     1     -42.432  56.838 -49.201  1.00  0.00     0.218 HD
ENDBRANCH  12  15
BRANCH  13  17
HETATM   17  O   UNL     1     -40.272  57.789 -51.174  1.00  0.00    -0.349 OA
BRANCH  17  18
HETATM   18  C   UNL     1     -39.869  59.158 -51.120  1.00  0.00     0.171 C 
HETATM   19  C   UNL     1     -40.831  59.905 -50.215  1.00  0.00     0.034 C 
ENDBRANCH  17  18
ENDBRANCH  13  17
ENDBRANCH   1   9
BRANCH   2  20
HETATM   20  C   UNL     1     -45.116  59.865 -54.118  1.00  0.00     0.129 C 
BRANCH  20  21
HETATM   21  C   UNL     1     -44.533  61.262 -54.327  1.00  0.00     0.048 C 
BRANCH  21  22
HETATM   22  C   UNL     1     -43.035  61.369 -54.614  1.00  0.00     0.236 C 
BRANCH  22  23
HETATM   23  N   UNL     1     -42.691  61.790 -56.016  1.00  0.00    -0.067 N 
HETATM   24  H   UNL     1     -42.028  62.591 -55.951  1.00  0.00     0.280 HD
HETATM   25  C   UNL     1     -42.071  60.707 -56.888  1.00  0.00     0.261 C 
HETATM   26  C   UNL     1     -41.775  61.269 -58.283  1.00  0.00     0.195 C 
HETATM   27  O   UNL     1     -42.965  61.781 -58.891  1.00  0.00    -0.388 OA
HETATM   28  C   UNL     1     -43.521  62.858 -58.128  1.00  0.00     0.195 C 
HETATM   29  C   UNL     1     -43.913  62.382 -56.726  1.00  0.00     0.261 C 
ENDBRANCH  22  23
ENDBRANCH  21  22
ENDBRANCH  20  21
ENDBRANCH   2  20
BRANCH   8  30
HETATM   30  O   UNL     1     -43.209  55.120 -57.461  1.00  0.00    -0.360 OA
HETATM   31  H   UNL     1     -42.409  54.594 -57.667  1.00  0.00     0.217 HD
ENDBRANCH   8  30
BRANCH   8  32
HETATM   32  C   UNL     1     -42.273  55.136 -55.309  1.00  0.00     0.038 C 
HETATM   33  C   UNL     1     -42.343  53.824 -55.048  1.00  0.00     0.014 C 
BRANCH  33  34
HETATM   34  C   UNL     1     -41.492  53.232 -54.005  1.00  0.00    -0.036 A 
HETATM   35  C   UNL     1     -41.529  53.696 -52.682  1.00  0.00     0.011 A 
HETATM   36  C   UNL     1     -40.677  53.159 -51.716  1.00  0.00     0.001 A 
HETATM   37  C   UNL     1     -39.788  52.144 -52.060  1.00  0.00     0.000 A 
HETATM   38  C   UNL     1     -39.760  51.659 -53.367  1.00  0.00     0.001 A 
HETATM   39  C   UNL     1     -40.612  52.196 -54.335  1.00  0.00     0.011 A 
ENDBRANCH  33  34
ENDBRANCH   8  32
TORSDOF 11
ENDMDL
MODEL 3
REMARK VINA RESULT:      -7.4      1.415      2.510
REMARK  11 active torsions:
REMARK  status: ('A' for Active; 'I' for Inactive)
REMARK    1  A    between atoms: C_2  and  O_3 
REMARK    2  A    between atoms: O_3  and  C_4 
REMARK    3  A    between atoms: C_5  and  O_6 
REMARK    4  A    between atoms: C_9  and  C_10 
REMARK    5  A    between atoms: N_11  and  C_12 
REMARK    6  A    between atoms: C_12  and  C_13 
REMARK    7  A    between atoms: C_13  and  C_14 
REMARK    8  A    between atoms: C_14  and  N_15 
REMARK    9  A    between atoms: C_27  and  O_28 
REMARK   10  A    between atoms: C_27  and  C_29 
REMARK   11  A    between atoms: C_30  and  C_31 
ROOT
HETATM    1  C   UNL     1     -42.581  57.983 -55.109  1.00  0.00     0.161 C 
HETATM    2  N   UNL     1     -43.566  59.054 -55.263  1.00  0.00    -0.332 N 
HETATM    3  C   UNL     1     -44.218  58.966 -56.476  1.00  0.00     0.295 C 
HETATM    4  O   UNL     1     -44.863  59.846 -57.015  1.00  0.00    -0.264 OA
HETATM    5  C   UNL     1     -43.059  56.891 -56.042  1.00  0.00     0.058 C 
HETATM    6  C   UNL     1     -43.902  57.579 -57.047  1.00  0.00     0.250 C 
HETATM    7  O   UNL     1     -44.273  57.147 -58.117  1.00  0.00    -0.282 OA
HETATM    8  C   UNL     1     -42.897  55.558 -56.077  1.00  0.00     0.078 C 
ENDROOT
BRANCH   1   9
HETATM    9  C   UNL     1     -42.242  57.623 -53.683  1.00  0.00    -0.028 A 
HETATM   10  C   UNL     1     -40.986  57.900 -53.119  1.00  0.00     0.012 A 
HETATM   11  C   UNL     1     -40.730  57.583 -51.786  1.00  0.00     0.040 A 
HETATM   12  C   UNL     1     -41.727  56.995 -51.016  1.00  0.00     0.099 A 
HETATM   13  C   UNL     1     -42.988  56.706 -51.545  1.00  0.00     0.102 A 
HETATM   14  C   UNL     1     -43.239  57.026 -52.878  1.00  0.00     0.049 A 
BRANCH  12  15
HETATM   15  O   UNL     1     -41.445  56.706 -49.710  1.00  0.00    -0.358 OA
HETATM   16  H   UNL     1     -41.323  57.572 -49.273  1.00  0.00     0.218 HD
ENDBRANCH  12  15
BRANCH  13  17
HETATM   17  O   UNL     1     -43.871  56.125 -50.674  1.00  0.00    -0.349 OA
BRANCH  17  18
HETATM   18  C   UNL     1     -43.616  54.770 -50.297  1.00  0.00     0.171 C 
HETATM   19  C   UNL     1     -43.847  53.886 -51.509  1.00  0.00     0.034 C 
ENDBRANCH  17  18
ENDBRANCH  13  17
ENDBRANCH   1   9
BRANCH   2  20
HETATM   20  C   UNL     1     -43.602  60.261 -54.451  1.00  0.00     0.129 C 
BRANCH  20  21
HETATM   21  C   UNL     1     -44.784  60.375 -53.490  1.00  0.00     0.048 C 
BRANCH  21  22
HETATM   22  C   UNL     1     -45.422  61.753 -53.311  1.00  0.00     0.236 C 
BRANCH  22  23
HETATM   23  N   UNL     1     -44.789  62.608 -52.249  1.00  0.00    -0.067 N 
HETATM   24  H   UNL     1     -45.538  63.202 -51.833  1.00  0.00     0.280 HD
HETATM   25  C   UNL     1     -44.089  61.847 -51.132  1.00  0.00     0.261 C 
HETATM   26  C   UNL     1     -43.489  62.835 -50.125  1.00  0.00     0.195 C 
HETATM   27  O   UNL     1     -42.577  63.730 -50.769  1.00  0.00    -0.388 OA
HETATM   28  C   UNL     1     -43.234  64.516 -51.770  1.00  0.00     0.195 C 
HETATM   29  C   UNL     1     -43.818  63.620 -52.866  1.00  0.00     0.261 C 
ENDBRANCH  22  23
ENDBRANCH  21  22
ENDBRANCH  20  21
ENDBRANCH   2  20
BRANCH   8  30
HETATM   30  O   UNL     1     -43.383  54.754 -57.086  1.00  0.00    -0.360 OA
HETATM   31  H   UNL     1     -42.652  54.269 -57.522  1.00  0.00     0.217 HD
ENDBRANCH   8  30
BRANCH   8  32
HETATM   32  C   UNL     1     -42.277  54.803 -55.016  1.00  0.00     0.038 C 
HETATM   33  C   UNL     1     -41.161  54.067 -55.108  1.00  0.00     0.014 C 
BRANCH  33  34
HETATM   34  C   UNL     1     -40.639  53.368 -53.925  1.00  0.00    -0.036 A 
HETATM   35  C   UNL     1     -40.648  53.970 -52.658  1.00  0.00     0.011 A 
HETATM   36  C   UNL     1     -40.100  53.312 -51.555  1.00  0.00     0.001 A 
HETATM   37  C   UNL     1     -39.549  52.042 -51.705  1.00  0.00     0.000 A 
HETATM   38  C   UNL     1     -39.557  51.425 -52.955  1.00  0.00     0.001 A 
HETATM   39  C   UNL     1     -40.104  52.082 -54.060  1.00  0.00     0.011 A 
ENDBRANCH  33  34
ENDBRANCH   8  32
TORSDOF 11
ENDMDL
MODEL 4
REMARK VINA RESULT:      -7.3      3.037      8.509
REMARK  11 active torsions:
REMARK  status: ('A' for Active; 'I' for Inactive)
REMARK    1  A    between atoms: C_2  and  O_3 
REMARK    2  A    between atoms: O_3  and  C_4 
REMARK    3  A    between atoms: C_5  and  O_6 
REMARK    4  A    between atoms: C_9  and  C_10 
REMARK    5  A    between atoms: N_11  and  C_12 
REMARK    6  A    between atoms: C_12  and  C_13 
REMARK    7  A    between atoms: C_13  and  C_14 
REMARK    8  A    between atoms: C_14  and  N_15 
REMARK    9  A    between atoms: C_27  and  O_28 
REMARK   10  A    between atoms: C_27  and  C_29 
REMARK   11  A    between atoms: C_30  and  C_31 
ROOT
HETATM    1  C   UNL     1     -42.393  57.417 -55.368  1.00  0.00     0.161 C 
HETATM    2  N   UNL     1     -41.825  56.397 -54.485  1.00  0.00    -0.332 N 
HETATM    3  C   UNL     1     -42.117  56.659 -53.163  1.00  0.00     0.295 C 
HETATM    4  O   UNL     1     -41.561  56.180 -52.192  1.00  0.00    -0.264 OA
HETATM    5  C   UNL     1     -43.538  58.009 -54.574  1.00  0.00     0.058 C 
HETATM    6  C   UNL     1     -43.216  57.727 -53.156  1.00  0.00     0.250 C 
HETATM    7  O   UNL     1     -43.710  58.236 -52.174  1.00  0.00    -0.282 OA
HETATM    8  C   UNL     1     -44.678  58.635 -54.909  1.00  0.00     0.078 C 
ENDROOT
BRANCH   1   9
HETATM    9  C   UNL     1     -42.648  56.968 -56.786  1.00  0.00    -0.028 A 
HETATM   10  C   UNL     1     -43.376  55.805 -57.085  1.00  0.00     0.012 A 
HETATM   11  C   UNL     1     -43.619  55.451 -58.411  1.00  0.00     0.040 A 
HETATM   12  C   UNL     1     -43.140  56.257 -59.437  1.00  0.00     0.099 A 
HETATM   13  C   UNL     1     -42.413  57.422 -59.176  1.00  0.00     0.102 A 
HETATM   14  C   UNL     1     -42.174  57.773 -57.849  1.00  0.00     0.049 A 
BRANCH  12  15
HETATM   15  O   UNL     1     -43.405  55.885 -60.725  1.00  0.00    -0.358 OA
HETATM   16  H   UNL     1     -43.825  56.663 -61.140  1.00  0.00     0.218 HD
ENDBRANCH  12  15
BRANCH  13  17
HETATM   17  O   UNL     1     -42.001  58.117 -60.281  1.00  0.00    -0.349 OA
BRANCH  17  18
HETATM   18  C   UNL     1     -42.218  59.530 -60.280  1.00  0.00     0.171 C 
HETATM   19  C   UNL     1     -43.682  59.788 -60.587  1.00  0.00     0.034 C 
ENDBRANCH  17  18
ENDBRANCH  13  17
ENDBRANCH   1   9
BRANCH   2  20
HETATM   20  C   UNL     1     -40.784  55.458 -54.878  1.00  0.00     0.129 C 
BRANCH  20  21
HETATM   21  C   UNL     1     -41.164  53.981 -54.796  1.00  0.00     0.048 C 
BRANCH  21  22
HETATM   22  C   UNL     1     -40.032  52.966 -54.633  1.00  0.00     0.236 C 
BRANCH  22  23
HETATM   23  N   UNL     1     -40.212  51.997 -53.498  1.00  0.00    -0.067 N 
HETATM   24  H   UNL     1     -41.235  51.831 -53.384  1.00  0.00     0.280 HD
HETATM   25  C   UNL     1     -39.513  50.655 -53.668  1.00  0.00     0.261 C 
HETATM   26  C   UNL     1     -39.777  49.772 -52.444  1.00  0.00     0.195 C 
HETATM   27  O   UNL     1     -39.338  50.416 -51.244  1.00  0.00    -0.388 OA
HETATM   28  C   UNL     1     -40.044  51.643 -51.021  1.00  0.00     0.195 C 
HETATM   29  C   UNL     1     -39.792  52.628 -52.166  1.00  0.00     0.261 C 
ENDBRANCH  22  23
ENDBRANCH  21  22
ENDBRANCH  20  21
ENDBRANCH   2  20
BRANCH   8  30
HETATM   30  O   UNL     1     -45.561  59.161 -53.990  1.00  0.00    -0.360 OA
HETATM   31  H   UNL     1     -45.706  60.116 -54.159  1.00  0.00     0.217 HD
ENDBRANCH   8  30
BRANCH   8  32
HETATM   32  C   UNL     1     -45.157  58.748 -56.265  1.00  0.00     0.038 C 
HETATM   33  C   UNL     1     -46.260  58.181 -56.771  1.00  0.00     0.014 C 
BRANCH  33  34
HETATM   34  C   UNL     1     -46.628  58.408 -58.176  1.00  0.00    -0.036 A 
HETATM   35  C   UNL     1     -46.569  57.375 -59.122  1.00  0.00     0.011 A 
HETATM   36  C   UNL     1     -46.872  57.619 -60.463  1.00  0.00     0.001 A 
HETATM   37  C   UNL     1     -47.248  58.897 -60.869  1.00  0.00     0.000 A 
HETATM   38  C   UNL     1     -47.334  59.926 -59.932  1.00  0.00     0.001 A 
HETATM   39  C   UNL     1     -47.030  59.683 -58.590  1.00  0.00     0.011 A 
ENDBRANCH  33  34
ENDBRANCH   8  32
TORSDOF 11
ENDMDL
MODEL 5
REMARK VINA RESULT:      -7.0      2.121      4.144
REMARK  11 active torsions:
REMARK  status: ('A' for Active; 'I' for Inactive)
REMARK    1  A    between atoms: C_2  and  O_3 
REMARK    2  A    between atoms: O_3  and  C_4 
REMARK    3  A    between atoms: C_5  and  O_6 
REMARK    4  A    between atoms: C_9  and  C_10 
REMARK    5  A    between atoms: N_11  and  C_12 
REMARK    6  A    between atoms: C_12  and  C_13 
REMARK    7  A    between atoms: C_13  and  C_14 
REMARK    8  A    between atoms: C_14  and  N_15 
REMARK    9  A    between atoms: C_27  and  O_28 
REMARK   10  A    between atoms: C_27  and  C_29 
REMARK   11  A    between atoms: C_30  and  C_31 
ROOT
HETATM    1  C   UNL     1     -42.989  58.243 -55.714  1.00  0.00     0.161 C 
HETATM    2  N   UNL     1     -44.123  59.160 -55.849  1.00  0.00    -0.332 N 
HETATM    3  C   UNL     1     -44.788  58.962 -57.041  1.00  0.00     0.295 C 
HETATM    4  O   UNL     1     -45.568  59.733 -57.569  1.00  0.00    -0.264 OA
HETATM    5  C   UNL     1     -43.332  57.082 -56.622  1.00  0.00     0.058 C 
HETATM    6  C   UNL     1     -44.293  57.628 -57.608  1.00  0.00     0.250 C 
HETATM    7  O   UNL     1     -44.627  57.132 -58.662  1.00  0.00    -0.282 OA
HETATM    8  C   UNL     1     -42.980  55.786 -56.649  1.00  0.00     0.078 C 
ENDROOT
BRANCH   1   9
HETATM    9  C   UNL     1     -42.562  57.956 -54.296  1.00  0.00    -0.028 A 
HETATM   10  C   UNL     1     -41.222  58.044 -53.884  1.00  0.00     0.012 A 
HETATM   11  C   UNL     1     -40.879  57.805 -52.554  1.00  0.00     0.040 A 
HETATM   12  C   UNL     1     -41.871  57.483 -51.636  1.00  0.00     0.099 A 
HETATM   13  C   UNL     1     -43.214  57.388 -52.010  1.00  0.00     0.102 A 
HETATM   14  C   UNL     1     -43.552  57.628 -53.341  1.00  0.00     0.049 A 
BRANCH  12  15
HETATM   15  O   UNL     1     -41.501  57.266 -50.338  1.00  0.00    -0.358 OA
HETATM   16  H   UNL     1     -42.051  56.519 -50.032  1.00  0.00     0.218 HD
ENDBRANCH  12  15
BRANCH  13  17
HETATM   17  O   UNL     1     -44.083  57.060 -51.003  1.00  0.00    -0.349 OA
BRANCH  17  18
HETATM   18  C   UNL     1     -45.348  57.724 -50.994  1.00  0.00     0.171 C 
HETATM   19  C   UNL     1     -45.123  59.176 -50.613  1.00  0.00     0.034 C 
ENDBRANCH  17  18
ENDBRANCH  13  17
ENDBRANCH   1   9
BRANCH   2  20
HETATM   20  C   UNL     1     -44.308  60.361 -55.047  1.00  0.00     0.129 C 
BRANCH  20  21
HETATM   21  C   UNL     1     -43.261  61.455 -55.247  1.00  0.00     0.048 C 
BRANCH  21  22
HETATM   22  C   UNL     1     -43.606  62.601 -56.199  1.00  0.00     0.236 C 
BRANCH  22  23
HETATM   23  N   UNL     1     -42.875  62.572 -57.512  1.00  0.00    -0.067 N 
HETATM   24  H   UNL     1     -42.374  63.480 -57.615  1.00  0.00     0.280 HD
HETATM   25  C   UNL     1     -41.873  61.438 -57.675  1.00  0.00     0.261 C 
HETATM   26  C   UNL     1     -41.206  61.526 -59.053  1.00  0.00     0.195 C 
HETATM   27  O   UNL     1     -42.183  61.485 -60.097  1.00  0.00    -0.388 OA
HETATM   28  C   UNL     1     -43.088  62.592 -60.011  1.00  0.00     0.195 C 
HETATM   29  C   UNL     1     -43.858  62.560 -58.688  1.00  0.00     0.261 C 
ENDBRANCH  22  23
ENDBRANCH  21  22
ENDBRANCH  20  21
ENDBRANCH   2  20
BRANCH   8  30
HETATM   30  O   UNL     1     -43.374  54.906 -57.635  1.00  0.00    -0.360 OA
HETATM   31  H   UNL     1     -43.033  55.193 -58.508  1.00  0.00     0.217 HD
ENDBRANCH   8  30
BRANCH   8  32
HETATM   32  C   UNL     1     -42.228  55.142 -55.600  1.00  0.00     0.038 C 
HETATM   33  C   UNL     1     -42.655  54.152 -54.804  1.00  0.00     0.014 C 
BRANCH  33  34
HETATM   34  C   UNL     1     -41.758  53.582 -53.789  1.00  0.00    -0.036 A 
HETATM   35  C   UNL     1     -40.790  52.624 -54.124  1.00  0.00     0.011 A 
HETATM   36  C   UNL     1     -39.981  52.054 -53.139  1.00  0.00     0.001 A 
HETATM   37  C   UNL     1     -40.124  52.447 -51.810  1.00  0.00     0.000 A 
HETATM   38  C   UNL     1     -41.066  53.416 -51.469  1.00  0.00     0.001 A 
HETATM   39  C   UNL     1     -41.876  53.986 -52.455  1.00  0.00     0.011 A 
ENDBRANCH  33  34
ENDBRANCH   8  32
TORSDOF 11
ENDMDL
MODEL 6
REMARK VINA RESULT:      -6.9      2.255      6.054
REMARK  11 active torsions:
REMARK  status: ('A' for Active; 'I' for Inactive)
REMARK    1  A    between atoms: C_2  and  O_3 
REMARK    2  A    between atoms: O_3  and  C_4 
REMARK    3  A    between atoms: C_5  and  O_6 
REMARK    4  A    between atoms: C_9  and  C_10 
REMARK    5  A    between atoms: N_11  and  C_12 
REMARK    6  A    between atoms: C_12  and  C_13 
REMARK    7  A    between atoms: C_13  and  C_14 
REMARK    8  A    between atoms: C_14  and  N_15 
REMARK    9  A    between atoms: C_27  and  O_28 
REMARK   10  A    between atoms: C_27  and  C_29 
REMARK   11  A    between atoms: C_30  and  C_31 
ROOT
HETATM    1  C   UNL     1     -44.531  58.043 -53.873  1.00  0.00     0.161 C 
HETATM    2  N   UNL     1     -44.642  59.353 -54.517  1.00  0.00    -0.332 N 
HETATM    3  C   UNL     1     -45.496  60.183 -53.821  1.00  0.00     0.295 C 
HETATM    4  O   UNL     1     -46.014  61.202 -54.241  1.00  0.00    -0.264 OA
HETATM    5  C   UNL     1     -44.912  58.298 -52.430  1.00  0.00     0.058 C 
HETATM    6  C   UNL     1     -45.731  59.532 -52.455  1.00  0.00     0.250 C 
HETATM    7  O   UNL     1     -46.453  59.953 -51.578  1.00  0.00    -0.282 OA
HETATM    8  C   UNL     1     -44.627  57.684 -51.269  1.00  0.00     0.078 C 
ENDROOT
BRANCH   1   9
HETATM    9  C   UNL     1     -43.257  57.289 -54.166  1.00  0.00    -0.028 A 
HETATM   10  C   UNL     1     -41.990  57.818 -53.874  1.00  0.00     0.012 A 
HETATM   11  C   UNL     1     -40.842  57.069 -54.128  1.00  0.00     0.040 A 
HETATM   12  C   UNL     1     -40.959  55.794 -54.668  1.00  0.00     0.099 A 
HETATM   13  C   UNL     1     -42.204  55.236 -54.970  1.00  0.00     0.102 A 
HETATM   14  C   UNL     1     -43.349  55.988 -54.714  1.00  0.00     0.049 A 
BRANCH  12  15
HETATM   15  O   UNL     1     -39.813  55.083 -54.895  1.00  0.00    -0.358 OA
HETATM   16  H   UNL     1     -40.107  54.219 -55.242  1.00  0.00     0.218 HD
ENDBRANCH  12  15
BRANCH  13  17
HETATM   17  O   UNL     1     -42.169  53.974 -55.500  1.00  0.00    -0.349 OA
BRANCH  17  18
HETATM   18  C   UNL     1     -42.353  52.883 -54.595  1.00  0.00     0.171 C 
HETATM   19  C   UNL     1     -41.067  52.079 -54.548  1.00  0.00     0.034 C 
ENDBRANCH  17  18
ENDBRANCH  13  17
ENDBRANCH   1   9
BRANCH   2  20
HETATM   20  C   UNL     1     -44.232  59.633 -55.885  1.00  0.00     0.129 C 
BRANCH  20  21
HETATM   21  C   UNL     1     -45.036  58.921 -56.973  1.00  0.00     0.048 C 
BRANCH  21  22
HETATM   22  C   UNL     1     -44.563  59.076 -58.419  1.00  0.00     0.236 C 
BRANCH  22  23
HETATM   23  N   UNL     1     -44.337  57.781 -59.150  1.00  0.00    -0.067 N 
HETATM   24  H   UNL     1     -43.815  58.000 -60.025  1.00  0.00     0.280 HD
HETATM   25  C   UNL     1     -43.571  56.720 -58.373  1.00  0.00     0.261 C 
HETATM   26  C   UNL     1     -43.415  55.459 -59.231  1.00  0.00     0.195 C 
HETATM   27  O   UNL     1     -44.692  54.957 -59.638  1.00  0.00    -0.388 OA
HETATM   28  C   UNL     1     -45.397  55.910 -60.441  1.00  0.00     0.195 C 
HETATM   29  C   UNL     1     -45.662  57.194 -59.648  1.00  0.00     0.261 C 
ENDBRANCH  22  23
ENDBRANCH  21  22
ENDBRANCH  20  21
ENDBRANCH   2  20
BRANCH   8  30
HETATM   30  O   UNL     1     -45.153  58.064 -50.053  1.00  0.00    -0.360 OA
HETATM   31  H   UNL     1     -45.484  57.284 -49.562  1.00  0.00     0.217 HD
ENDBRANCH   8  30
BRANCH   8  32
HETATM   32  C   UNL     1     -43.666  56.616 -51.148  1.00  0.00     0.038 C 
HETATM   33  C   UNL     1     -42.463  56.688 -50.562  1.00  0.00     0.014 C 
BRANCH  33  34
HETATM   34  C   UNL     1     -41.600  55.500 -50.500  1.00  0.00    -0.036 A 
HETATM   35  C   UNL     1     -40.484  55.452 -49.651  1.00  0.00     0.011 A 
HETATM   36  C   UNL     1     -39.645  54.336 -49.642  1.00  0.00     0.001 A 
HETATM   37  C   UNL     1     -39.920  53.253 -50.472  1.00  0.00     0.000 A 
HETATM   38  C   UNL     1     -41.040  53.280 -51.302  1.00  0.00     0.001 A 
HETATM   39  C   UNL     1     -41.880  54.396 -51.312  1.00  0.00     0.011 A 
ENDBRANCH  33  34
ENDBRANCH   8  32
TORSDOF 11
ENDMDL
MODEL 7
REMARK VINA RESULT:      -6.8      3.316      8.391
REMARK  11 active torsions:
REMARK  status: ('A' for Active; 'I' for Inactive)
REMARK    1  A    between atoms: C_2  and  O_3 
REMARK    2  A    between atoms: O_3  and  C_4 
REMARK    3  A    between atoms: C_5  and  O_6 
REMARK    4  A    between atoms: C_9  and  C_10 
REMARK    5  A    between atoms: N_11  and  C_12 
REMARK    6  A    between atoms: C_12  and  C_13 
REMARK    7  A    between atoms: C_13  and  C_14 
REMARK    8  A    between atoms: C_14  and  N_15 
REMARK    9  A    between atoms: C_27  and  O_28 
REMARK   10  A    between atoms: C_27  and  C_29 
REMARK   11  A    between atoms: C_30  and  C_31 
ROOT
HETATM    1  C   UNL     1     -42.436  57.074 -55.782  1.00  0.00     0.161 C 
HETATM    2  N   UNL     1     -43.158  56.291 -54.778  1.00  0.00    -0.332 N 
HETATM    3  C   UNL     1     -43.028  56.845 -53.521  1.00  0.00     0.295 C 
HETATM    4  O   UNL     1     -43.255  56.292 -52.461  1.00  0.00    -0.264 OA
HETATM    5  C   UNL     1     -42.330  58.458 -55.178  1.00  0.00     0.058 C 
HETATM    6  C   UNL     1     -42.466  58.257 -53.716  1.00  0.00     0.250 C 
HETATM    7  O   UNL     1     -42.186  59.042 -52.837  1.00  0.00    -0.282 OA
HETATM    8  C   UNL     1     -42.191  59.691 -55.692  1.00  0.00     0.078 C 
ENDROOT
BRANCH   1   9
HETATM    9  C   UNL     1     -42.949  56.936 -57.194  1.00  0.00    -0.028 A 
HETATM   10  C   UNL     1     -42.192  56.329 -58.210  1.00  0.00     0.012 A 
HETATM   11  C   UNL     1     -42.721  56.190 -59.492  1.00  0.00     0.040 A 
HETATM   12  C   UNL     1     -44.005  56.651 -59.758  1.00  0.00     0.099 A 
HETATM   13  C   UNL     1     -44.786  57.258 -58.772  1.00  0.00     0.102 A 
HETATM   14  C   UNL     1     -44.253  57.394 -57.492  1.00  0.00     0.049 A 
BRANCH  12  15
HETATM   15  O   UNL     1     -44.497  56.489 -61.024  1.00  0.00    -0.358 OA
HETATM   16  H   UNL     1     -45.465  56.407 -60.918  1.00  0.00     0.218 HD
ENDBRANCH  12  15
BRANCH  13  17
HETATM   17  O   UNL     1     -46.030  57.666 -59.176  1.00  0.00    -0.349 OA
BRANCH  17  18
HETATM   18  C   UNL     1     -47.028  57.811 -58.163  1.00  0.00     0.171 C 
HETATM   19  C   UNL     1     -47.474  59.262 -58.136  1.00  0.00     0.034 C 
ENDBRANCH  17  18
ENDBRANCH  13  17
ENDBRANCH   1   9
BRANCH   2  20
HETATM   20  C   UNL     1     -43.623  54.927 -54.979  1.00  0.00     0.129 C 
BRANCH  20  21
HETATM   21  C   UNL     1     -42.533  53.858 -55.022  1.00  0.00     0.048 C 
BRANCH  21  22
HETATM   22  C   UNL     1     -41.083  54.317 -54.857  1.00  0.00     0.236 C 
BRANCH  22  23
HETATM   23  N   UNL     1     -40.298  53.564 -53.819  1.00  0.00    -0.067 N 
HETATM   24  H   UNL     1     -39.294  53.818 -53.936  1.00  0.00     0.280 HD
HETATM   25  C   UNL     1     -40.706  53.826 -52.376  1.00  0.00     0.261 C 
HETATM   26  C   UNL     1     -39.831  52.996 -51.429  1.00  0.00     0.195 C 
HETATM   27  O   UNL     1     -39.931  51.602 -51.732  1.00  0.00    -0.388 OA
HETATM   28  C   UNL     1     -39.473  51.321 -53.059  1.00  0.00     0.195 C 
HETATM   29  C   UNL     1     -40.329  52.057 -54.094  1.00  0.00     0.261 C 
ENDBRANCH  22  23
ENDBRANCH  21  22
ENDBRANCH  20  21
ENDBRANCH   2  20
BRANCH   8  30
HETATM   30  O   UNL     1     -42.046  60.828 -54.927  1.00  0.00    -0.360 OA
HETATM   31  H   UNL     1     -41.100  61.073 -54.850  1.00  0.00     0.217 HD
ENDBRANCH   8  30
BRANCH   8  32
HETATM   32  C   UNL     1     -42.272  59.979 -57.103  1.00  0.00     0.038 C 
HETATM   33  C   UNL     1     -41.380  60.665 -57.830  1.00  0.00     0.014 C 
BRANCH  33  34
HETATM   34  C   UNL     1     -41.594  60.858 -59.271  1.00  0.00    -0.036 A 
HETATM   35  C   UNL     1     -42.256  59.896 -60.047  1.00  0.00     0.011 A 
HETATM   36  C   UNL     1     -42.406  60.071 -61.424  1.00  0.00     0.001 A 
HETATM   37  C   UNL     1     -41.904  61.216 -62.037  1.00  0.00     0.000 A 
HETATM   38  C   UNL     1     -41.265  62.191 -61.272  1.00  0.00     0.001 A 
HETATM   39  C   UNL     1     -41.115  62.016 -59.893  1.00  0.00     0.011 A 
ENDBRANCH  33  34
ENDBRANCH   8  32
TORSDOF 11
ENDMDL
MODEL 8
REMARK VINA RESULT:      -6.8      2.082      5.760
REMARK  11 active torsions:
REMARK  status: ('A' for Active; 'I' for Inactive)
REMARK    1  A    between atoms: C_2  and  O_3 
REMARK    2  A    between atoms: O_3  and  C_4 
REMARK    3  A    between atoms: C_5  and  O_6 
REMARK    4  A    between atoms: C_9  and  C_10 
REMARK    5  A    between atoms: N_11  and  C_12 
REMARK    6  A    between atoms: C_12  and  C_13 
REMARK    7  A    between atoms: C_13  and  C_14 
REMARK    8  A    between atoms: C_14  and  N_15 
REMARK    9  A    between atoms: C_27  and  O_28 
REMARK   10  A    between atoms: C_27  and  C_29 
REMARK   11  A    between atoms: C_30  and  C_31 
ROOT
HETATM    1  C   UNL     1     -42.448  56.285 -53.041  1.00  0.00     0.161 C 
HETATM    2  N   UNL     1     -41.856  56.584 -51.737  1.00  0.00    -0.332 N 
HETATM    3  C   UNL     1     -41.163  55.499 -51.240  1.00  0.00     0.295 C 
HETATM    4  O   UNL     1     -40.816  55.331 -50.085  1.00  0.00    -0.264 OA
HETATM    5  C   UNL     1     -41.607  55.152 -53.588  1.00  0.00     0.058 C 
HETATM    6  C   UNL     1     -40.992  54.514 -52.401  1.00  0.00     0.250 C 
HETATM    7  O   UNL     1     -40.460  53.427 -52.342  1.00  0.00    -0.282 OA
HETATM    8  C   UNL     1     -41.329  54.711 -54.827  1.00  0.00     0.078 C 
ENDROOT
BRANCH   1   9
HETATM    9  C   UNL     1     -42.710  57.485 -53.918  1.00  0.00    -0.028 A 
HETATM   10  C   UNL     1     -41.690  58.372 -54.297  1.00  0.00     0.012 A 
HETATM   11  C   UNL     1     -41.971  59.446 -55.140  1.00  0.00     0.040 A 
HETATM   12  C   UNL     1     -43.267  59.632 -55.606  1.00  0.00     0.099 A 
HETATM   13  C   UNL     1     -44.306  58.768 -55.250  1.00  0.00     0.102 A 
HETATM   14  C   UNL     1     -44.019  57.695 -54.409  1.00  0.00     0.049 A 
BRANCH  12  15
HETATM   15  O   UNL     1     -43.506  60.690 -56.439  1.00  0.00    -0.358 OA
HETATM   16  H   UNL     1     -44.460  60.879 -56.353  1.00  0.00     0.218 HD
ENDBRANCH  12  15
BRANCH  13  17
HETATM   17  O   UNL     1     -45.531  59.073 -55.781  1.00  0.00    -0.349 OA
BRANCH  17  18
HETATM   18  C   UNL     1     -46.014  58.230 -56.829  1.00  0.00     0.171 C 
HETATM   19  C   UNL     1     -46.313  59.096 -58.040  1.00  0.00     0.034 C 
ENDBRANCH  17  18
ENDBRANCH  13  17
ENDBRANCH   1   9
BRANCH   2  20
HETATM   20  C   UNL     1     -42.244  57.707 -50.896  1.00  0.00     0.129 C 
BRANCH  20  21
HETATM   21  C   UNL     1     -41.177  58.782 -50.698  1.00  0.00     0.048 C 
BRANCH  21  22
HETATM   22  C   UNL     1     -41.651  60.209 -50.423  1.00  0.00     0.236 C 
BRANCH  22  23
HETATM   23  N   UNL     1     -43.097  60.467 -50.746  1.00  0.00    -0.067 N 
HETATM   24  H   UNL     1     -43.567  59.542 -50.849  1.00  0.00     0.280 HD
HETATM   25  C   UNL     1     -43.858  61.294 -49.720  1.00  0.00     0.261 C 
HETATM   26  C   UNL     1     -45.309  61.481 -50.175  1.00  0.00     0.195 C 
HETATM   27  O   UNL     1     -45.365  62.105 -51.461  1.00  0.00    -0.388 OA
HETATM   28  C   UNL     1     -44.726  61.303 -52.460  1.00  0.00     0.195 C 
HETATM   29  C   UNL     1     -43.243  61.108 -52.131  1.00  0.00     0.261 C 
ENDBRANCH  22  23
ENDBRANCH  21  22
ENDBRANCH  20  21
ENDBRANCH   2  20
BRANCH   8  30
HETATM   30  O   UNL     1     -40.570  53.591 -55.088  1.00  0.00    -0.360 OA
HETATM   31  H   UNL     1     -40.819  53.201 -55.952  1.00  0.00     0.217 HD
ENDBRANCH   8  30
BRANCH   8  32
HETATM   32  C   UNL     1     -41.714  55.413 -56.027  1.00  0.00     0.038 C 
HETATM   33  C   UNL     1     -42.777  55.150 -56.798  1.00  0.00     0.014 C 
BRANCH  33  34
HETATM   34  C   UNL     1     -43.050  55.973 -57.985  1.00  0.00    -0.036 A 
HETATM   35  C   UNL     1     -42.571  57.287 -58.088  1.00  0.00     0.011 A 
HETATM   36  C   UNL     1     -42.882  58.073 -59.199  1.00  0.00     0.001 A 
HETATM   37  C   UNL     1     -43.665  57.548 -60.224  1.00  0.00     0.000 A 
HETATM   38  C   UNL     1     -44.127  56.235 -60.143  1.00  0.00     0.001 A 
HETATM   39  C   UNL     1     -43.816  55.448 -59.031  1.00  0.00     0.011 A 
ENDBRANCH  33  34
ENDBRANCH   8  32
TORSDOF 11
ENDMDL
MODEL 9
REMARK VINA RESULT:      -6.8      3.026      5.683
REMARK  11 active torsions:
REMARK  status: ('A' for Active; 'I' for Inactive)
REMARK    1  A    between atoms: C_2  and  O_3 
REMARK    2  A    between atoms: O_3  and  C_4 
REMARK    3  A    between atoms: C_5  and  O_6 
REMARK    4  A    between atoms: C_9  and  C_10 
REMARK    5  A    between atoms: N_11  and  C_12 
REMARK    6  A    between atoms: C_12  and  C_13 
REMARK    7  A    between atoms: C_13  and  C_14 
REMARK    8  A    between atoms: C_14  and  N_15 
REMARK    9  A    between atoms: C_27  and  O_28 
REMARK   10  A    between atoms: C_27  and  C_29 
REMARK   11  A    between atoms: C_30  and  C_31 
ROOT
HETATM    1  C   UNL     1     -45.350  59.464 -53.595  1.00  0.00     0.161 C 
HETATM    2  N   UNL     1     -45.475  60.906 -53.378  1.00  0.00    -0.332 N 
HETATM    3  C   UNL     1     -45.924  61.185 -52.104  1.00  0.00     0.295 C 
HETATM    4  O   UNL     1     -46.397  62.238 -51.719  1.00  0.00    -0.264 OA
HETATM    5  C   UNL     1     -45.196  58.884 -52.206  1.00  0.00     0.058 C 
HETATM    6  C   UNL     1     -45.790  59.890 -51.295  1.00  0.00     0.250 C 
HETATM    7  O   UNL     1     -46.116  59.734 -50.139  1.00  0.00    -0.282 OA
HETATM    8  C   UNL     1     -44.639  57.762 -51.721  1.00  0.00     0.078 C 
ENDROOT
BRANCH   1   9
HETATM    9  C   UNL     1     -44.367  59.059 -54.665  1.00  0.00    -0.028 A 
HETATM   10  C   UNL     1     -42.999  59.364 -54.580  1.00  0.00     0.012 A 
HETATM   11  C   UNL     1     -42.121  58.936 -55.575  1.00  0.00     0.040 A 
HETATM   12  C   UNL     1     -42.606  58.201 -56.650  1.00  0.00     0.099 A 
HETATM   13  C   UNL     1     -43.961  57.878 -56.766  1.00  0.00     0.102 A 
HETATM   14  C   UNL     1     -44.835  58.308 -55.769  1.00  0.00     0.049 A 
BRANCH  12  15
HETATM   15  O   UNL     1     -41.716  57.789 -57.602  1.00  0.00    -0.358 OA
HETATM   16  H   UNL     1     -40.832  57.969 -57.227  1.00  0.00     0.218 HD
ENDBRANCH  12  15
BRANCH  13  17
HETATM   17  O   UNL     1     -44.299  57.153 -57.877  1.00  0.00    -0.349 OA
BRANCH  17  18
HETATM   18  C   UNL     1     -44.974  57.848 -58.928  1.00  0.00     0.171 C 
HETATM   19  C   UNL     1     -46.362  57.254 -59.079  1.00  0.00     0.034 C 
ENDBRANCH  17  18
ENDBRANCH  13  17
ENDBRANCH   1   9
BRANCH   2  20
HETATM   20  C   UNL     1     -45.500  61.898 -54.443  1.00  0.00     0.129 C 
BRANCH  20  21
HETATM   21  C   UNL     1     -46.746  61.883 -55.328  1.00  0.00     0.048 C 
BRANCH  21  22
HETATM   22  C   UNL     1     -47.911  62.788 -54.927  1.00  0.00     0.236 C 
BRANCH  22  23
HETATM   23  N   UNL     1     -49.181  62.063 -54.577  1.00  0.00    -0.067 N 
HETATM   24  H   UNL     1     -48.953  61.049 -54.496  1.00  0.00     0.280 HD
HETATM   25  C   UNL     1     -49.858  62.519 -53.292  1.00  0.00     0.261 C 
HETATM   26  C   UNL     1     -51.134  61.703 -53.059  1.00  0.00     0.195 C 
HETATM   27  O   UNL     1     -52.030  61.827 -54.168  1.00  0.00    -0.388 OA
HETATM   28  C   UNL     1     -51.442  61.327 -55.374  1.00  0.00     0.195 C 
HETATM   29  C   UNL     1     -50.184  62.124 -55.734  1.00  0.00     0.261 C 
ENDBRANCH  22  23
ENDBRANCH  21  22
ENDBRANCH  20  21
ENDBRANCH   2  20
BRANCH   8  30
HETATM   30  O   UNL     1     -44.677  57.401 -50.391  1.00  0.00    -0.360 OA
HETATM   31  H   UNL     1     -45.564  57.062 -50.151  1.00  0.00     0.217 HD
ENDBRANCH   8  30
BRANCH   8  32
HETATM   32  C   UNL     1     -43.856  56.852 -52.520  1.00  0.00     0.038 C 
HETATM   33  C   UNL     1     -42.596  56.463 -52.284  1.00  0.00     0.014 C 
BRANCH  33  34
HETATM   34  C   UNL     1     -41.937  55.507 -53.185  1.00  0.00    -0.036 A 
HETATM   35  C   UNL     1     -40.870  55.897 -54.008  1.00  0.00     0.011 A 
HETATM   36  C   UNL     1     -40.289  54.990 -54.897  1.00  0.00     0.001 A 
HETATM   37  C   UNL     1     -40.761  53.682 -54.963  1.00  0.00     0.000 A 
HETATM   38  C   UNL     1     -41.805  53.277 -54.132  1.00  0.00     0.001 A 
HETATM   39  C   UNL     1     -42.388  54.184 -53.242  1.00  0.00     0.011 A 
ENDBRANCH  33  34
ENDBRANCH   8  32
TORSDOF 11
ENDMDL
MODEL 10
REMARK VINA RESULT:      -6.8      2.190      5.754
REMARK  11 active torsions:
REMARK  status: ('A' for Active; 'I' for Inactive)
REMARK    1  A    between atoms: C_2  and  O_3 
REMARK    2  A    between atoms: O_3  and  C_4 
REMARK    3  A    between atoms: C_5  and  O_6 
REMARK    4  A    between atoms: C_9  and  C_10 
REMARK    5  A    between atoms: N_11  and  C_12 
REMARK    6  A    between atoms: C_12  and  C_13 
REMARK    7  A    between atoms: C_13  and  C_14 
REMARK    8  A    between atoms: C_14  and  N_15 
REMARK    9  A    between atoms: C_27  and  O_28 
REMARK   10  A    between atoms: C_27  and  C_29 
REMARK   11  A    between atoms: C_30  and  C_31 
ROOT
HETATM    1  C   UNL     1     -44.928  58.461 -53.823  1.00  0.00     0.161 C 
HETATM    2  N   UNL     1     -44.936  59.788 -54.441  1.00  0.00    -0.332 N 
HETATM    3  C   UNL     1     -45.729  60.667 -53.731  1.00  0.00     0.295 C 
HETATM    4  O   UNL     1     -46.165  61.730 -54.132  1.00  0.00    -0.264 OA
HETATM    5  C   UNL     1     -45.296  58.715 -52.377  1.00  0.00     0.058 C 
HETATM    6  C   UNL     1     -46.019  60.008 -52.379  1.00  0.00     0.250 C 
HETATM    7  O   UNL     1     -46.712  60.465 -51.497  1.00  0.00    -0.282 OA
HETATM    8  C   UNL     1     -45.066  58.058 -51.228  1.00  0.00     0.078 C 
ENDROOT
BRANCH   1   9
HETATM    9  C   UNL     1     -43.714  57.619 -54.127  1.00  0.00    -0.028 A 
HETATM   10  C   UNL     1     -43.790  56.445 -54.894  1.00  0.00     0.012 A 
HETATM   11  C   UNL     1     -42.635  55.719 -55.180  1.00  0.00     0.040 A 
HETATM   12  C   UNL     1     -41.407  56.164 -54.706  1.00  0.00     0.099 A 
HETATM   13  C   UNL     1     -41.295  57.328 -53.940  1.00  0.00     0.102 A 
HETATM   14  C   UNL     1     -42.452  58.051 -53.657  1.00  0.00     0.049 A 
BRANCH  12  15
HETATM   15  O   UNL     1     -40.294  55.433 -55.014  1.00  0.00    -0.358 OA
HETATM   16  H   UNL     1     -39.571  55.823 -54.484  1.00  0.00     0.218 HD
ENDBRANCH  12  15
BRANCH  13  17
HETATM   17  O   UNL     1     -40.026  57.647 -53.538  1.00  0.00    -0.349 OA
BRANCH  17  18
HETATM   18  C   UNL     1     -39.847  58.905 -52.884  1.00  0.00     0.171 C 
HETATM   19  C   UNL     1     -39.847  58.668 -51.384  1.00  0.00     0.034 C 
ENDBRANCH  17  18
ENDBRANCH  13  17
ENDBRANCH   1   9
BRANCH   2  20
HETATM   20  C   UNL     1     -44.499  60.064 -55.801  1.00  0.00     0.129 C 
BRANCH  20  21
HETATM   21  C   UNL     1     -45.292  59.362 -56.903  1.00  0.00     0.048 C 
BRANCH  21  22
HETATM   22  C   UNL     1     -44.605  59.164 -58.255  1.00  0.00     0.236 C 
BRANCH  22  23
HETATM   23  N   UNL     1     -44.481  57.732 -58.695  1.00  0.00    -0.067 N 
HETATM   24  H   UNL     1     -44.666  57.129 -57.865  1.00  0.00     0.280 HD
HETATM   25  C   UNL     1     -45.413  57.314 -59.824  1.00  0.00     0.261 C 
HETATM   26  C   UNL     1     -45.179  55.840 -60.173  1.00  0.00     0.195 C 
HETATM   27  O   UNL     1     -43.815  55.612 -60.539  1.00  0.00    -0.388 OA
HETATM   28  C   UNL     1     -42.925  55.920 -59.461  1.00  0.00     0.195 C 
HETATM   29  C   UNL     1     -43.034  57.399 -59.075  1.00  0.00     0.261 C 
ENDBRANCH  22  23
ENDBRANCH  21  22
ENDBRANCH  20  21
ENDBRANCH   2  20
BRANCH   8  30
HETATM   30  O   UNL     1     -45.568  58.453 -50.006  1.00  0.00    -0.360 OA
HETATM   31  H   UNL     1     -45.172  57.922 -49.283  1.00  0.00     0.217 HD
ENDBRANCH   8  30
BRANCH   8  32
HETATM   32  C   UNL     1     -44.189  56.918 -51.124  1.00  0.00     0.038 C 
HETATM   33  C   UNL     1     -42.959  56.902 -50.592  1.00  0.00     0.014 C 
BRANCH  33  34
HETATM   34  C   UNL     1     -42.193  55.649 -50.541  1.00  0.00    -0.036 A 
HETATM   35  C   UNL     1     -41.252  55.410 -49.529  1.00  0.00     0.011 A 
HETATM   36  C   UNL     1     -40.495  54.236 -49.524  1.00  0.00     0.001 A 
HETATM   37  C   UNL     1     -40.680  53.286 -50.525  1.00  0.00     0.000 A 
HETATM   38  C   UNL     1     -41.630  53.503 -51.522  1.00  0.00     0.001 A 
HETATM   39  C   UNL     1     -42.388  54.677 -51.527  1.00  0.00     0.011 A 
ENDBRANCH  33  34
ENDBRANCH   8  32
TORSDOF 11
ENDMDL
