MODEL 1
REMARK VINA RESULT:      -8.2      0.000      0.000
REMARK  4 active torsions:
REMARK  status: ('A' for Active; 'I' for Inactive)
REMARK    1  A    between atoms: N_2  and  C_3 
REMARK    2  A    between atoms: C_5  and  C_6 
REMARK    3  A    between atoms: C_6  and  C_7 
REMARK    4  A    between atoms: C_14  and  O_15 
ROOT
HETATM    1  C   UNL     1     -40.145  52.946 -51.643  1.00  0.00     0.113 A 
HETATM    2  N   UNL     1     -40.525  53.981 -52.417  1.00  0.00    -0.223 NA
HETATM    3  C   UNL     1     -40.582  53.801 -53.763  1.00  0.00     0.106 A 
HETATM    4  N   UNL     1     -40.261  52.645 -54.368  1.00  0.00    -0.347 N 
HETATM    5  H   UNL     1     -40.275  52.584 -55.387  1.00  0.00     0.167 HD
HETATM    6  C   UNL     1     -39.899  51.618 -53.604  1.00  0.00     0.020 A 
HETATM    7  C   UNL     1     -39.838  51.738 -52.227  1.00  0.00     0.005 A 
HETATM    8  C   UNL     1     -39.388  50.452 -51.610  1.00  0.00     0.044 C 
HETATM    9  C   UNL     1     -39.617  49.464 -52.770  1.00  0.00     0.011 C 
HETATM   10  C   UNL     1     -39.479  50.263 -54.075  1.00  0.00     0.058 C 
ENDROOT
BRANCH   3  11
HETATM   11  C   UNL     1     -40.976  54.966 -54.622  1.00  0.00     0.085 C 
BRANCH  11  12
HETATM   12  C   UNL     1     -42.493  55.269 -54.595  1.00  0.00     0.021 C 
HETATM   13  C   UNL     1     -42.823  56.760 -54.498  1.00  0.00     0.181 C 
HETATM   14  O   UNL     1     -42.098  57.485 -55.504  1.00  0.00    -0.350 OA
HETATM   15  C   UNL     1     -42.407  57.039 -56.772  1.00  0.00     0.077 A 
HETATM   16  C   UNL     1     -42.886  55.741 -57.019  1.00  0.00    -0.024 A 
HETATM   17  C   UNL     1     -42.166  57.927 -57.824  1.00  0.00     0.074 A 
HETATM   18  C   UNL     1     -43.141  54.770 -55.893  1.00  0.00     0.048 C 
HETATM   19  C   UNL     1     -43.153  55.358 -58.335  1.00  0.00     0.012 A 
HETATM   20  C   UNL     1     -42.923  56.250 -59.383  1.00  0.00     0.037 A 
HETATM   21  C   UNL     1     -42.434  57.535 -59.136  1.00  0.00     0.070 A 
BRANCH  21  22
HETATM   22  O   UNL     1     -42.255  58.296 -60.257  1.00  0.00    -0.356 OA
HETATM   23  C   UNL     1     -42.057  59.691 -60.074  1.00  0.00     0.210 C 
ENDBRANCH  21  22
ENDBRANCH  11  12
ENDBRANCH   3  11
BRANCH   1  24
HETATM   24  N   UNL     1     -40.143  53.064 -50.258  1.00  0.00    -0.281 NA
HETATM   25  C   UNL     1     -39.719  54.348 -49.720  1.00  0.00     0.114 C 
HETATM   26  H   UNL     1     -39.664  52.289 -49.806  1.00  0.00     0.128 HD
ENDBRANCH   1  24
TORSDOF 4
ENDMDL
MODEL 2
REMARK VINA RESULT:      -8.0      3.178      8.056
REMARK  4 active torsions:
REMARK  status: ('A' for Active; 'I' for Inactive)
REMARK    1  A    between atoms: N_2  and  C_3 
REMARK    2  A    between atoms: C_5  and  C_6 
REMARK    3  A    between atoms: C_6  and  C_7 
REMARK    4  A    between atoms: C_14  and  O_15 
ROOT
HETATM    1  C   UNL     1     -43.809  57.395 -57.972  1.00  0.00     0.113 A 
HETATM    2  N   UNL     1     -43.250  56.957 -56.827  1.00  0.00    -0.223 NA
HETATM    3  C   UNL     1     -43.124  55.617 -56.635  1.00  0.00     0.106 A 
HETATM    4  N   UNL     1     -43.545  54.701 -57.523  1.00  0.00    -0.347 N 
HETATM    5  H   UNL     1     -43.469  53.706 -57.301  1.00  0.00     0.167 HD
HETATM    6  C   UNL     1     -44.085  55.132 -58.659  1.00  0.00     0.020 A 
HETATM    7  C   UNL     1     -44.226  56.484 -58.916  1.00  0.00     0.005 A 
HETATM    8  C   UNL     1     -44.874  56.699 -60.246  1.00  0.00     0.044 C 
HETATM    9  C   UNL     1     -44.692  55.315 -60.898  1.00  0.00     0.011 C 
HETATM   10  C   UNL     1     -44.639  54.284 -59.758  1.00  0.00     0.058 C 
ENDROOT
BRANCH   3  11
HETATM   11  C   UNL     1     -42.528  55.135 -55.345  1.00  0.00     0.085 C 
BRANCH  11  12
HETATM   12  C   UNL     1     -41.038  55.514 -55.173  1.00  0.00     0.021 C 
HETATM   13  C   UNL     1     -40.710  56.122 -53.808  1.00  0.00     0.181 C 
HETATM   14  O   UNL     1     -41.227  55.283 -52.764  1.00  0.00    -0.350 OA
HETATM   15  C   UNL     1     -40.695  54.011 -52.826  1.00  0.00     0.077 A 
HETATM   16  C   UNL     1     -40.198  53.460 -54.019  1.00  0.00    -0.024 A 
HETATM   17  C   UNL     1     -40.725  53.262 -51.647  1.00  0.00     0.074 A 
HETATM   18  C   UNL     1     -40.169  54.256 -55.301  1.00  0.00     0.048 C 
HETATM   19  C   UNL     1     -39.698  52.156 -54.004  1.00  0.00     0.012 A 
HETATM   20  C   UNL     1     -39.718  51.413 -52.824  1.00  0.00     0.037 A 
HETATM   21  C   UNL     1     -40.225  51.959 -51.642  1.00  0.00     0.070 A 
BRANCH  21  22
HETATM   22  O   UNL     1     -40.184  51.116 -50.568  1.00  0.00    -0.356 OA
HETATM   23  C   UNL     1     -39.551  49.857 -50.749  1.00  0.00     0.210 C 
ENDBRANCH  21  22
ENDBRANCH  11  12
ENDBRANCH   3  11
BRANCH   1  24
HETATM   24  N   UNL     1     -43.891  58.757 -58.241  1.00  0.00    -0.281 NA
HETATM   25  C   UNL     1     -42.666  59.402 -58.689  1.00  0.00     0.114 C 
HETATM   26  H   UNL     1     -44.334  59.272 -57.483  1.00  0.00     0.128 HD
ENDBRANCH   1  24
TORSDOF 4
ENDMDL
MODEL 3
REMARK VINA RESULT:      -7.9      2.213      3.338
REMARK  4 active torsions:
REMARK  status: ('A' for Active; 'I' for Inactive)
REMARK    1  A    between atoms: N_2  and  C_3 
REMARK    2  A    between atoms: C_5  and  C_6 
REMARK    3  A    between atoms: C_6  and  C_7 
REMARK    4  A    between atoms: C_14  and  O_15 
ROOT
HETATM    1  C   UNL     1     -40.195  52.972 -51.657  1.00  0.00     0.113 A 
HETATM    2  N   UNL     1     -40.532  54.016 -52.438  1.00  0.00    -0.223 NA
HETATM    3  C   UNL     1     -40.540  53.845 -53.786  1.00  0.00     0.106 A 
HETATM    4  N   UNL     1     -40.212  52.689 -54.386  1.00  0.00    -0.347 N 
HETATM    5  H   UNL     1     -40.189  52.634 -55.406  1.00  0.00     0.167 HD
HETATM    6  C   UNL     1     -39.892  51.653 -53.617  1.00  0.00     0.020 A 
HETATM    7  C   UNL     1     -39.881  51.763 -52.237  1.00  0.00     0.005 A 
HETATM    8  C   UNL     1     -39.472  50.468 -51.612  1.00  0.00     0.044 C 
HETATM    9  C   UNL     1     -39.669  49.491 -52.786  1.00  0.00     0.011 C 
HETATM   10  C   UNL     1     -39.472  50.296 -54.080  1.00  0.00     0.058 C 
ENDROOT
BRANCH   3  11
HETATM   11  C   UNL     1     -40.887  55.021 -54.652  1.00  0.00     0.085 C 
BRANCH  11  12
HETATM   12  C   UNL     1     -42.041  54.739 -55.643  1.00  0.00     0.021 C 
HETATM   13  C   UNL     1     -43.337  54.287 -54.968  1.00  0.00     0.181 C 
HETATM   14  O   UNL     1     -43.680  55.197 -53.912  1.00  0.00    -0.350 OA
HETATM   15  C   UNL     1     -43.847  56.483 -54.385  1.00  0.00     0.077 A 
HETATM   16  C   UNL     1     -43.230  56.938 -55.562  1.00  0.00    -0.024 A 
HETATM   17  C   UNL     1     -44.621  57.342 -53.602  1.00  0.00     0.074 A 
HETATM   18  C   UNL     1     -42.384  56.022 -56.412  1.00  0.00     0.048 C 
HETATM   19  C   UNL     1     -43.430  58.261 -55.962  1.00  0.00     0.012 A 
HETATM   20  C   UNL     1     -44.212  59.115 -55.185  1.00  0.00     0.037 A 
HETATM   21  C   UNL     1     -44.813  58.663 -54.008  1.00  0.00     0.070 A 
BRANCH  21  22
HETATM   22  O   UNL     1     -45.547  59.610 -53.349  1.00  0.00    -0.356 OA
HETATM   23  C   UNL     1     -45.218  59.862 -51.990  1.00  0.00     0.210 C 
ENDBRANCH  21  22
ENDBRANCH  11  12
ENDBRANCH   3  11
BRANCH   1  24
HETATM   24  N   UNL     1     -40.244  53.082 -50.272  1.00  0.00    -0.281 NA
HETATM   25  C   UNL     1     -39.745  54.326 -49.705  1.00  0.00     0.114 C 
HETATM   26  H   UNL     1     -39.845  52.269 -49.807  1.00  0.00     0.128 HD
ENDBRANCH   1  24
TORSDOF 4
ENDMDL
MODEL 4
REMARK VINA RESULT:      -7.8      3.630      7.922
REMARK  4 active torsions:
REMARK  status: ('A' for Active; 'I' for Inactive)
REMARK    1  A    between atoms: N_2  and  C_3 
REMARK    2  A    between atoms: C_5  and  C_6 
REMARK    3  A    between atoms: C_6  and  C_7 
REMARK    4  A    between atoms: C_14  and  O_15 
ROOT
HETATM    1  C   UNL     1     -44.948  58.563 -54.489  1.00  0.00     0.113 A 
HETATM    2  N   UNL     1     -44.334  57.471 -54.985  1.00  0.00    -0.223 NA
HETATM    3  C   UNL     1     -43.882  56.527 -54.118  1.00  0.00     0.106 A 
HETATM    4  N   UNL     1     -44.000  56.633 -52.784  1.00  0.00    -0.347 N 
HETATM    5  H   UNL     1     -43.596  55.915 -52.179  1.00  0.00     0.167 HD
HETATM    6  C   UNL     1     -44.618  57.703 -52.292  1.00  0.00     0.020 A 
HETATM    7  C   UNL     1     -45.112  58.690 -53.128  1.00  0.00     0.005 A 
HETATM    8  C   UNL     1     -45.740  59.786 -52.328  1.00  0.00     0.044 C 
HETATM    9  C   UNL     1     -45.924  59.096 -50.963  1.00  0.00     0.011 C 
HETATM   10  C   UNL     1     -44.827  58.025 -50.848  1.00  0.00     0.058 C 
ENDROOT
BRANCH   3  11
HETATM   11  C   UNL     1     -43.172  55.329 -54.675  1.00  0.00     0.085 C 
BRANCH  11  12
HETATM   12  C   UNL     1     -41.696  55.605 -55.052  1.00  0.00     0.021 C 
HETATM   13  C   UNL     1     -40.869  56.194 -53.908  1.00  0.00     0.181 C 
HETATM   14  O   UNL     1     -41.033  55.396 -52.726  1.00  0.00    -0.350 OA
HETATM   15  C   UNL     1     -40.640  54.090 -52.937  1.00  0.00     0.077 A 
HETATM   16  C   UNL     1     -40.633  53.503 -54.213  1.00  0.00    -0.024 A 
HETATM   17  C   UNL     1     -40.296  53.349 -51.803  1.00  0.00     0.074 A 
HETATM   18  C   UNL     1     -41.011  54.290 -55.443  1.00  0.00     0.048 C 
HETATM   19  C   UNL     1     -40.244  52.167 -54.340  1.00  0.00     0.012 A 
HETATM   20  C   UNL     1     -39.891  51.432 -53.208  1.00  0.00     0.037 A 
HETATM   21  C   UNL     1     -39.911  52.015 -51.939  1.00  0.00     0.070 A 
BRANCH  21  22
HETATM   22  O   UNL     1     -39.544  51.175 -50.926  1.00  0.00    -0.356 OA
HETATM   23  C   UNL     1     -39.538  49.782 -51.203  1.00  0.00     0.210 C 
ENDBRANCH  21  22
ENDBRANCH  11  12
ENDBRANCH   3  11
BRANCH   1  24
HETATM   24  N   UNL     1     -45.490  59.517 -55.342  1.00  0.00    -0.281 NA
HETATM   25  C   UNL     1     -45.498  59.186 -56.760  1.00  0.00     0.114 C 
HETATM   26  H   UNL     1     -45.108  60.445 -55.173  1.00  0.00     0.128 HD
ENDBRANCH   1  24
TORSDOF 4
ENDMDL
MODEL 5
REMARK VINA RESULT:      -7.8      1.201      2.551
REMARK  4 active torsions:
REMARK  status: ('A' for Active; 'I' for Inactive)
REMARK    1  A    between atoms: N_2  and  C_3 
REMARK    2  A    between atoms: C_5  and  C_6 
REMARK    3  A    between atoms: C_6  and  C_7 
REMARK    4  A    between atoms: C_14  and  O_15 
ROOT
HETATM    1  C   UNL     1     -40.073  52.353 -53.335  1.00  0.00     0.113 A 
HETATM    2  N   UNL     1     -40.363  53.120 -54.404  1.00  0.00    -0.223 NA
HETATM    3  C   UNL     1     -40.884  54.358 -54.195  1.00  0.00     0.106 A 
HETATM    4  N   UNL     1     -41.143  54.854 -52.974  1.00  0.00    -0.347 N 
HETATM    5  H   UNL     1     -41.581  55.772 -52.881  1.00  0.00     0.167 HD
HETATM    6  C   UNL     1     -40.845  54.104 -51.917  1.00  0.00     0.020 A 
HETATM    7  C   UNL     1     -40.299  52.841 -52.067  1.00  0.00     0.005 A 
HETATM    8  C   UNL     1     -40.077  52.205 -50.733  1.00  0.00     0.044 C 
HETATM    9  C   UNL     1     -40.163  53.427 -49.798  1.00  0.00     0.011 C 
HETATM   10  C   UNL     1     -41.078  54.454 -50.483  1.00  0.00     0.058 C 
ENDROOT
BRANCH   3  11
HETATM   11  C   UNL     1     -41.233  55.195 -55.390  1.00  0.00     0.085 C 
BRANCH  11  12
HETATM   12  C   UNL     1     -42.756  55.397 -55.580  1.00  0.00     0.021 C 
HETATM   13  C   UNL     1     -43.219  56.837 -55.352  1.00  0.00     0.181 C 
HETATM   14  O   UNL     1     -42.408  57.738 -56.121  1.00  0.00    -0.350 OA
HETATM   15  C   UNL     1     -42.474  57.454 -57.470  1.00  0.00     0.077 A 
HETATM   16  C   UNL     1     -42.798  56.176 -57.956  1.00  0.00    -0.024 A 
HETATM   17  C   UNL     1     -42.146  58.493 -58.345  1.00  0.00     0.074 A 
HETATM   18  C   UNL     1     -43.146  55.044 -57.021  1.00  0.00     0.048 C 
HETATM   19  C   UNL     1     -42.822  55.963 -59.336  1.00  0.00     0.012 A 
HETATM   20  C   UNL     1     -42.504  57.004 -60.209  1.00  0.00     0.037 A 
HETATM   21  C   UNL     1     -42.169  58.271 -59.722  1.00  0.00     0.070 A 
BRANCH  21  22
HETATM   22  O   UNL     1     -41.879  59.189 -60.692  1.00  0.00    -0.356 OA
HETATM   23  C   UNL     1     -41.806  60.552 -60.299  1.00  0.00     0.210 C 
ENDBRANCH  21  22
ENDBRANCH  11  12
ENDBRANCH   3  11
BRANCH   1  24
HETATM   24  N   UNL     1     -39.472  51.111 -53.500  1.00  0.00    -0.281 NA
HETATM   25  C   UNL     1     -40.198  50.144 -54.311  1.00  0.00     0.114 C 
HETATM   26  H   UNL     1     -39.169  50.709 -52.615  1.00  0.00     0.128 HD
ENDBRANCH   1  24
TORSDOF 4
ENDMDL
MODEL 6
REMARK VINA RESULT:      -7.7      3.086      8.191
REMARK  4 active torsions:
REMARK  status: ('A' for Active; 'I' for Inactive)
REMARK    1  A    between atoms: N_2  and  C_3 
REMARK    2  A    between atoms: C_5  and  C_6 
REMARK    3  A    between atoms: C_6  and  C_7 
REMARK    4  A    between atoms: C_14  and  O_15 
ROOT
HETATM    1  C   UNL     1     -43.330  56.464 -58.092  1.00  0.00     0.113 A 
HETATM    2  N   UNL     1     -42.793  55.428 -57.418  1.00  0.00    -0.223 NA
HETATM    3  C   UNL     1     -43.007  55.343 -56.078  1.00  0.00     0.106 A 
HETATM    4  N   UNL     1     -43.714  56.250 -55.383  1.00  0.00    -0.347 N 
HETATM    5  H   UNL     1     -43.799  56.159 -54.369  1.00  0.00     0.167 HD
HETATM    6  C   UNL     1     -44.255  57.265 -56.049  1.00  0.00     0.020 A 
HETATM    7  C   UNL     1     -44.085  57.396 -57.417  1.00  0.00     0.005 A 
HETATM    8  C   UNL     1     -44.776  58.625 -57.914  1.00  0.00     0.044 C 
HETATM    9  C   UNL     1     -45.717  58.940 -56.736  1.00  0.00     0.011 C 
HETATM   10  C   UNL     1     -45.049  58.390 -55.466  1.00  0.00     0.058 C 
ENDROOT
BRANCH   3  11
HETATM   11  C   UNL     1     -42.381  54.204 -55.328  1.00  0.00     0.085 C 
BRANCH  11  12
HETATM   12  C   UNL     1     -40.849  54.342 -55.161  1.00  0.00     0.021 C 
HETATM   13  C   UNL     1     -40.413  55.676 -54.552  1.00  0.00     0.181 C 
HETATM   14  O   UNL     1     -41.160  55.930 -53.352  1.00  0.00    -0.350 OA
HETATM   15  C   UNL     1     -40.976  54.930 -52.419  1.00  0.00     0.077 A 
HETATM   16  C   UNL     1     -40.605  53.624 -52.778  1.00  0.00    -0.024 A 
HETATM   17  C   UNL     1     -41.232  55.262 -51.086  1.00  0.00     0.074 A 
HETATM   18  C   UNL     1     -40.334  53.250 -54.215  1.00  0.00     0.048 C 
HETATM   19  C   UNL     1     -40.461  52.661 -51.776  1.00  0.00     0.012 A 
HETATM   20  C   UNL     1     -40.707  52.998 -50.444  1.00  0.00     0.037 A 
HETATM   21  C   UNL     1     -41.089  54.294 -50.092  1.00  0.00     0.070 A 
BRANCH  21  22
HETATM   22  O   UNL     1     -41.299  54.477 -48.754  1.00  0.00    -0.356 OA
HETATM   23  C   UNL     1     -40.476  53.742 -47.858  1.00  0.00     0.210 C 
ENDBRANCH  21  22
ENDBRANCH  11  12
ENDBRANCH   3  11
BRANCH   1  24
HETATM   24  N   UNL     1     -43.198  56.551 -59.473  1.00  0.00    -0.281 NA
HETATM   25  C   UNL     1     -44.193  55.841 -60.264  1.00  0.00     0.114 C 
HETATM   26  H   UNL     1     -42.251  56.342 -59.783  1.00  0.00     0.128 HD
ENDBRANCH   1  24
TORSDOF 4
ENDMDL
MODEL 7
REMARK VINA RESULT:      -7.7      3.194      7.410
REMARK  4 active torsions:
REMARK  status: ('A' for Active; 'I' for Inactive)
REMARK    1  A    between atoms: N_2  and  C_3 
REMARK    2  A    between atoms: C_5  and  C_6 
REMARK    3  A    between atoms: C_6  and  C_7 
REMARK    4  A    between atoms: C_14  and  O_15 
ROOT
HETATM    1  C   UNL     1     -41.731  57.393 -54.254  1.00  0.00     0.113 A 
HETATM    2  N   UNL     1     -40.929  56.318 -54.118  1.00  0.00    -0.223 NA
HETATM    3  C   UNL     1     -40.917  55.386 -55.107  1.00  0.00     0.106 A 
HETATM    4  N   UNL     1     -41.679  55.471 -56.211  1.00  0.00    -0.347 N 
HETATM    5  H   UNL     1     -41.665  54.714 -56.897  1.00  0.00     0.167 HD
HETATM    6  C   UNL     1     -42.461  56.537 -56.352  1.00  0.00     0.020 A 
HETATM    7  C   UNL     1     -42.503  57.526 -55.385  1.00  0.00     0.005 A 
HETATM    8  C   UNL     1     -43.469  58.598 -55.776  1.00  0.00     0.044 C 
HETATM    9  C   UNL     1     -43.647  58.311 -57.279  1.00  0.00     0.011 C 
HETATM   10  C   UNL     1     -43.401  56.808 -57.482  1.00  0.00     0.058 C 
ENDROOT
BRANCH   3  11
HETATM   11  C   UNL     1     -40.046  54.177 -54.937  1.00  0.00     0.085 C 
BRANCH  11  12
HETATM   12  C   UNL     1     -40.833  52.893 -54.583  1.00  0.00     0.021 C 
HETATM   13  C   UNL     1     -40.073  51.938 -53.661  1.00  0.00     0.181 C 
HETATM   14  O   UNL     1     -39.575  52.655 -52.520  1.00  0.00    -0.350 OA
HETATM   15  C   UNL     1     -40.599  53.246 -51.807  1.00  0.00     0.077 A 
HETATM   16  C   UNL     1     -41.829  53.583 -52.395  1.00  0.00    -0.024 A 
HETATM   17  C   UNL     1     -40.335  53.550 -50.469  1.00  0.00     0.074 A 
HETATM   18  C   UNL     1     -42.123  53.268 -53.841  1.00  0.00     0.048 C 
HETATM   19  C   UNL     1     -42.807  54.201 -51.611  1.00  0.00     0.012 A 
HETATM   20  C   UNL     1     -42.546  54.495 -50.273  1.00  0.00     0.037 A 
HETATM   21  C   UNL     1     -41.316  54.170 -49.694  1.00  0.00     0.070 A 
BRANCH  21  22
HETATM   22  O   UNL     1     -41.202  54.519 -48.378  1.00  0.00    -0.356 OA
HETATM   23  C   UNL     1     -40.201  53.863 -47.613  1.00  0.00     0.210 C 
ENDBRANCH  21  22
ENDBRANCH  11  12
ENDBRANCH   3  11
BRANCH   1  24
HETATM   24  N   UNL     1     -41.719  58.406 -53.301  1.00  0.00    -0.281 NA
HETATM   25  C   UNL     1     -40.410  58.859 -52.855  1.00  0.00     0.114 C 
HETATM   26  H   UNL     1     -42.336  58.203 -52.517  1.00  0.00     0.128 HD
ENDBRANCH   1  24
TORSDOF 4
ENDMDL
MODEL 8
REMARK VINA RESULT:      -7.5     14.437     15.773
REMARK  4 active torsions:
REMARK  status: ('A' for Active; 'I' for Inactive)
REMARK    1  A    between atoms: N_2  and  C_3 
REMARK    2  A    between atoms: C_5  and  C_6 
REMARK    3  A    between atoms: C_6  and  C_7 
REMARK    4  A    between atoms: C_14  and  O_15 
ROOT
HETATM    1  C   UNL     1     -35.421  40.369 -51.121  1.00  0.00     0.113 A 
HETATM    2  N   UNL     1     -35.924  40.575 -52.354  1.00  0.00    -0.223 NA
HETATM    3  C   UNL     1     -35.061  40.760 -53.387  1.00  0.00     0.106 A 
HETATM    4  N   UNL     1     -33.725  40.768 -53.241  1.00  0.00    -0.347 N 
HETATM    5  H   UNL     1     -33.127  40.962 -54.047  1.00  0.00     0.167 HD
HETATM    6  C   UNL     1     -33.226  40.552 -52.028  1.00  0.00     0.020 A 
HETATM    7  C   UNL     1     -34.057  40.341 -50.940  1.00  0.00     0.005 A 
HETATM    8  C   UNL     1     -33.250  40.144 -49.697  1.00  0.00     0.044 C 
HETATM    9  C   UNL     1     -31.859  39.840 -50.286  1.00  0.00     0.011 C 
HETATM   10  C   UNL     1     -31.781  40.548 -51.647  1.00  0.00     0.058 C 
ENDROOT
BRANCH   3  11
HETATM   11  C   UNL     1     -35.628  41.019 -54.752  1.00  0.00     0.085 C 
BRANCH  11  12
HETATM   12  C   UNL     1     -34.600  41.611 -55.746  1.00  0.00     0.021 C 
HETATM   13  C   UNL     1     -33.849  40.554 -56.558  1.00  0.00     0.181 C 
HETATM   14  O   UNL     1     -34.784  39.643 -57.155  1.00  0.00    -0.350 OA
HETATM   15  C   UNL     1     -35.672  40.298 -57.984  1.00  0.00     0.077 A 
HETATM   16  C   UNL     1     -35.985  41.658 -57.827  1.00  0.00    -0.024 A 
HETATM   17  C   UNL     1     -36.298  39.525 -58.966  1.00  0.00     0.074 A 
HETATM   18  C   UNL     1     -35.323  42.500 -56.765  1.00  0.00     0.048 C 
HETATM   19  C   UNL     1     -36.912  42.243 -58.694  1.00  0.00     0.012 A 
HETATM   20  C   UNL     1     -37.528  41.473 -59.680  1.00  0.00     0.037 A 
HETATM   21  C   UNL     1     -37.224  40.117 -59.825  1.00  0.00     0.070 A 
BRANCH  21  22
HETATM   22  O   UNL     1     -37.906  39.490 -60.830  1.00  0.00    -0.356 OA
HETATM   23  C   UNL     1     -37.138  38.877 -61.857  1.00  0.00     0.210 C 
ENDBRANCH  21  22
ENDBRANCH  11  12
ENDBRANCH   3  11
BRANCH   1  24
HETATM   24  N   UNL     1     -36.266  40.103 -50.050  1.00  0.00    -0.281 NA
HETATM   25  C   UNL     1     -37.237  39.036 -50.243  1.00  0.00     0.114 C 
HETATM   26  H   UNL     1     -36.700  40.947 -49.684  1.00  0.00     0.128 HD
ENDBRANCH   1  24
TORSDOF 4
ENDMDL
MODEL 9
REMARK VINA RESULT:      -7.4      3.501      7.972
REMARK  4 active torsions:
REMARK  status: ('A' for Active; 'I' for Inactive)
REMARK    1  A    between atoms: N_2  and  C_3 
REMARK    2  A    between atoms: C_5  and  C_6 
REMARK    3  A    between atoms: C_6  and  C_7 
REMARK    4  A    between atoms: C_14  and  O_15 
ROOT
HETATM    1  C   UNL     1     -42.987  58.200 -57.101  1.00  0.00     0.113 A 
HETATM    2  N   UNL     1     -42.326  57.567 -56.111  1.00  0.00    -0.223 NA
HETATM    3  C   UNL     1     -42.113  56.230 -56.223  1.00  0.00     0.106 A 
HETATM    4  N   UNL     1     -42.542  55.498 -57.265  1.00  0.00    -0.347 N 
HETATM    5  H   UNL     1     -42.395  54.487 -57.270  1.00  0.00     0.167 HD
HETATM    6  C   UNL     1     -43.182  56.123 -58.248  1.00  0.00     0.020 A 
HETATM    7  C   UNL     1     -43.415  57.486 -58.197  1.00  0.00     0.005 A 
HETATM    8  C   UNL     1     -44.164  57.935 -59.410  1.00  0.00     0.044 C 
HETATM    9  C   UNL     1     -43.950  56.738 -60.357  1.00  0.00     0.011 C 
HETATM   10  C   UNL     1     -43.761  55.494 -59.474  1.00  0.00     0.058 C 
ENDROOT
BRANCH   3  11
HETATM   11  C   UNL     1     -41.404  55.525 -55.104  1.00  0.00     0.085 C 
BRANCH  11  12
HETATM   12  C   UNL     1     -41.913  54.084 -54.860  1.00  0.00     0.021 C 
HETATM   13  C   UNL     1     -40.857  53.150 -54.267  1.00  0.00     0.181 C 
HETATM   14  O   UNL     1     -40.255  53.762 -53.116  1.00  0.00    -0.350 OA
HETATM   15  C   UNL     1     -41.194  54.050 -52.146  1.00  0.00     0.077 A 
HETATM   16  C   UNL     1     -42.551  54.251 -52.448  1.00  0.00    -0.024 A 
HETATM   17  C   UNL     1     -40.720  54.190 -50.839  1.00  0.00     0.074 A 
HETATM   18  C   UNL     1     -43.073  54.112 -53.857  1.00  0.00     0.048 C 
HETATM   19  C   UNL     1     -43.435  54.563 -51.412  1.00  0.00     0.012 A 
HETATM   20  C   UNL     1     -42.962  54.692 -50.106  1.00  0.00     0.037 A 
HETATM   21  C   UNL     1     -41.610  54.504 -49.811  1.00  0.00     0.070 A 
BRANCH  21  22
HETATM   22  O   UNL     1     -41.292  54.665 -48.492  1.00  0.00    -0.356 OA
HETATM   23  C   UNL     1     -40.193  53.918 -47.989  1.00  0.00     0.210 C 
ENDBRANCH  21  22
ENDBRANCH  11  12
ENDBRANCH   3  11
BRANCH   1  24
HETATM   24  N   UNL     1     -43.163  59.579 -57.061  1.00  0.00    -0.281 NA
HETATM   25  C   UNL     1     -42.494  60.286 -55.979  1.00  0.00     0.114 C 
HETATM   26  H   UNL     1     -44.143  59.843 -57.135  1.00  0.00     0.128 HD
ENDBRANCH   1  24
TORSDOF 4
ENDMDL
MODEL 10
REMARK VINA RESULT:      -7.3      3.645      5.608
REMARK  4 active torsions:
REMARK  status: ('A' for Active; 'I' for Inactive)
REMARK    1  A    between atoms: N_2  and  C_3 
REMARK    2  A    between atoms: C_5  and  C_6 
REMARK    3  A    between atoms: C_6  and  C_7 
REMARK    4  A    between atoms: C_14  and  O_15 
ROOT
HETATM    1  C   UNL     1     -40.785  53.489 -50.805  1.00  0.00     0.113 A 
HETATM    2  N   UNL     1     -41.747  54.428 -50.900  1.00  0.00    -0.223 NA
HETATM    3  C   UNL     1     -42.305  54.668 -52.116  1.00  0.00     0.106 A 
HETATM    4  N   UNL     1     -41.934  54.028 -53.238  1.00  0.00    -0.347 N 
HETATM    5  H   UNL     1     -42.355  54.286 -54.132  1.00  0.00     0.167 HD
HETATM    6  C   UNL     1     -40.995  53.092 -53.144  1.00  0.00     0.020 A 
HETATM    7  C   UNL     1     -40.402  52.793 -51.929  1.00  0.00     0.005 A 
HETATM    8  C   UNL     1     -39.371  51.724 -52.100  1.00  0.00     0.044 C 
HETATM    9  C   UNL     1     -39.755  51.152 -53.478  1.00  0.00     0.011 C 
HETATM   10  C   UNL     1     -40.423  52.289 -54.267  1.00  0.00     0.058 C 
ENDROOT
BRANCH   3  11
HETATM   11  C   UNL     1     -43.353  55.736 -52.221  1.00  0.00     0.085 C 
BRANCH  11  12
HETATM   12  C   UNL     1     -43.084  56.757 -53.352  1.00  0.00     0.021 C 
HETATM   13  C   UNL     1     -44.300  57.614 -53.710  1.00  0.00     0.181 C 
HETATM   14  O   UNL     1     -44.858  58.190 -52.519  1.00  0.00    -0.350 OA
HETATM   15  C   UNL     1     -43.937  58.975 -51.857  1.00  0.00     0.077 A 
HETATM   16  C   UNL     1     -42.551  58.785 -51.989  1.00  0.00    -0.024 A 
HETATM   17  C   UNL     1     -44.449  59.946 -50.992  1.00  0.00     0.074 A 
HETATM   18  C   UNL     1     -41.986  57.734 -52.912  1.00  0.00     0.048 C 
HETATM   19  C   UNL     1     -41.683  59.607 -51.265  1.00  0.00     0.012 A 
HETATM   20  C   UNL     1     -42.196  60.583 -50.411  1.00  0.00     0.037 A 
HETATM   21  C   UNL     1     -43.575  60.761 -50.271  1.00  0.00     0.070 A 
BRANCH  21  22
HETATM   22  O   UNL     1     -43.930  61.750 -49.399  1.00  0.00    -0.356 OA
HETATM   23  C   UNL     1     -44.732  61.382 -48.285  1.00  0.00     0.210 C 
ENDBRANCH  21  22
ENDBRANCH  11  12
ENDBRANCH   3  11
BRANCH   1  24
HETATM   24  N   UNL     1     -40.240  53.160 -49.569  1.00  0.00    -0.281 NA
HETATM   25  C   UNL     1     -40.600  54.023 -48.454  1.00  0.00     0.114 C 
HETATM   26  H   UNL     1     -39.235  53.009 -49.621  1.00  0.00     0.128 HD
ENDBRANCH   1  24
TORSDOF 4
ENDMDL
