MODEL 1
REMARK VINA RESULT:      -8.9      0.000      0.000
REMARK  2 active torsions:
REMARK  status: ('A' for Active; 'I' for Inactive)
REMARK    1  A    between atoms: C_15  and  C_16 
REMARK    2  A    between atoms: C_19  and  O_20 
ROOT
HETATM    1  C   UNL     1     -44.050  62.293 -49.460  1.00  0.00     0.048 C 
HETATM    2  C   UNL     1     -44.270  60.968 -50.130  1.00  0.00    -0.061 A 
HETATM    3  C   UNL     1     -43.202  60.307 -50.766  1.00  0.00     0.021 A 
HETATM    4  C   UNL     1     -43.416  59.059 -51.384  1.00  0.00    -0.000 A 
HETATM    5  C   UNL     1     -44.705  58.510 -51.343  1.00  0.00     0.043 A 
HETATM    6  N   UNL     1     -44.671  57.323 -52.038  1.00  0.00    -0.353 N 
HETATM    7  H   UNL     1     -45.457  56.704 -52.188  1.00  0.00     0.166 HD
HETATM    8  C   UNL     1     -43.400  57.079 -52.454  1.00  0.00     0.066 A 
HETATM    9  C   UNL     1     -42.591  58.136 -52.088  1.00  0.00    -0.017 A 
HETATM   10  C   UNL     1     -41.126  58.165 -52.426  1.00  0.00     0.043 C 
HETATM   11  C   UNL     1     -40.751  57.065 -53.468  1.00  0.00     0.018 C 
HETATM   12  C   UNL     1     -41.427  55.718 -53.133  1.00  0.00     0.065 C 
HETATM   13  C   UNL     1     -42.911  55.954 -53.171  1.00  0.00     0.082 C 
HETATM   14  N   UNL     1     -43.623  55.179 -53.918  1.00  0.00    -0.203 NA
HETATM   15  C   UNL     1     -41.337  54.595 -54.173  1.00  0.00     0.121 C 
HETATM   16  N   UNL     1     -42.752  54.291 -54.444  1.00  0.00    -0.207 NA
HETATM   17  C   UNL     1     -45.771  59.129 -50.686  1.00  0.00     0.031 A 
HETATM   18  C   UNL     1     -45.530  60.362 -50.076  1.00  0.00     0.009 A 
HETATM   19  H   UNL     1     -42.938  54.049 -55.417  1.00  0.00     0.149 HD
ENDROOT
BRANCH  15  20
HETATM   20  C   UNL     1     -40.667  53.310 -53.713  1.00  0.00    -0.038 A 
HETATM   21  C   UNL     1     -40.261  53.132 -52.379  1.00  0.00     0.011 A 
HETATM   22  C   UNL     1     -39.786  51.898 -51.929  1.00  0.00     0.037 A 
HETATM   23  C   UNL     1     -39.753  50.811 -52.794  1.00  0.00     0.068 A 
HETATM   24  C   UNL     1     -40.120  50.971 -54.129  1.00  0.00     0.037 A 
HETATM   25  C   UNL     1     -40.579  52.214 -54.586  1.00  0.00     0.011 A 
BRANCH  23  26
HETATM   26  O   UNL     1     -39.330  49.622 -52.267  1.00  0.00    -0.356 OA
HETATM   27  C   UNL     1     -39.397  49.602 -50.842  1.00  0.00     0.210 C 
ENDBRANCH  23  26
ENDBRANCH  15  20
TORSDOF 2
ENDMDL
MODEL 2
REMARK VINA RESULT:      -8.8      3.243      8.580
REMARK  2 active torsions:
REMARK  status: ('A' for Active; 'I' for Inactive)
REMARK    1  A    between atoms: C_15  and  C_16 
REMARK    2  A    between atoms: C_19  and  O_20 
ROOT
HETATM    1  C   UNL     1     -39.663  49.782 -54.705  1.00  0.00     0.048 C 
HETATM    2  C   UNL     1     -39.859  50.827 -53.645  1.00  0.00    -0.061 A 
HETATM    3  C   UNL     1     -40.174  52.151 -54.003  1.00  0.00     0.021 A 
HETATM    4  C   UNL     1     -40.365  53.123 -53.000  1.00  0.00    -0.000 A 
HETATM    5  C   UNL     1     -40.235  52.731 -51.661  1.00  0.00     0.043 A 
HETATM    6  N   UNL     1     -40.427  53.849 -50.882  1.00  0.00    -0.353 N 
HETATM    7  H   UNL     1     -40.383  53.879 -49.872  1.00  0.00     0.166 HD
HETATM    8  C   UNL     1     -40.737  54.907 -51.678  1.00  0.00     0.066 A 
HETATM    9  C   UNL     1     -40.693  54.509 -52.999  1.00  0.00    -0.017 A 
HETATM   10  C   UNL     1     -40.974  55.468 -54.123  1.00  0.00     0.043 C 
HETATM   11  C   UNL     1     -40.991  56.949 -53.630  1.00  0.00     0.018 C 
HETATM   12  C   UNL     1     -41.761  57.091 -52.299  1.00  0.00     0.065 C 
HETATM   13  C   UNL     1     -41.047  56.238 -51.289  1.00  0.00     0.082 C 
HETATM   14  N   UNL     1     -40.686  56.793 -50.181  1.00  0.00    -0.203 NA
HETATM   15  C   UNL     1     -41.686  58.438 -51.570  1.00  0.00     0.121 C 
HETATM   16  N   UNL     1     -41.139  58.063 -50.254  1.00  0.00    -0.207 NA
HETATM   17  C   UNL     1     -39.959  51.415 -51.281  1.00  0.00     0.031 A 
HETATM   18  C   UNL     1     -39.780  50.471 -52.294  1.00  0.00     0.009 A 
HETATM   19  H   UNL     1     -40.502  58.758 -49.866  1.00  0.00     0.149 HD
ENDROOT
BRANCH  15  20
HETATM   20  C   UNL     1     -43.011  59.145 -51.336  1.00  0.00    -0.038 A 
HETATM   21  C   UNL     1     -44.229  58.442 -51.337  1.00  0.00     0.011 A 
HETATM   22  C   UNL     1     -45.423  59.068 -50.973  1.00  0.00     0.037 A 
HETATM   23  C   UNL     1     -45.411  60.395 -50.559  1.00  0.00     0.068 A 
HETATM   24  C   UNL     1     -44.223  61.122 -50.580  1.00  0.00     0.037 A 
HETATM   25  C   UNL     1     -43.027  60.499 -50.963  1.00  0.00     0.011 A 
BRANCH  23  26
HETATM   26  O   UNL     1     -46.609  60.922 -50.164  1.00  0.00    -0.356 OA
HETATM   27  C   UNL     1     -46.609  62.349 -50.175  1.00  0.00     0.210 C 
ENDBRANCH  23  26
ENDBRANCH  15  20
TORSDOF 2
ENDMDL
MODEL 3
REMARK VINA RESULT:      -8.6      4.054      5.483
REMARK  2 active torsions:
REMARK  status: ('A' for Active; 'I' for Inactive)
REMARK    1  A    between atoms: C_15  and  C_16 
REMARK    2  A    between atoms: C_19  and  O_20 
ROOT
HETATM    1  C   UNL     1     -42.297  60.446 -61.527  1.00  0.00     0.048 C 
HETATM    2  C   UNL     1     -42.223  60.113 -60.066  1.00  0.00    -0.061 A 
HETATM    3  C   UNL     1     -42.435  58.792 -59.626  1.00  0.00     0.021 A 
HETATM    4  C   UNL     1     -42.354  58.488 -58.252  1.00  0.00    -0.000 A 
HETATM    5  C   UNL     1     -42.061  59.525 -57.358  1.00  0.00     0.043 A 
HETATM    6  N   UNL     1     -42.075  58.994 -56.088  1.00  0.00    -0.353 N 
HETATM    7  H   UNL     1     -41.908  59.506 -55.233  1.00  0.00     0.166 HD
HETATM    8  C   UNL     1     -42.299  57.655 -56.162  1.00  0.00     0.066 A 
HETATM    9  C   UNL     1     -42.497  57.299 -57.481  1.00  0.00    -0.017 A 
HETATM   10  C   UNL     1     -42.787  55.879 -57.882  1.00  0.00     0.043 C 
HETATM   11  C   UNL     1     -43.140  54.990 -56.648  1.00  0.00     0.018 C 
HETATM   12  C   UNL     1     -42.189  55.267 -55.464  1.00  0.00     0.065 C 
HETATM   13  C   UNL     1     -42.357  56.715 -55.098  1.00  0.00     0.082 C 
HETATM   14  N   UNL     1     -42.630  56.996 -53.868  1.00  0.00    -0.203 NA
HETATM   15  C   UNL     1     -42.533  54.637 -54.108  1.00  0.00     0.121 C 
HETATM   16  N   UNL     1     -42.635  55.810 -53.223  1.00  0.00    -0.207 NA
HETATM   17  C   UNL     1     -41.811  60.836 -57.774  1.00  0.00     0.031 A 
HETATM   18  C   UNL     1     -41.891  61.109 -59.141  1.00  0.00     0.009 A 
HETATM   19  H   UNL     1     -43.362  55.723 -52.514  1.00  0.00     0.149 HD
ENDROOT
BRANCH  15  20
HETATM   20  C   UNL     1     -41.488  53.703 -53.521  1.00  0.00    -0.038 A 
HETATM   21  C   UNL     1     -41.169  53.726 -52.152  1.00  0.00     0.011 A 
HETATM   22  C   UNL     1     -40.321  52.767 -51.593  1.00  0.00     0.037 A 
HETATM   23  C   UNL     1     -39.815  51.743 -52.386  1.00  0.00     0.068 A 
HETATM   24  C   UNL     1     -40.091  51.717 -53.751  1.00  0.00     0.037 A 
HETATM   25  C   UNL     1     -40.926  52.690 -54.316  1.00  0.00     0.011 A 
BRANCH  23  26
HETATM   26  O   UNL     1     -39.039  50.810 -51.756  1.00  0.00    -0.356 OA
HETATM   27  C   UNL     1     -39.751  50.101 -50.742  1.00  0.00     0.210 C 
ENDBRANCH  23  26
ENDBRANCH  15  20
TORSDOF 2
ENDMDL
MODEL 4
REMARK VINA RESULT:      -8.2     16.539     18.014
REMARK  2 active torsions:
REMARK  status: ('A' for Active; 'I' for Inactive)
REMARK    1  A    between atoms: C_15  and  C_16 
REMARK    2  A    between atoms: C_19  and  O_20 
ROOT
HETATM    1  C   UNL     1     -31.618  39.760 -50.210  1.00  0.00     0.048 C 
HETATM    2  C   UNL     1     -32.827  40.204 -50.980  1.00  0.00    -0.061 A 
HETATM    3  C   UNL     1     -32.801  40.236 -52.387  1.00  0.00     0.021 A 
HETATM    4  C   UNL     1     -33.945  40.646 -53.101  1.00  0.00    -0.000 A 
HETATM    5  C   UNL     1     -35.086  41.011 -52.375  1.00  0.00     0.043 A 
HETATM    6  N   UNL     1     -36.044  41.405 -53.281  1.00  0.00    -0.353 N 
HETATM    7  H   UNL     1     -36.973  41.733 -53.052  1.00  0.00     0.166 HD
HETATM    8  C   UNL     1     -35.569  41.236 -54.544  1.00  0.00     0.066 A 
HETATM    9  C   UNL     1     -34.266  40.785 -54.482  1.00  0.00    -0.017 A 
HETATM   10  C   UNL     1     -33.461  40.521 -55.724  1.00  0.00     0.043 C 
HETATM   11  C   UNL     1     -34.149  41.108 -56.995  1.00  0.00     0.018 C 
HETATM   12  C   UNL     1     -35.667  40.822 -56.998  1.00  0.00     0.065 C 
HETATM   13  C   UNL     1     -36.237  41.482 -55.774  1.00  0.00     0.082 C 
HETATM   14  N   UNL     1     -37.230  42.291 -55.934  1.00  0.00    -0.203 NA
HETATM   15  C   UNL     1     -36.524  41.516 -58.063  1.00  0.00     0.121 C 
HETATM   16  N   UNL     1     -37.506  42.259 -57.256  1.00  0.00    -0.207 NA
HETATM   17  C   UNL     1     -35.148  40.952 -50.980  1.00  0.00     0.031 A 
HETATM   18  C   UNL     1     -34.003  40.537 -50.297  1.00  0.00     0.009 A 
HETATM   19  H   UNL     1     -37.759  43.164 -57.652  1.00  0.00     0.149 HD
ENDROOT
BRANCH  15  20
HETATM   20  C   UNL     1     -37.294  40.601 -59.001  1.00  0.00    -0.038 A 
HETATM   21  C   UNL     1     -36.988  40.528 -60.372  1.00  0.00     0.011 A 
HETATM   22  C   UNL     1     -37.594  39.579 -61.196  1.00  0.00     0.037 A 
HETATM   23  C   UNL     1     -38.482  38.656 -60.655  1.00  0.00     0.068 A 
HETATM   24  C   UNL     1     -38.826  38.728 -59.307  1.00  0.00     0.037 A 
HETATM   25  C   UNL     1     -38.232  39.693 -58.483  1.00  0.00     0.011 A 
BRANCH  23  26
HETATM   26  O   UNL     1     -38.992  37.722 -61.514  1.00  0.00    -0.356 OA
HETATM   27  C   UNL     1     -40.418  37.683 -61.495  1.00  0.00     0.210 C 
ENDBRANCH  23  26
ENDBRANCH  15  20
TORSDOF 2
ENDMDL
MODEL 5
REMARK VINA RESULT:      -8.1      4.840      7.747
REMARK  2 active torsions:
REMARK  status: ('A' for Active; 'I' for Inactive)
REMARK    1  A    between atoms: C_15  and  C_16 
REMARK    2  A    between atoms: C_19  and  O_20 
ROOT
HETATM    1  C   UNL     1     -40.032  54.136 -48.572  1.00  0.00     0.048 C 
HETATM    2  C   UNL     1     -40.356  53.974 -50.029  1.00  0.00    -0.061 A 
HETATM    3  C   UNL     1     -41.008  55.005 -50.731  1.00  0.00     0.021 A 
HETATM    4  C   UNL     1     -41.300  54.847 -52.101  1.00  0.00    -0.000 A 
HETATM    5  C   UNL     1     -40.924  53.650 -52.726  1.00  0.00     0.043 A 
HETATM    6  N   UNL     1     -41.346  53.718 -54.035  1.00  0.00    -0.353 N 
HETATM    7  H   UNL     1     -41.225  52.994 -54.731  1.00  0.00     0.166 HD
HETATM    8  C   UNL     1     -41.909  54.933 -54.266  1.00  0.00     0.066 A 
HETATM    9  C   UNL     1     -41.919  55.660 -53.093  1.00  0.00    -0.017 A 
HETATM   10  C   UNL     1     -42.498  57.046 -53.026  1.00  0.00     0.043 C 
HETATM   11  C   UNL     1     -43.329  57.388 -54.302  1.00  0.00     0.018 C 
HETATM   12  C   UNL     1     -42.604  56.928 -55.586  1.00  0.00     0.065 C 
HETATM   13  C   UNL     1     -42.440  55.437 -55.484  1.00  0.00     0.082 C 
HETATM   14  N   UNL     1     -42.874  54.716 -56.463  1.00  0.00    -0.203 NA
HETATM   15  C   UNL     1     -43.381  56.992 -56.907  1.00  0.00     0.121 C 
HETATM   16  N   UNL     1     -43.337  55.596 -57.376  1.00  0.00    -0.207 NA
HETATM   17  C   UNL     1     -40.244  52.628 -52.059  1.00  0.00     0.031 A 
HETATM   18  C   UNL     1     -39.962  52.813 -50.704  1.00  0.00     0.009 A 
HETATM   19  H   UNL     1     -44.190  55.298 -57.848  1.00  0.00     0.149 HD
ENDROOT
BRANCH  15  20
HETATM   20  C   UNL     1     -42.776  57.865 -57.995  1.00  0.00    -0.038 A 
HETATM   21  C   UNL     1     -42.606  57.390 -59.308  1.00  0.00     0.011 A 
HETATM   22  C   UNL     1     -42.192  58.241 -60.334  1.00  0.00     0.037 A 
HETATM   23  C   UNL     1     -41.987  59.591 -60.074  1.00  0.00     0.068 A 
HETATM   24  C   UNL     1     -42.117  60.079 -58.776  1.00  0.00     0.037 A 
HETATM   25  C   UNL     1     -42.514  59.221 -57.741  1.00  0.00     0.011 A 
BRANCH  23  26
HETATM   26  O   UNL     1     -41.638  60.373 -61.141  1.00  0.00    -0.356 OA
HETATM   27  C   UNL     1     -41.388  61.727 -60.767  1.00  0.00     0.210 C 
ENDBRANCH  23  26
ENDBRANCH  15  20
TORSDOF 2
ENDMDL
MODEL 6
REMARK VINA RESULT:      -7.8      2.219      3.108
REMARK  2 active torsions:
REMARK  status: ('A' for Active; 'I' for Inactive)
REMARK    1  A    between atoms: C_15  and  C_16 
REMARK    2  A    between atoms: C_19  and  O_20 
ROOT
HETATM    1  C   UNL     1     -46.800  62.302 -52.705  1.00  0.00     0.048 C 
HETATM    2  C   UNL     1     -45.525  61.578 -52.385  1.00  0.00    -0.061 A 
HETATM    3  C   UNL     1     -45.543  60.201 -52.094  1.00  0.00     0.021 A 
HETATM    4  C   UNL     1     -44.339  59.528 -51.803  1.00  0.00    -0.000 A 
HETATM    5  C   UNL     1     -43.147  60.264 -51.816  1.00  0.00     0.043 A 
HETATM    6  N   UNL     1     -42.128  59.407 -51.468  1.00  0.00    -0.353 N 
HETATM    7  H   UNL     1     -41.151  59.656 -51.384  1.00  0.00     0.166 HD
HETATM    8  C   UNL     1     -42.628  58.154 -51.305  1.00  0.00     0.066 A 
HETATM    9  C   UNL     1     -43.996  58.183 -51.484  1.00  0.00    -0.017 A 
HETATM   10  C   UNL     1     -44.838  56.944 -51.349  1.00  0.00     0.043 C 
HETATM   11  C   UNL     1     -44.043  55.773 -50.694  1.00  0.00     0.018 C 
HETATM   12  C   UNL     1     -42.618  55.663 -51.278  1.00  0.00     0.065 C 
HETATM   13  C   UNL     1     -41.924  56.962 -50.982  1.00  0.00     0.082 C 
HETATM   14  N   UNL     1     -40.784  56.911 -50.377  1.00  0.00    -0.203 NA
HETATM   15  C   UNL     1     -41.636  54.706 -50.592  1.00  0.00     0.121 C 
HETATM   16  N   UNL     1     -40.521  55.595 -50.225  1.00  0.00    -0.207 NA
HETATM   17  C   UNL     1     -43.099  61.623 -52.138  1.00  0.00     0.031 A 
HETATM   18  C   UNL     1     -44.306  62.264 -52.428  1.00  0.00     0.009 A 
HETATM   19  H   UNL     1     -40.086  55.357 -49.334  1.00  0.00     0.149 HD
ENDROOT
BRANCH  15  20
HETATM   20  C   UNL     1     -41.072  53.592 -51.460  1.00  0.00    -0.038 A 
HETATM   21  C   UNL     1     -41.248  53.588 -52.855  1.00  0.00     0.011 A 
HETATM   22  C   UNL     1     -40.602  52.647 -53.660  1.00  0.00     0.037 A 
HETATM   23  C   UNL     1     -39.735  51.724 -53.088  1.00  0.00     0.068 A 
HETATM   24  C   UNL     1     -39.569  51.687 -51.705  1.00  0.00     0.037 A 
HETATM   25  C   UNL     1     -40.232  52.619 -50.895  1.00  0.00     0.011 A 
BRANCH  23  26
HETATM   26  O   UNL     1     -39.096  50.872 -53.945  1.00  0.00    -0.356 OA
HETATM   27  C   UNL     1     -39.956  49.846 -54.439  1.00  0.00     0.210 C 
ENDBRANCH  23  26
ENDBRANCH  15  20
TORSDOF 2
ENDMDL
MODEL 7
REMARK VINA RESULT:      -7.8      5.322      8.545
REMARK  2 active torsions:
REMARK  status: ('A' for Active; 'I' for Inactive)
REMARK    1  A    between atoms: C_15  and  C_16 
REMARK    2  A    between atoms: C_19  and  O_20 
ROOT
HETATM    1  C   UNL     1     -40.094  53.034 -50.586  1.00  0.00     0.048 C 
HETATM    2  C   UNL     1     -40.445  53.387 -52.001  1.00  0.00    -0.061 A 
HETATM    3  C   UNL     1     -41.010  54.641 -52.301  1.00  0.00     0.021 A 
HETATM    4  C   UNL     1     -41.329  54.967 -53.635  1.00  0.00    -0.000 A 
HETATM    5  C   UNL     1     -41.068  54.017 -54.631  1.00  0.00     0.043 A 
HETATM    6  N   UNL     1     -41.495  54.545 -55.828  1.00  0.00    -0.353 N 
HETATM    7  H   UNL     1     -41.445  54.085 -56.727  1.00  0.00     0.166 HD
HETATM    8  C   UNL     1     -41.950  55.810 -55.627  1.00  0.00     0.066 A 
HETATM    9  C   UNL     1     -41.884  56.108 -54.281  1.00  0.00    -0.017 A 
HETATM   10  C   UNL     1     -42.337  57.437 -53.742  1.00  0.00     0.043 C 
HETATM   11  C   UNL     1     -43.148  58.246 -54.803  1.00  0.00     0.018 C 
HETATM   12  C   UNL     1     -42.480  58.178 -56.193  1.00  0.00     0.065 C 
HETATM   13  C   UNL     1     -42.448  56.728 -56.591  1.00  0.00     0.082 C 
HETATM   14  N   UNL     1     -42.953  56.407 -57.735  1.00  0.00    -0.203 NA
HETATM   15  C   UNL     1     -43.261  58.735 -57.389  1.00  0.00     0.121 C 
HETATM   16  N   UNL     1     -43.346  57.574 -58.291  1.00  0.00    -0.207 NA
HETATM   17  C   UNL     1     -40.474  52.781 -54.363  1.00  0.00     0.031 A 
HETATM   18  C   UNL     1     -40.163  52.486 -53.034  1.00  0.00     0.009 A 
HETATM   19  H   UNL     1     -44.227  57.518 -58.801  1.00  0.00     0.149 HD
ENDROOT
BRANCH  15  20
HETATM   20  C   UNL     1     -42.593  59.867 -58.154  1.00  0.00    -0.038 A 
HETATM   21  C   UNL     1     -41.607  60.673 -57.559  1.00  0.00     0.011 A 
HETATM   22  C   UNL     1     -40.892  61.609 -58.309  1.00  0.00     0.037 A 
HETATM   23  C   UNL     1     -41.119  61.721 -59.676  1.00  0.00     0.068 A 
HETATM   24  C   UNL     1     -42.113  60.956 -60.282  1.00  0.00     0.037 A 
HETATM   25  C   UNL     1     -42.844  60.030 -59.526  1.00  0.00     0.011 A 
BRANCH  23  26
HETATM   26  O   UNL     1     -40.341  62.618 -60.353  1.00  0.00    -0.356 OA
HETATM   27  C   UNL     1     -39.383  63.258 -59.510  1.00  0.00     0.210 C 
ENDBRANCH  23  26
ENDBRANCH  15  20
TORSDOF 2
ENDMDL
MODEL 8
REMARK VINA RESULT:      -7.4      3.722      8.560
REMARK  2 active torsions:
REMARK  status: ('A' for Active; 'I' for Inactive)
REMARK    1  A    between atoms: C_15  and  C_16 
REMARK    2  A    between atoms: C_19  and  O_20 
ROOT
HETATM    1  C   UNL     1     -39.770  49.795 -54.295  1.00  0.00     0.048 C 
HETATM    2  C   UNL     1     -39.980  51.137 -53.655  1.00  0.00    -0.061 A 
HETATM    3  C   UNL     1     -40.416  52.231 -54.425  1.00  0.00     0.021 A 
HETATM    4  C   UNL     1     -40.618  53.485 -53.813  1.00  0.00    -0.000 A 
HETATM    5  C   UNL     1     -40.377  53.599 -52.438  1.00  0.00     0.043 A 
HETATM    6  N   UNL     1     -40.604  54.910 -52.085  1.00  0.00    -0.353 N 
HETATM    7  H   UNL     1     -40.501  55.297 -51.157  1.00  0.00     0.166 HD
HETATM    8  C   UNL     1     -41.042  55.600 -53.171  1.00  0.00     0.066 A 
HETATM    9  C   UNL     1     -41.049  54.763 -54.269  1.00  0.00    -0.017 A 
HETATM   10  C   UNL     1     -41.471  55.247 -55.630  1.00  0.00     0.043 C 
HETATM   11  C   UNL     1     -41.569  56.803 -55.685  1.00  0.00     0.018 C 
HETATM   12  C   UNL     1     -42.265  57.369 -54.429  1.00  0.00     0.065 C 
HETATM   13  C   UNL     1     -41.427  56.966 -53.247  1.00  0.00     0.082 C 
HETATM   14  N   UNL     1     -41.042  57.895 -52.438  1.00  0.00    -0.203 NA
HETATM   15  C   UNL     1     -42.247  58.889 -54.225  1.00  0.00     0.121 C 
HETATM   16  N   UNL     1     -41.594  59.032 -52.913  1.00  0.00    -0.207 NA
HETATM   17  C   UNL     1     -39.979  52.518 -51.646  1.00  0.00     0.031 A 
HETATM   18  C   UNL     1     -39.792  51.287 -52.276  1.00  0.00     0.009 A 
HETATM   19  H   UNL     1     -40.989  59.850 -52.846  1.00  0.00     0.149 HD
ENDROOT
BRANCH  15  20
HETATM   20  C   UNL     1     -43.605  59.567 -54.143  1.00  0.00    -0.038 A 
HETATM   21  C   UNL     1     -44.471  59.347 -53.057  1.00  0.00     0.011 A 
HETATM   22  C   UNL     1     -45.647  60.085 -52.912  1.00  0.00     0.037 A 
HETATM   23  C   UNL     1     -45.954  61.088 -53.825  1.00  0.00     0.068 A 
HETATM   24  C   UNL     1     -45.128  61.303 -54.927  1.00  0.00     0.037 A 
HETATM   25  C   UNL     1     -43.957  60.549 -55.083  1.00  0.00     0.011 A 
BRANCH  23  26
HETATM   26  O   UNL     1     -47.092  61.806 -53.586  1.00  0.00    -0.356 OA
HETATM   27  C   UNL     1     -47.627  61.566 -52.285  1.00  0.00     0.210 C 
ENDBRANCH  23  26
ENDBRANCH  15  20
TORSDOF 2
ENDMDL
MODEL 9
REMARK VINA RESULT:      -7.4      4.681      6.272
REMARK  2 active torsions:
REMARK  status: ('A' for Active; 'I' for Inactive)
REMARK    1  A    between atoms: C_15  and  C_16 
REMARK    2  A    between atoms: C_19  and  O_20 
ROOT
HETATM    1  C   UNL     1     -47.102  59.170 -60.643  1.00  0.00     0.048 C 
HETATM    2  C   UNL     1     -46.189  58.190 -59.965  1.00  0.00    -0.061 A 
HETATM    3  C   UNL     1     -45.465  58.568 -58.819  1.00  0.00     0.021 A 
HETATM    4  C   UNL     1     -44.618  57.638 -58.185  1.00  0.00    -0.000 A 
HETATM    5  C   UNL     1     -44.525  56.348 -58.724  1.00  0.00     0.043 A 
HETATM    6  N   UNL     1     -43.619  55.646 -57.963  1.00  0.00    -0.353 N 
HETATM    7  H   UNL     1     -43.337  54.687 -58.117  1.00  0.00     0.166 HD
HETATM    8  C   UNL     1     -43.194  56.424 -56.932  1.00  0.00     0.066 A 
HETATM    9  C   UNL     1     -43.772  57.673 -57.039  1.00  0.00    -0.017 A 
HETATM   10  C   UNL     1     -43.480  58.767 -56.048  1.00  0.00     0.043 C 
HETATM   11  C   UNL     1     -42.259  58.416 -55.143  1.00  0.00     0.018 C 
HETATM   12  C   UNL     1     -42.318  56.950 -54.661  1.00  0.00     0.065 C 
HETATM   13  C   UNL     1     -42.290  56.085 -55.890  1.00  0.00     0.082 C 
HETATM   14  N   UNL     1     -41.393  55.159 -55.953  1.00  0.00    -0.203 NA
HETATM   15  C   UNL     1     -41.087  56.383 -53.943  1.00  0.00     0.121 C 
HETATM   16  N   UNL     1     -40.730  55.224 -54.779  1.00  0.00    -0.207 NA
HETATM   17  C   UNL     1     -45.262  55.938 -59.839  1.00  0.00     0.031 A 
HETATM   18  C   UNL     1     -46.098  56.878 -60.445  1.00  0.00     0.009 A 
HETATM   19  H   UNL     1     -39.725  55.072 -54.858  1.00  0.00     0.149 HD
ENDROOT
BRANCH  15  20
HETATM   20  C   UNL     1     -41.312  55.881 -52.527  1.00  0.00    -0.038 A 
HETATM   21  C   UNL     1     -41.193  54.517 -52.203  1.00  0.00     0.011 A 
HETATM   22  C   UNL     1     -41.252  54.084 -50.878  1.00  0.00     0.037 A 
HETATM   23  C   UNL     1     -41.386  55.010 -49.850  1.00  0.00     0.068 A 
HETATM   24  C   UNL     1     -41.538  56.363 -50.147  1.00  0.00     0.037 A 
HETATM   25  C   UNL     1     -41.498  56.797 -51.479  1.00  0.00     0.011 A 
BRANCH  23  26
HETATM   26  O   UNL     1     -41.379  54.515 -48.575  1.00  0.00    -0.356 OA
HETATM   27  C   UNL     1     -40.173  53.817 -48.266  1.00  0.00     0.210 C 
ENDBRANCH  23  26
ENDBRANCH  15  20
TORSDOF 2
ENDMDL
MODEL 10
REMARK VINA RESULT:      -7.4     16.020     19.196
REMARK  2 active torsions:
REMARK  status: ('A' for Active; 'I' for Inactive)
REMARK    1  A    between atoms: C_15  and  C_16 
REMARK    2  A    between atoms: C_19  and  O_20 
ROOT
HETATM    1  C   UNL     1     -35.075  42.283 -56.675  1.00  0.00     0.048 C 
HETATM    2  C   UNL     1     -35.276  41.862 -55.249  1.00  0.00    -0.061 A 
HETATM    3  C   UNL     1     -34.266  41.158 -54.567  1.00  0.00     0.021 A 
HETATM    4  C   UNL     1     -34.461  40.774 -53.225  1.00  0.00    -0.000 A 
HETATM    5  C   UNL     1     -35.671  41.113 -52.606  1.00  0.00     0.043 A 
HETATM    6  N   UNL     1     -35.639  40.602 -51.328  1.00  0.00    -0.353 N 
HETATM    7  H   UNL     1     -36.380  40.680 -50.644  1.00  0.00     0.166 HD
HETATM    8  C   UNL     1     -34.432  40.019 -51.105  1.00  0.00     0.066 A 
HETATM    9  C   UNL     1     -33.675  40.084 -52.257  1.00  0.00    -0.017 A 
HETATM   10  C   UNL     1     -32.290  39.503 -52.328  1.00  0.00     0.043 C 
HETATM   11  C   UNL     1     -31.985  38.586 -51.103  1.00  0.00     0.018 C 
HETATM   12  C   UNL     1     -32.475  39.223 -49.785  1.00  0.00     0.065 C 
HETATM   13  C   UNL     1     -33.962  39.402 -49.914  1.00  0.00     0.082 C 
HETATM   14  N   UNL     1     -34.709  38.907 -48.985  1.00  0.00    -0.203 NA
HETATM   15  C   UNL     1     -32.448  38.358 -48.519  1.00  0.00     0.121 C 
HETATM   16  N   UNL     1     -33.855  38.378 -48.084  1.00  0.00    -0.207 NA
HETATM   17  C   UNL     1     -36.673  41.842 -53.251  1.00  0.00     0.031 A 
HETATM   18  C   UNL     1     -36.453  42.215 -54.578  1.00  0.00     0.009 A 
HETATM   19  H   UNL     1     -34.168  37.496 -47.679  1.00  0.00     0.149 HD
ENDROOT
BRANCH  15  20
HETATM   20  C   UNL     1     -31.601  38.882 -47.371  1.00  0.00    -0.038 A 
HETATM   21  C   UNL     1     -30.767  40.004 -47.526  1.00  0.00     0.011 A 
HETATM   22  C   UNL     1     -30.110  40.570 -46.431  1.00  0.00     0.037 A 
HETATM   23  C   UNL     1     -30.311  40.052 -45.158  1.00  0.00     0.068 A 
HETATM   24  C   UNL     1     -31.107  38.921 -44.983  1.00  0.00     0.037 A 
HETATM   25  C   UNL     1     -31.752  38.341 -46.083  1.00  0.00     0.011 A 
BRANCH  23  26
HETATM   26  O   UNL     1     -29.679  40.694 -44.129  1.00  0.00    -0.356 OA
HETATM   27  C   UNL     1     -28.754  39.850 -43.444  1.00  0.00     0.210 C 
ENDBRANCH  23  26
ENDBRANCH  15  20
TORSDOF 2
ENDMDL
