MODEL 1
REMARK VINA RESULT:      -8.1      0.000      0.000
REMARK  4 active torsions:
REMARK  status: ('A' for Active; 'I' for Inactive)
REMARK    1  A    between atoms: O_2  and  C_3 
REMARK    2  A    between atoms: C_5  and  N_6 
REMARK    3  A    between atoms: C_10  and  C_11 
REMARK    4  A    between atoms: C_22  and  O_23 
ROOT
HETATM    1  N   UNL     1     -42.729  55.757 -55.980  1.00  0.00    -0.315 N 
HETATM    2  C   UNL     1     -43.524  55.972 -54.844  1.00  0.00     0.225 C 
HETATM    3  O   UNL     1     -44.478  56.722 -54.703  1.00  0.00    -0.273 OA
HETATM    4  C   UNL     1     -43.029  55.047 -53.755  1.00  0.00     0.117 C 
HETATM    5  C   UNL     1     -41.598  54.796 -54.199  1.00  0.00     0.082 C 
HETATM    6  C   UNL     1     -41.741  54.732 -55.713  1.00  0.00     0.145 C 
ENDROOT
BRANCH   1   7
HETATM    7  C   UNL     1     -42.805  56.458 -57.217  1.00  0.00     0.073 A 
HETATM    8  C   UNL     1     -43.211  55.774 -58.378  1.00  0.00     0.069 A 
HETATM    9  C   UNL     1     -43.388  56.441 -59.595  1.00  0.00     0.070 A 
HETATM   10  C   UNL     1     -43.113  57.803 -59.676  1.00  0.00     0.039 A 
HETATM   11  C   UNL     1     -42.689  58.502 -58.549  1.00  0.00     0.042 A 
HETATM   12  C   UNL     1     -42.521  57.837 -57.328  1.00  0.00     0.095 A 
BRANCH   9  13
HETATM   13  O   UNL     1     -43.831  55.875 -60.759  1.00  0.00    -0.356 OA
HETATM   14  C   UNL     1     -44.914  54.959 -60.641  1.00  0.00     0.210 C 
ENDBRANCH   9  13
BRANCH  12  15
HETATM   15  O   UNL     1     -42.099  58.537 -56.225  1.00  0.00    -0.354 OA
HETATM   16  C   UNL     1     -42.803  59.763 -56.031  1.00  0.00     0.210 C 
ENDBRANCH  12  15
ENDBRANCH   1   7
BRANCH   5  17
HETATM   17  C   UNL     1     -40.976  53.591 -53.597  1.00  0.00     0.111 A 
HETATM   18  N   UNL     1     -40.648  53.407 -52.336  1.00  0.00    -0.233 NA
HETATM   19  C   UNL     1     -40.207  52.108 -52.249  1.00  0.00     0.085 A 
HETATM   20  C   UNL     1     -40.241  51.491 -53.494  1.00  0.00     0.062 A 
HETATM   21  C   UNL     1     -39.772  51.377 -51.135  1.00  0.00     0.034 A 
HETATM   22  N   UNL     1     -40.711  52.463 -54.338  1.00  0.00    -0.342 N 
HETATM   23  C   UNL     1     -39.863  50.164 -53.705  1.00  0.00     0.032 A 
HETATM   24  H   UNL     1     -40.876  52.351 -55.328  1.00  0.00     0.167 HD
HETATM   25  C   UNL     1     -39.439  49.447 -52.580  1.00  0.00     0.002 A 
HETATM   26  C   UNL     1     -39.393  50.040 -51.316  1.00  0.00     0.002 A 
ENDBRANCH   5  17
TORSDOF 4
ENDMDL
MODEL 2
REMARK VINA RESULT:      -7.9      2.584      7.810
REMARK  4 active torsions:
REMARK  status: ('A' for Active; 'I' for Inactive)
REMARK    1  A    between atoms: O_2  and  C_3 
REMARK    2  A    between atoms: C_5  and  N_6 
REMARK    3  A    between atoms: C_10  and  C_11 
REMARK    4  A    between atoms: C_22  and  O_23 
ROOT
HETATM    1  N   UNL     1     -41.831  54.463 -53.846  1.00  0.00    -0.315 N 
HETATM    2  C   UNL     1     -43.170  54.782 -53.575  1.00  0.00     0.225 C 
HETATM    3  O   UNL     1     -43.873  54.426 -52.641  1.00  0.00    -0.273 OA
HETATM    4  C   UNL     1     -43.643  55.733 -54.651  1.00  0.00     0.117 C 
HETATM    5  C   UNL     1     -42.682  55.410 -55.783  1.00  0.00     0.082 C 
HETATM    6  C   UNL     1     -41.381  55.158 -55.034  1.00  0.00     0.145 C 
ENDROOT
BRANCH   1   7
HETATM    7  C   UNL     1     -41.010  53.552 -53.122  1.00  0.00     0.073 A 
HETATM    8  C   UNL     1     -40.602  52.350 -53.732  1.00  0.00     0.069 A 
HETATM    9  C   UNL     1     -39.723  51.470 -53.094  1.00  0.00     0.070 A 
HETATM   10  C   UNL     1     -39.275  51.760 -51.808  1.00  0.00     0.039 A 
HETATM   11  C   UNL     1     -39.680  52.930 -51.170  1.00  0.00     0.042 A 
HETATM   12  C   UNL     1     -40.552  53.818 -51.813  1.00  0.00     0.095 A 
BRANCH   9  13
HETATM   13  O   UNL     1     -39.227  50.311 -53.625  1.00  0.00    -0.356 OA
HETATM   14  C   UNL     1     -39.914  49.795 -54.761  1.00  0.00     0.210 C 
ENDBRANCH   9  13
BRANCH  12  15
HETATM   15  O   UNL     1     -40.946  54.965 -51.172  1.00  0.00    -0.354 OA
HETATM   16  C   UNL     1     -41.591  54.722 -49.923  1.00  0.00     0.210 C 
ENDBRANCH  12  15
ENDBRANCH   1   7
BRANCH   5  17
HETATM   17  C   UNL     1     -42.589  56.464 -56.823  1.00  0.00     0.111 A 
HETATM   18  N   UNL     1     -42.466  57.761 -56.636  1.00  0.00    -0.233 NA
HETATM   19  C   UNL     1     -42.316  58.306 -57.889  1.00  0.00     0.085 A 
HETATM   20  C   UNL     1     -42.376  57.321 -58.867  1.00  0.00     0.062 A 
HETATM   21  C   UNL     1     -42.108  59.638 -58.272  1.00  0.00     0.034 A 
HETATM   22  N   UNL     1     -42.575  56.162 -58.165  1.00  0.00    -0.342 N 
HETATM   23  C   UNL     1     -42.239  57.582 -60.232  1.00  0.00     0.032 A 
HETATM   24  H   UNL     1     -42.652  55.238 -58.566  1.00  0.00     0.167 HD
HETATM   25  C   UNL     1     -42.025  58.917 -60.595  1.00  0.00     0.002 A 
HETATM   26  C   UNL     1     -41.961  59.930 -59.635  1.00  0.00     0.002 A 
ENDBRANCH   5  17
TORSDOF 4
ENDMDL
MODEL 3
REMARK VINA RESULT:      -7.9      1.177      2.761
REMARK  4 active torsions:
REMARK  status: ('A' for Active; 'I' for Inactive)
REMARK    1  A    between atoms: O_2  and  C_3 
REMARK    2  A    between atoms: C_5  and  N_6 
REMARK    3  A    between atoms: C_10  and  C_11 
REMARK    4  A    between atoms: C_22  and  O_23 
ROOT
HETATM    1  N   UNL     1     -42.630  56.324 -55.635  1.00  0.00    -0.315 N 
HETATM    2  C   UNL     1     -43.629  56.191 -54.659  1.00  0.00     0.225 C 
HETATM    3  O   UNL     1     -44.674  56.811 -54.538  1.00  0.00    -0.273 OA
HETATM    4  C   UNL     1     -43.225  55.061 -53.739  1.00  0.00     0.117 C 
HETATM    5  C   UNL     1     -41.719  55.031 -53.940  1.00  0.00     0.082 C 
HETATM    6  C   UNL     1     -41.591  55.338 -55.425  1.00  0.00     0.145 C 
ENDROOT
BRANCH   1   7
HETATM    7  C   UNL     1     -42.574  57.304 -56.667  1.00  0.00     0.073 A 
HETATM    8  C   UNL     1     -42.095  58.594 -56.373  1.00  0.00     0.069 A 
HETATM    9  C   UNL     1     -41.935  59.559 -57.372  1.00  0.00     0.070 A 
HETATM   10  C   UNL     1     -42.302  59.258 -58.681  1.00  0.00     0.039 A 
HETATM   11  C   UNL     1     -42.800  57.997 -58.998  1.00  0.00     0.042 A 
HETATM   12  C   UNL     1     -42.950  57.026 -58.000  1.00  0.00     0.095 A 
BRANCH   9  13
HETATM   13  O   UNL     1     -41.427  60.817 -57.194  1.00  0.00    -0.356 OA
HETATM   14  C   UNL     1     -41.081  61.529 -58.377  1.00  0.00     0.210 C 
ENDBRANCH   9  13
BRANCH  12  15
HETATM   15  O   UNL     1     -43.445  55.788 -58.324  1.00  0.00    -0.354 OA
HETATM   16  C   UNL     1     -43.510  55.558 -59.731  1.00  0.00     0.210 C 
ENDBRANCH  12  15
ENDBRANCH   1   7
BRANCH   5  17
HETATM   17  C   UNL     1     -41.074  53.762 -53.523  1.00  0.00     0.111 A 
HETATM   18  N   UNL     1     -40.707  53.414 -52.308  1.00  0.00    -0.233 NA
HETATM   19  C   UNL     1     -40.257  52.119 -52.410  1.00  0.00     0.085 A 
HETATM   20  C   UNL     1     -40.326  51.674 -53.725  1.00  0.00     0.062 A 
HETATM   21  C   UNL     1     -39.787  51.249 -51.418  1.00  0.00     0.034 A 
HETATM   22  N   UNL     1     -40.826  52.746 -54.417  1.00  0.00    -0.342 N 
HETATM   23  C   UNL     1     -39.949  50.391 -54.123  1.00  0.00     0.032 A 
HETATM   24  H   UNL     1     -41.020  52.767 -55.408  1.00  0.00     0.167 HD
HETATM   25  C   UNL     1     -39.488  49.533 -53.118  1.00  0.00     0.002 A 
HETATM   26  C   UNL     1     -39.407  49.951 -51.787  1.00  0.00     0.002 A 
ENDBRANCH   5  17
TORSDOF 4
ENDMDL
MODEL 4
REMARK VINA RESULT:      -7.8      3.575      5.494
REMARK  4 active torsions:
REMARK  status: ('A' for Active; 'I' for Inactive)
REMARK    1  A    between atoms: O_2  and  C_3 
REMARK    2  A    between atoms: C_5  and  N_6 
REMARK    3  A    between atoms: C_10  and  C_11 
REMARK    4  A    between atoms: C_22  and  O_23 
ROOT
HETATM    1  N   UNL     1     -41.786  57.528 -52.735  1.00  0.00    -0.315 N 
HETATM    2  C   UNL     1     -41.643  57.500 -54.130  1.00  0.00     0.225 C 
HETATM    3  O   UNL     1     -41.792  58.404 -54.937  1.00  0.00    -0.273 OA
HETATM    4  C   UNL     1     -41.204  56.106 -54.519  1.00  0.00     0.117 C 
HETATM    5  C   UNL     1     -41.703  55.291 -53.338  1.00  0.00     0.082 C 
HETATM    6  C   UNL     1     -41.454  56.237 -52.171  1.00  0.00     0.145 C 
ENDROOT
BRANCH   1   7
HETATM    7  C   UNL     1     -42.242  58.624 -51.948  1.00  0.00     0.073 A 
HETATM    8  C   UNL     1     -43.613  58.741 -51.650  1.00  0.00     0.069 A 
HETATM    9  C   UNL     1     -44.093  59.748 -50.806  1.00  0.00     0.070 A 
HETATM   10  C   UNL     1     -43.207  60.687 -50.285  1.00  0.00     0.039 A 
HETATM   11  C   UNL     1     -41.849  60.609 -50.581  1.00  0.00     0.042 A 
HETATM   12  C   UNL     1     -41.365  59.595 -51.417  1.00  0.00     0.095 A 
BRANCH   9  13
HETATM   13  O   UNL     1     -45.394  59.909 -50.415  1.00  0.00    -0.356 OA
HETATM   14  C   UNL     1     -46.201  60.743 -51.239  1.00  0.00     0.210 C 
ENDBRANCH   9  13
BRANCH  12  15
HETATM   15  O   UNL     1     -40.024  59.532 -51.704  1.00  0.00    -0.354 OA
HETATM   16  C   UNL     1     -39.198  59.539 -50.541  1.00  0.00     0.210 C 
ENDBRANCH  12  15
ENDBRANCH   1   7
BRANCH   5  17
HETATM   17  C   UNL     1     -41.053  53.965 -53.195  1.00  0.00     0.111 A 
HETATM   18  N   UNL     1     -40.529  53.446 -52.105  1.00  0.00    -0.233 NA
HETATM   19  C   UNL     1     -40.149  52.169 -52.444  1.00  0.00     0.085 A 
HETATM   20  C   UNL     1     -40.423  51.911 -53.782  1.00  0.00     0.062 A 
HETATM   21  C   UNL     1     -39.574  51.163 -51.657  1.00  0.00     0.034 A 
HETATM   22  N   UNL     1     -40.976  53.077 -54.243  1.00  0.00    -0.342 N 
HETATM   23  C   UNL     1     -40.156  50.688 -54.399  1.00  0.00     0.032 A 
HETATM   24  H   UNL     1     -41.309  53.238 -55.182  1.00  0.00     0.167 HD
HETATM   25  C   UNL     1     -39.588  49.692 -53.596  1.00  0.00     0.002 A 
HETATM   26  C   UNL     1     -39.301  49.922 -52.248  1.00  0.00     0.002 A 
ENDBRANCH   5  17
TORSDOF 4
ENDMDL
MODEL 5
REMARK VINA RESULT:      -7.7      1.419      2.244
REMARK  4 active torsions:
REMARK  status: ('A' for Active; 'I' for Inactive)
REMARK    1  A    between atoms: O_2  and  C_3 
REMARK    2  A    between atoms: C_5  and  N_6 
REMARK    3  A    between atoms: C_10  and  C_11 
REMARK    4  A    between atoms: C_22  and  O_23 
ROOT
HETATM    1  N   UNL     1     -42.350  56.519 -55.473  1.00  0.00    -0.315 N 
HETATM    2  C   UNL     1     -41.587  57.174 -54.495  1.00  0.00     0.225 C 
HETATM    3  O   UNL     1     -41.510  58.368 -54.251  1.00  0.00    -0.273 OA
HETATM    4  C   UNL     1     -40.857  56.116 -53.698  1.00  0.00     0.117 C 
HETATM    5  C   UNL     1     -40.823  54.963 -54.686  1.00  0.00     0.082 C 
HETATM    6  C   UNL     1     -42.180  55.086 -55.364  1.00  0.00     0.145 C 
ENDROOT
BRANCH   1   7
HETATM    7  C   UNL     1     -43.145  57.132 -56.483  1.00  0.00     0.073 A 
HETATM    8  C   UNL     1     -42.678  57.163 -57.811  1.00  0.00     0.069 A 
HETATM    9  C   UNL     1     -43.464  57.672 -58.849  1.00  0.00     0.070 A 
HETATM   10  C   UNL     1     -44.719  58.204 -58.563  1.00  0.00     0.039 A 
HETATM   11  C   UNL     1     -45.198  58.207 -57.256  1.00  0.00     0.042 A 
HETATM   12  C   UNL     1     -44.416  57.688 -56.216  1.00  0.00     0.095 A 
BRANCH   9  13
HETATM   13  O   UNL     1     -43.122  57.694 -60.174  1.00  0.00    -0.356 OA
HETATM   14  C   UNL     1     -41.915  58.375 -60.501  1.00  0.00     0.210 C 
ENDBRANCH   9  13
BRANCH  12  15
HETATM   15  O   UNL     1     -44.898  57.701 -54.931  1.00  0.00    -0.354 OA
HETATM   16  C   UNL     1     -45.080  59.016 -54.410  1.00  0.00     0.210 C 
ENDBRANCH  12  15
ENDBRANCH   1   7
BRANCH   5  17
HETATM   17  C   UNL     1     -40.570  53.638 -54.067  1.00  0.00     0.111 A 
HETATM   18  N   UNL     1     -40.428  52.484 -54.682  1.00  0.00    -0.233 NA
HETATM   19  C   UNL     1     -40.110  51.574 -53.702  1.00  0.00     0.085 A 
HETATM   20  C   UNL     1     -40.084  52.183 -52.453  1.00  0.00     0.062 A 
HETATM   21  C   UNL     1     -39.815  50.208 -53.803  1.00  0.00     0.034 A 
HETATM   22  N   UNL     1     -40.403  53.491 -52.710  1.00  0.00    -0.342 N 
HETATM   23  C   UNL     1     -39.774  51.505 -51.273  1.00  0.00     0.032 A 
HETATM   24  H   UNL     1     -40.462  54.227 -52.021  1.00  0.00     0.167 HD
HETATM   25  C   UNL     1     -39.475  50.142 -51.394  1.00  0.00     0.002 A 
HETATM   26  C   UNL     1     -39.494  49.502 -52.636  1.00  0.00     0.002 A 
ENDBRANCH   5  17
TORSDOF 4
ENDMDL
MODEL 6
REMARK VINA RESULT:      -7.3      3.017      3.837
REMARK  4 active torsions:
REMARK  status: ('A' for Active; 'I' for Inactive)
REMARK    1  A    between atoms: O_2  and  C_3 
REMARK    2  A    between atoms: C_5  and  N_6 
REMARK    3  A    between atoms: C_10  and  C_11 
REMARK    4  A    between atoms: C_22  and  O_23 
ROOT
HETATM    1  N   UNL     1     -42.714  57.085 -52.690  1.00  0.00    -0.315 N 
HETATM    2  C   UNL     1     -43.358  56.621 -51.534  1.00  0.00     0.225 C 
HETATM    3  O   UNL     1     -44.226  57.163 -50.866  1.00  0.00    -0.273 OA
HETATM    4  C   UNL     1     -42.824  55.238 -51.233  1.00  0.00     0.117 C 
HETATM    5  C   UNL     1     -41.476  55.276 -51.932  1.00  0.00     0.082 C 
HETATM    6  C   UNL     1     -41.790  56.084 -53.184  1.00  0.00     0.145 C 
ENDROOT
BRANCH   1   7
HETATM    7  C   UNL     1     -42.868  58.364 -53.295  1.00  0.00     0.073 A 
HETATM    8  C   UNL     1     -43.838  58.545 -54.299  1.00  0.00     0.069 A 
HETATM    9  C   UNL     1     -44.087  59.803 -54.855  1.00  0.00     0.070 A 
HETATM   10  C   UNL     1     -43.329  60.897 -54.446  1.00  0.00     0.039 A 
HETATM   11  C   UNL     1     -42.347  60.744 -53.471  1.00  0.00     0.042 A 
HETATM   12  C   UNL     1     -42.103  59.486 -52.905  1.00  0.00     0.095 A 
BRANCH   9  13
HETATM   13  O   UNL     1     -45.044  60.088 -55.792  1.00  0.00    -0.356 OA
HETATM   14  C   UNL     1     -44.715  59.778 -57.142  1.00  0.00     0.210 C 
ENDBRANCH   9  13
BRANCH  12  15
HETATM   15  O   UNL     1     -41.130  59.348 -51.948  1.00  0.00    -0.354 OA
HETATM   16  C   UNL     1     -41.494  59.911 -50.688  1.00  0.00     0.210 C 
ENDBRANCH  12  15
ENDBRANCH   1   7
BRANCH   5  17
HETATM   17  C   UNL     1     -40.893  53.939 -52.204  1.00  0.00     0.111 A 
HETATM   18  N   UNL     1     -40.378  53.101 -51.330  1.00  0.00    -0.233 NA
HETATM   19  C   UNL     1     -40.069  51.965 -52.039  1.00  0.00     0.085 A 
HETATM   20  C   UNL     1     -40.379  52.123 -53.385  1.00  0.00     0.062 A 
HETATM   21  C   UNL     1     -39.532  50.747 -51.600  1.00  0.00     0.034 A 
HETATM   22  N   UNL     1     -40.879  53.396 -53.467  1.00  0.00    -0.342 N 
HETATM   23  C   UNL     1     -40.185  51.124 -54.341  1.00  0.00     0.032 A 
HETATM   24  H   UNL     1     -41.219  53.840 -54.308  1.00  0.00     0.167 HD
HETATM   25  C   UNL     1     -39.655  49.912 -53.882  1.00  0.00     0.002 A 
HETATM   26  C   UNL     1     -39.333  49.723 -52.536  1.00  0.00     0.002 A 
ENDBRANCH   5  17
TORSDOF 4
ENDMDL
MODEL 7
REMARK VINA RESULT:      -7.2      3.632      5.803
REMARK  4 active torsions:
REMARK  status: ('A' for Active; 'I' for Inactive)
REMARK    1  A    between atoms: O_2  and  C_3 
REMARK    2  A    between atoms: C_5  and  N_6 
REMARK    3  A    between atoms: C_10  and  C_11 
REMARK    4  A    between atoms: C_22  and  O_23 
ROOT
HETATM    1  N   UNL     1     -42.966  58.231 -52.614  1.00  0.00    -0.315 N 
HETATM    2  C   UNL     1     -41.721  58.691 -53.066  1.00  0.00     0.225 C 
HETATM    3  O   UNL     1     -41.328  59.840 -53.204  1.00  0.00    -0.273 OA
HETATM    4  C   UNL     1     -40.854  57.481 -53.333  1.00  0.00     0.117 C 
HETATM    5  C   UNL     1     -41.900  56.404 -53.561  1.00  0.00     0.082 C 
HETATM    6  C   UNL     1     -42.974  56.785 -52.552  1.00  0.00     0.145 C 
ENDROOT
BRANCH   1   7
HETATM    7  C   UNL     1     -44.106  59.027 -52.303  1.00  0.00     0.073 A 
HETATM    8  C   UNL     1     -44.462  59.233 -50.957  1.00  0.00     0.069 A 
HETATM    9  C   UNL     1     -45.517  60.081 -50.603  1.00  0.00     0.070 A 
HETATM   10  C   UNL     1     -46.265  60.699 -51.601  1.00  0.00     0.039 A 
HETATM   11  C   UNL     1     -45.950  60.496 -52.942  1.00  0.00     0.042 A 
HETATM   12  C   UNL     1     -44.887  59.656 -53.298  1.00  0.00     0.095 A 
BRANCH   9  13
HETATM   13  O   UNL     1     -45.901  60.387 -49.326  1.00  0.00    -0.356 OA
HETATM   14  C   UNL     1     -45.929  61.770 -48.991  1.00  0.00     0.210 C 
ENDBRANCH   9  13
BRANCH  12  15
HETATM   15  O   UNL     1     -44.589  59.462 -54.623  1.00  0.00    -0.354 OA
HETATM   16  C   UNL     1     -44.512  60.676 -55.368  1.00  0.00     0.210 C 
ENDBRANCH  12  15
ENDBRANCH   1   7
BRANCH   5  17
HETATM   17  C   UNL     1     -41.390  55.018 -53.412  1.00  0.00     0.111 A 
HETATM   18  N   UNL     1     -41.231  54.120 -54.360  1.00  0.00    -0.233 NA
HETATM   19  C   UNL     1     -40.639  53.038 -53.755  1.00  0.00     0.085 A 
HETATM   20  C   UNL     1     -40.456  53.271 -52.397  1.00  0.00     0.062 A 
HETATM   21  C   UNL     1     -40.212  51.821 -54.303  1.00  0.00     0.034 A 
HETATM   22  N   UNL     1     -40.964  54.528 -52.200  1.00  0.00    -0.342 N 
HETATM   23  C   UNL     1     -39.862  52.350 -51.532  1.00  0.00     0.032 A 
HETATM   24  H   UNL     1     -40.981  55.024 -51.320  1.00  0.00     0.167 HD
HETATM   25  C   UNL     1     -39.436  51.143 -52.098  1.00  0.00     0.002 A 
HETATM   26  C   UNL     1     -39.606  50.880 -53.460  1.00  0.00     0.002 A 
ENDBRANCH   5  17
TORSDOF 4
ENDMDL
MODEL 8
REMARK VINA RESULT:      -7.2     14.402     17.490
REMARK  4 active torsions:
REMARK  status: ('A' for Active; 'I' for Inactive)
REMARK    1  A    between atoms: O_2  and  C_3 
REMARK    2  A    between atoms: C_5  and  N_6 
REMARK    3  A    between atoms: C_10  and  C_11 
REMARK    4  A    between atoms: C_22  and  O_23 
ROOT
HETATM    1  N   UNL     1     -35.638  40.697 -51.784  1.00  0.00    -0.315 N 
HETATM    2  C   UNL     1     -35.117  41.987 -51.960  1.00  0.00     0.225 C 
HETATM    3  O   UNL     1     -34.465  42.667 -51.182  1.00  0.00    -0.273 OA
HETATM    4  C   UNL     1     -35.459  42.433 -53.364  1.00  0.00     0.117 C 
HETATM    5  C   UNL     1     -36.668  41.566 -53.671  1.00  0.00     0.082 C 
HETATM    6  C   UNL     1     -36.296  40.253 -52.995  1.00  0.00     0.145 C 
ENDROOT
BRANCH   1   7
HETATM    7  C   UNL     1     -35.601  39.920 -50.591  1.00  0.00     0.073 A 
HETATM    8  C   UNL     1     -36.740  39.860 -49.766  1.00  0.00     0.069 A 
HETATM    9  C   UNL     1     -36.780  39.038 -48.635  1.00  0.00     0.070 A 
HETATM   10  C   UNL     1     -35.654  38.296 -48.286  1.00  0.00     0.039 A 
HETATM   11  C   UNL     1     -34.505  38.353 -49.071  1.00  0.00     0.042 A 
HETATM   12  C   UNL     1     -34.468  39.168 -50.210  1.00  0.00     0.095 A 
BRANCH   9  13
HETATM   13  O   UNL     1     -37.856  38.871 -47.807  1.00  0.00    -0.356 OA
HETATM   14  C   UNL     1     -38.954  38.139 -48.341  1.00  0.00     0.210 C 
ENDBRANCH   9  13
BRANCH  12  15
HETATM   15  O   UNL     1     -33.328  39.217 -50.973  1.00  0.00    -0.354 OA
HETATM   16  C   UNL     1     -32.244  39.880 -50.325  1.00  0.00     0.210 C 
ENDBRANCH  12  15
ENDBRANCH   1   7
BRANCH   5  17
HETATM   17  C   UNL     1     -36.975  41.438 -55.117  1.00  0.00     0.111 A 
HETATM   18  N   UNL     1     -36.722  42.314 -56.067  1.00  0.00    -0.233 NA
HETATM   19  C   UNL     1     -37.092  41.706 -57.243  1.00  0.00     0.085 A 
HETATM   20  C   UNL     1     -37.608  40.438 -57.003  1.00  0.00     0.062 A 
HETATM   21  C   UNL     1     -37.003  42.170 -58.562  1.00  0.00     0.034 A 
HETATM   22  N   UNL     1     -37.545  40.302 -55.641  1.00  0.00    -0.342 N 
HETATM   23  C   UNL     1     -38.051  39.584 -58.014  1.00  0.00     0.032 A 
HETATM   24  H   UNL     1     -37.830  39.486 -55.118  1.00  0.00     0.167 HD
HETATM   25  C   UNL     1     -37.948  40.061 -59.326  1.00  0.00     0.002 A 
HETATM   26  C   UNL     1     -37.434  41.331 -59.599  1.00  0.00     0.002 A 
ENDBRANCH   5  17
TORSDOF 4
ENDMDL
MODEL 9
REMARK VINA RESULT:      -7.1      3.625      5.755
REMARK  4 active torsions:
REMARK  status: ('A' for Active; 'I' for Inactive)
REMARK    1  A    between atoms: O_2  and  C_3 
REMARK    2  A    between atoms: C_5  and  N_6 
REMARK    3  A    between atoms: C_10  and  C_11 
REMARK    4  A    between atoms: C_22  and  O_23 
ROOT
HETATM    1  N   UNL     1     -43.295  57.991 -51.793  1.00  0.00    -0.315 N 
HETATM    2  C   UNL     1     -44.246  57.216 -51.112  1.00  0.00     0.225 C 
HETATM    3  O   UNL     1     -45.332  57.549 -50.664  1.00  0.00    -0.273 OA
HETATM    4  C   UNL     1     -43.721  55.799 -51.045  1.00  0.00     0.117 C 
HETATM    5  C   UNL     1     -42.226  56.023 -51.193  1.00  0.00     0.082 C 
HETATM    6  C   UNL     1     -42.174  57.168 -52.195  1.00  0.00     0.145 C 
ENDROOT
BRANCH   1   7
HETATM    7  C   UNL     1     -43.353  59.394 -52.029  1.00  0.00     0.073 A 
HETATM    8  C   UNL     1     -43.161  60.287 -50.957  1.00  0.00     0.069 A 
HETATM    9  C   UNL     1     -43.118  61.670 -51.158  1.00  0.00     0.070 A 
HETATM   10  C   UNL     1     -43.315  62.184 -52.437  1.00  0.00     0.039 A 
HETATM   11  C   UNL     1     -43.530  61.326 -53.513  1.00  0.00     0.042 A 
HETATM   12  C   UNL     1     -43.563  59.940 -53.315  1.00  0.00     0.095 A 
BRANCH   9  13
HETATM   13  O   UNL     1     -42.882  62.610 -50.193  1.00  0.00    -0.356 OA
HETATM   14  C   UNL     1     -43.998  62.986 -49.394  1.00  0.00     0.210 C 
ENDBRANCH   9  13
BRANCH  12  15
HETATM   15  O   UNL     1     -43.778  59.106 -54.383  1.00  0.00    -0.354 OA
HETATM   16  C   UNL     1     -45.156  58.983 -54.733  1.00  0.00     0.210 C 
ENDBRANCH  12  15
ENDBRANCH   1   7
BRANCH   5  17
HETATM   17  C   UNL     1     -41.467  54.817 -51.608  1.00  0.00     0.111 A 
HETATM   18  N   UNL     1     -40.967  53.882 -50.830  1.00  0.00    -0.233 NA
HETATM   19  C   UNL     1     -40.450  52.929 -51.675  1.00  0.00     0.085 A 
HETATM   20  C   UNL     1     -40.616  53.305 -53.003  1.00  0.00     0.062 A 
HETATM   21  C   UNL     1     -39.835  51.705 -51.383  1.00  0.00     0.034 A 
HETATM   22  N   UNL     1     -41.244  54.521 -52.932  1.00  0.00    -0.342 N 
HETATM   23  C   UNL     1     -40.199  52.523 -54.081  1.00  0.00     0.032 A 
HETATM   24  H   UNL     1     -41.531  55.081 -53.723  1.00  0.00     0.167 HD
HETATM   25  C   UNL     1     -39.594  51.300 -53.770  1.00  0.00     0.002 A 
HETATM   26  C   UNL     1     -39.413  50.894 -52.446  1.00  0.00     0.002 A 
ENDBRANCH   5  17
TORSDOF 4
ENDMDL
MODEL 10
REMARK VINA RESULT:      -7.0      3.637      5.835
REMARK  4 active torsions:
REMARK  status: ('A' for Active; 'I' for Inactive)
REMARK    1  A    between atoms: O_2  and  C_3 
REMARK    2  A    between atoms: C_5  and  N_6 
REMARK    3  A    between atoms: C_10  and  C_11 
REMARK    4  A    between atoms: C_22  and  O_23 
ROOT
HETATM    1  N   UNL     1     -42.013  57.922 -52.486  1.00  0.00    -0.315 N 
HETATM    2  C   UNL     1     -41.274  58.081 -53.667  1.00  0.00     0.225 C 
HETATM    3  O   UNL     1     -41.098  59.088 -54.336  1.00  0.00    -0.273 OA
HETATM    4  C   UNL     1     -40.643  56.747 -53.998  1.00  0.00     0.117 C 
HETATM    5  C   UNL     1     -41.569  55.786 -53.271  1.00  0.00     0.082 C 
HETATM    6  C   UNL     1     -41.899  56.561 -52.004  1.00  0.00     0.145 C 
ENDROOT
BRANCH   1   7
HETATM    7  C   UNL     1     -42.819  58.907 -51.847  1.00  0.00     0.073 A 
HETATM    8  C   UNL     1     -42.204  60.011 -51.227  1.00  0.00     0.069 A 
HETATM    9  C   UNL     1     -42.957  61.048 -50.668  1.00  0.00     0.070 A 
HETATM   10  C   UNL     1     -44.348  60.968 -50.679  1.00  0.00     0.039 A 
HETATM   11  C   UNL     1     -44.983  59.877 -51.265  1.00  0.00     0.042 A 
HETATM   12  C   UNL     1     -44.230  58.843 -51.835  1.00  0.00     0.095 A 
BRANCH   9  13
HETATM   13  O   UNL     1     -42.453  62.184 -50.096  1.00  0.00    -0.356 OA
HETATM   14  C   UNL     1     -43.388  63.224 -49.831  1.00  0.00     0.210 C 
ENDBRANCH   9  13
BRANCH  12  15
HETATM   15  O   UNL     1     -44.869  57.772 -52.407  1.00  0.00    -0.354 OA
HETATM   16  C   UNL     1     -45.001  57.883 -53.823  1.00  0.00     0.210 C 
ENDBRANCH  12  15
ENDBRANCH   1   7
BRANCH   5  17
HETATM   17  C   UNL     1     -40.985  54.444 -53.028  1.00  0.00     0.111 A 
HETATM   18  N   UNL     1     -40.621  53.929 -51.873  1.00  0.00    -0.233 NA
HETATM   19  C   UNL     1     -40.240  52.636 -52.143  1.00  0.00     0.085 A 
HETATM   20  C   UNL     1     -40.349  52.363 -53.501  1.00  0.00     0.062 A 
HETATM   21  C   UNL     1     -39.802  51.627 -51.275  1.00  0.00     0.034 A 
HETATM   22  N   UNL     1     -40.802  53.536 -54.045  1.00  0.00    -0.342 N 
HETATM   23  C   UNL     1     -40.044  51.122 -54.062  1.00  0.00     0.032 A 
HETATM   24  H   UNL     1     -41.007  53.690 -55.022  1.00  0.00     0.167 HD
HETATM   25  C   UNL     1     -39.615  50.124 -53.180  1.00  0.00     0.002 A 
HETATM   26  C   UNL     1     -39.495  50.368 -51.809  1.00  0.00     0.002 A 
ENDBRANCH   5  17
TORSDOF 4
ENDMDL
