MODEL 1
REMARK VINA RESULT:      -7.9      0.000      0.000
REMARK  4 active torsions:
REMARK  status: ('A' for Active; 'I' for Inactive)
REMARK    1  A    between atoms: N_2  and  C_3 
REMARK    2  A    between atoms: C_5  and  C_6 
REMARK    3  A    between atoms: C_6  and  C_7 
REMARK    4  A    between atoms: C_14  and  O_15 
ROOT
HETATM    1  C   UNL     1     -40.719  53.583 -51.971  1.00  0.00     0.113 A 
HETATM    2  N   UNL     1     -41.658  54.335 -52.578  1.00  0.00    -0.223 NA
HETATM    3  C   UNL     1     -42.119  53.950 -53.798  1.00  0.00     0.106 A 
HETATM    4  N   UNL     1     -41.679  52.855 -54.437  1.00  0.00    -0.347 N 
HETATM    5  H   UNL     1     -42.039  52.609 -55.355  1.00  0.00     0.167 HD
HETATM    6  C   UNL     1     -40.767  52.099 -53.831  1.00  0.00     0.020 A 
HETATM    7  C   UNL     1     -40.271  52.435 -52.583  1.00  0.00     0.005 A 
HETATM    8  C   UNL     1     -39.263  51.427 -52.133  1.00  0.00     0.044 C 
HETATM    9  C   UNL     1     -39.574  50.248 -53.075  1.00  0.00     0.011 C 
HETATM   10  C   UNL     1     -40.147  50.849 -54.368  1.00  0.00     0.058 C 
ENDROOT
BRANCH   3  11
HETATM   11  C   UNL     1     -43.151  54.818 -54.463  1.00  0.00     0.085 C 
BRANCH  11  12
HETATM   12  C   UNL     1     -42.553  55.742 -55.531  1.00  0.00     0.021 C 
HETATM   13  C   UNL     1     -42.931  57.214 -55.339  1.00  0.00     0.181 C 
HETATM   14  O   UNL     1     -42.222  58.047 -56.259  1.00  0.00    -0.350 OA
HETATM   15  C   UNL     1     -42.324  57.655 -57.569  1.00  0.00     0.077 A 
HETATM   16  C   UNL     1     -42.695  56.361 -57.951  1.00  0.00    -0.024 A 
HETATM   17  C   UNL     1     -41.996  58.618 -58.527  1.00  0.00     0.074 A 
HETATM   18  C   UNL     1     -43.034  55.320 -56.925  1.00  0.00     0.048 C 
HETATM   19  C   UNL     1     -42.779  56.056 -59.313  1.00  0.00     0.012 A 
HETATM   20  C   UNL     1     -42.469  57.025 -60.269  1.00  0.00     0.037 A 
HETATM   21  C   UNL     1     -42.073  58.308 -59.884  1.00  0.00     0.070 A 
BRANCH  21  22
HETATM   22  O   UNL     1     -41.795  59.153 -60.922  1.00  0.00    -0.356 OA
HETATM   23  C   UNL     1     -41.853  60.549 -60.653  1.00  0.00     0.210 C 
ENDBRANCH  21  22
ENDBRANCH  11  12
ENDBRANCH   3  11
BRANCH   1  24
HETATM   24  N   UNL     1     -40.268  53.908 -50.696  1.00  0.00    -0.281 NA
HETATM   25  C   UNL     1     -41.218  54.592 -49.830  1.00  0.00     0.114 C 
HETATM   26  H   UNL     1     -39.370  54.385 -50.717  1.00  0.00     0.128 HD
ENDBRANCH   1  24
TORSDOF 4
ENDMDL
MODEL 2
REMARK VINA RESULT:      -7.8      0.962      2.406
REMARK  4 active torsions:
REMARK  status: ('A' for Active; 'I' for Inactive)
REMARK    1  A    between atoms: N_2  and  C_3 
REMARK    2  A    between atoms: C_5  and  C_6 
REMARK    3  A    between atoms: C_6  and  C_7 
REMARK    4  A    between atoms: C_14  and  O_15 
ROOT
HETATM    1  C   UNL     1     -40.512  52.479 -53.387  1.00  0.00     0.113 A 
HETATM    2  N   UNL     1     -41.335  52.919 -54.359  1.00  0.00    -0.223 NA
HETATM    3  C   UNL     1     -42.276  53.852 -54.049  1.00  0.00     0.106 A 
HETATM    4  N   UNL     1     -42.431  54.356 -52.815  1.00  0.00    -0.347 N 
HETATM    5  H   UNL     1     -43.155  55.042 -52.622  1.00  0.00     0.167 HD
HETATM    6  C   UNL     1     -41.605  53.940 -51.859  1.00  0.00     0.020 A 
HETATM    7  C   UNL     1     -40.621  53.001 -52.119  1.00  0.00     0.005 A 
HETATM    8  C   UNL     1     -39.839  52.707 -50.879  1.00  0.00     0.044 C 
HETATM    9  C   UNL     1     -40.209  53.915 -49.996  1.00  0.00     0.011 C 
HETATM   10  C   UNL     1     -41.612  54.370 -50.427  1.00  0.00     0.058 C 
ENDROOT
BRANCH   3  11
HETATM   11  C   UNL     1     -43.196  54.310 -55.146  1.00  0.00     0.085 C 
BRANCH  11  12
HETATM   12  C   UNL     1     -42.604  55.450 -55.983  1.00  0.00     0.021 C 
HETATM   13  C   UNL     1     -43.039  56.840 -55.510  1.00  0.00     0.181 C 
HETATM   14  O   UNL     1     -42.337  57.864 -56.218  1.00  0.00    -0.350 OA
HETATM   15  C   UNL     1     -42.390  57.744 -57.583  1.00  0.00     0.077 A 
HETATM   16  C   UNL     1     -42.703  56.545 -58.231  1.00  0.00    -0.024 A 
HETATM   17  C   UNL     1     -42.071  58.892 -58.314  1.00  0.00     0.074 A 
HETATM   18  C   UNL     1     -43.032  55.307 -57.450  1.00  0.00     0.048 C 
HETATM   19  C   UNL     1     -42.740  56.521 -59.628  1.00  0.00     0.012 A 
HETATM   20  C   UNL     1     -42.440  57.674 -60.357  1.00  0.00     0.037 A 
HETATM   21  C   UNL     1     -42.101  58.862 -59.707  1.00  0.00     0.070 A 
BRANCH  21  22
HETATM   22  O   UNL     1     -41.825  59.909 -60.542  1.00  0.00    -0.356 OA
HETATM   23  C   UNL     1     -41.637  61.184 -59.940  1.00  0.00     0.210 C 
ENDBRANCH  21  22
ENDBRANCH  11  12
ENDBRANCH   3  11
BRANCH   1  24
HETATM   24  N   UNL     1     -39.497  51.574 -53.677  1.00  0.00    -0.281 NA
HETATM   25  C   UNL     1     -39.910  50.306 -54.263  1.00  0.00     0.114 C 
HETATM   26  H   UNL     1     -38.871  51.435 -52.888  1.00  0.00     0.128 HD
ENDBRANCH   1  24
TORSDOF 4
ENDMDL
MODEL 3
REMARK VINA RESULT:      -7.7      4.158      5.689
REMARK  4 active torsions:
REMARK  status: ('A' for Active; 'I' for Inactive)
REMARK    1  A    between atoms: N_2  and  C_3 
REMARK    2  A    between atoms: C_5  and  C_6 
REMARK    3  A    between atoms: C_6  and  C_7 
REMARK    4  A    between atoms: C_14  and  O_15 
ROOT
HETATM    1  C   UNL     1     -40.264  52.794 -51.144  1.00  0.00     0.113 A 
HETATM    2  N   UNL     1     -40.627  53.949 -51.737  1.00  0.00    -0.223 NA
HETATM    3  C   UNL     1     -40.611  54.023 -53.095  1.00  0.00     0.106 A 
HETATM    4  N   UNL     1     -40.244  52.999 -53.881  1.00  0.00    -0.347 N 
HETATM    5  H   UNL     1     -40.233  53.100 -54.893  1.00  0.00     0.167 HD
HETATM    6  C   UNL     1     -39.906  51.851 -53.301  1.00  0.00     0.020 A 
HETATM    7  C   UNL     1     -39.915  51.714 -51.923  1.00  0.00     0.005 A 
HETATM    8  C   UNL     1     -39.493  50.334 -51.533  1.00  0.00     0.044 C 
HETATM    9  C   UNL     1     -39.672  49.577 -52.862  1.00  0.00     0.011 C 
HETATM   10  C   UNL     1     -39.466  50.600 -53.990  1.00  0.00     0.058 C 
ENDROOT
BRANCH   3  11
HETATM   11  C   UNL     1     -41.000  55.329 -53.730  1.00  0.00     0.085 C 
BRANCH  11  12
HETATM   12  C   UNL     1     -41.831  56.220 -52.799  1.00  0.00     0.021 C 
HETATM   13  C   UNL     1     -43.196  56.598 -53.381  1.00  0.00     0.181 C 
HETATM   14  O   UNL     1     -43.990  57.290 -52.413  1.00  0.00    -0.350 OA
HETATM   15  C   UNL     1     -43.362  58.361 -51.831  1.00  0.00     0.077 A 
HETATM   16  C   UNL     1     -41.973  58.522 -51.830  1.00  0.00    -0.024 A 
HETATM   17  C   UNL     1     -44.192  59.287 -51.192  1.00  0.00     0.074 A 
HETATM   18  C   UNL     1     -41.078  57.524 -52.503  1.00  0.00     0.048 C 
HETATM   19  C   UNL     1     -41.424  59.653 -51.217  1.00  0.00     0.012 A 
HETATM   20  C   UNL     1     -42.255  60.587 -50.595  1.00  0.00     0.037 A 
HETATM   21  C   UNL     1     -43.640  60.409 -50.575  1.00  0.00     0.070 A 
BRANCH  21  22
HETATM   22  O   UNL     1     -44.331  61.394 -49.928  1.00  0.00    -0.356 OA
HETATM   23  C   UNL     1     -45.436  60.991 -49.126  1.00  0.00     0.210 C 
ENDBRANCH  21  22
ENDBRANCH  11  12
ENDBRANCH   3  11
BRANCH   1  24
HETATM   24  N   UNL     1     -40.327  52.658 -49.762  1.00  0.00    -0.281 NA
HETATM   25  C   UNL     1     -40.687  53.852 -49.011  1.00  0.00     0.114 C 
HETATM   26  H   UNL     1     -39.494  52.215 -49.382  1.00  0.00     0.128 HD
ENDBRANCH   1  24
TORSDOF 4
ENDMDL
MODEL 4
REMARK VINA RESULT:      -7.6     14.431     16.339
REMARK  4 active torsions:
REMARK  status: ('A' for Active; 'I' for Inactive)
REMARK    1  A    between atoms: N_2  and  C_3 
REMARK    2  A    between atoms: C_5  and  C_6 
REMARK    3  A    between atoms: C_6  and  C_7 
REMARK    4  A    between atoms: C_14  and  O_15 
ROOT
HETATM    1  C   UNL     1     -34.213  41.109 -54.554  1.00  0.00     0.113 A 
HETATM    2  N   UNL     1     -35.084  41.482 -55.513  1.00  0.00    -0.223 NA
HETATM    3  C   UNL     1     -36.368  41.760 -55.161  1.00  0.00     0.106 A 
HETATM    4  N   UNL     1     -36.817  41.676 -53.899  1.00  0.00    -0.347 N 
HETATM    5  H   UNL     1     -37.789  41.880 -53.679  1.00  0.00     0.167 HD
HETATM    6  C   UNL     1     -35.955  41.330 -52.947  1.00  0.00     0.020 A 
HETATM    7  C   UNL     1     -34.633  41.047 -53.245  1.00  0.00     0.005 A 
HETATM    8  C   UNL     1     -33.884  40.683 -52.004  1.00  0.00     0.044 C 
HETATM    9  C   UNL     1     -34.828  41.224 -50.913  1.00  0.00     0.011 C 
HETATM   10  C   UNL     1     -36.252  41.176 -51.490  1.00  0.00     0.058 C 
ENDROOT
BRANCH   3  11
HETATM   11  C   UNL     1     -37.324  42.152 -56.253  1.00  0.00     0.085 C 
BRANCH  11  12
HETATM   12  C   UNL     1     -37.108  41.359 -57.547  1.00  0.00     0.021 C 
HETATM   13  C   UNL     1     -37.202  42.221 -58.809  1.00  0.00     0.181 C 
HETATM   14  O   UNL     1     -36.836  41.470 -59.969  1.00  0.00    -0.350 OA
HETATM   15  C   UNL     1     -37.506  40.281 -60.106  1.00  0.00     0.077 A 
HETATM   16  C   UNL     1     -38.147  39.641 -59.040  1.00  0.00    -0.024 A 
HETATM   17  C   UNL     1     -37.486  39.706 -61.379  1.00  0.00     0.074 A 
HETATM   18  C   UNL     1     -38.160  40.248 -57.668  1.00  0.00     0.048 C 
HETATM   19  C   UNL     1     -38.813  38.434 -59.278  1.00  0.00     0.012 A 
HETATM   20  C   UNL     1     -38.807  37.871 -60.555  1.00  0.00     0.037 A 
HETATM   21  C   UNL     1     -38.143  38.499 -61.611  1.00  0.00     0.070 A 
BRANCH  21  22
HETATM   22  O   UNL     1     -38.214  37.835 -62.803  1.00  0.00    -0.356 OA
HETATM   23  C   UNL     1     -37.162  38.062 -63.734  1.00  0.00     0.210 C 
ENDBRANCH  21  22
ENDBRANCH  11  12
ENDBRANCH   3  11
BRANCH   1  24
HETATM   24  N   UNL     1     -32.878  40.878 -54.863  1.00  0.00    -0.281 NA
HETATM   25  C   UNL     1     -32.607  40.307 -56.176  1.00  0.00     0.114 C 
HETATM   26  H   UNL     1     -32.397  40.366 -54.128  1.00  0.00     0.128 HD
ENDBRANCH   1  24
TORSDOF 4
ENDMDL
MODEL 5
REMARK VINA RESULT:      -7.6      3.284      7.596
REMARK  4 active torsions:
REMARK  status: ('A' for Active; 'I' for Inactive)
REMARK    1  A    between atoms: N_2  and  C_3 
REMARK    2  A    between atoms: C_5  and  C_6 
REMARK    3  A    between atoms: C_6  and  C_7 
REMARK    4  A    between atoms: C_14  and  O_15 
ROOT
HETATM    1  C   UNL     1     -42.409  58.586 -56.878  1.00  0.00     0.113 A 
HETATM    2  N   UNL     1     -43.019  58.187 -55.745  1.00  0.00    -0.223 NA
HETATM    3  C   UNL     1     -43.744  57.037 -55.760  1.00  0.00     0.106 A 
HETATM    4  N   UNL     1     -43.889  56.275 -56.855  1.00  0.00    -0.347 N 
HETATM    5  H   UNL     1     -44.451  55.428 -56.829  1.00  0.00     0.167 HD
HETATM    6  C   UNL     1     -43.270  56.654 -57.970  1.00  0.00     0.020 A 
HETATM    7  C   UNL     1     -42.509  57.809 -58.010  1.00  0.00     0.005 A 
HETATM    8  C   UNL     1     -41.929  58.006 -59.374  1.00  0.00     0.044 C 
HETATM    9  C   UNL     1     -42.089  56.596 -59.975  1.00  0.00     0.011 C 
HETATM   10  C   UNL     1     -43.306  55.954 -59.290  1.00  0.00     0.058 C 
ENDROOT
BRANCH   3  11
HETATM   11  C   UNL     1     -44.433  56.626 -54.488  1.00  0.00     0.085 C 
BRANCH  11  12
HETATM   12  C   UNL     1     -43.659  55.555 -53.711  1.00  0.00     0.021 C 
HETATM   13  C   UNL     1     -42.748  56.134 -52.624  1.00  0.00     0.181 C 
HETATM   14  O   UNL     1     -42.177  55.093 -51.828  1.00  0.00    -0.350 OA
HETATM   15  C   UNL     1     -41.555  54.107 -52.551  1.00  0.00     0.077 A 
HETATM   16  C   UNL     1     -41.809  53.881 -53.908  1.00  0.00    -0.024 A 
HETATM   17  C   UNL     1     -40.663  53.296 -51.844  1.00  0.00     0.074 A 
HETATM   18  C   UNL     1     -42.776  54.741 -54.667  1.00  0.00     0.048 C 
HETATM   19  C   UNL     1     -41.120  52.857 -54.564  1.00  0.00     0.012 A 
HETATM   20  C   UNL     1     -40.215  52.059 -53.860  1.00  0.00     0.037 A 
HETATM   21  C   UNL     1     -39.984  52.270 -52.500  1.00  0.00     0.070 A 
BRANCH  21  22
HETATM   22  O   UNL     1     -39.079  51.414 -51.937  1.00  0.00    -0.356 OA
HETATM   23  C   UNL     1     -39.590  50.420 -51.056  1.00  0.00     0.210 C 
ENDBRANCH  21  22
ENDBRANCH  11  12
ENDBRANCH   3  11
BRANCH   1  24
HETATM   24  N   UNL     1     -41.607  59.722 -56.888  1.00  0.00    -0.281 NA
HETATM   25  C   UNL     1     -42.299  61.001 -56.815  1.00  0.00     0.114 C 
HETATM   26  H   UNL     1     -40.930  59.706 -57.646  1.00  0.00     0.128 HD
ENDBRANCH   1  24
TORSDOF 4
ENDMDL
MODEL 6
REMARK VINA RESULT:      -7.5      4.071      6.019
REMARK  4 active torsions:
REMARK  status: ('A' for Active; 'I' for Inactive)
REMARK    1  A    between atoms: N_2  and  C_3 
REMARK    2  A    between atoms: C_5  and  C_6 
REMARK    3  A    between atoms: C_6  and  C_7 
REMARK    4  A    between atoms: C_14  and  O_15 
ROOT
HETATM    1  C   UNL     1     -40.221  52.971 -53.584  1.00  0.00     0.113 A 
HETATM    2  N   UNL     1     -40.226  53.800 -52.521  1.00  0.00    -0.223 NA
HETATM    3  C   UNL     1     -40.054  53.274 -51.278  1.00  0.00     0.106 A 
HETATM    4  N   UNL     1     -39.883  51.962 -51.054  1.00  0.00    -0.347 N 
HETATM    5  H   UNL     1     -39.771  51.608 -50.107  1.00  0.00     0.167 HD
HETATM    6  C   UNL     1     -39.855  51.144 -52.102  1.00  0.00     0.020 A 
HETATM    7  C   UNL     1     -40.013  51.624 -53.391  1.00  0.00     0.005 A 
HETATM    8  C   UNL     1     -39.946  50.503 -54.378  1.00  0.00     0.044 C 
HETATM    9  C   UNL     1     -39.289  49.396 -53.531  1.00  0.00     0.011 C 
HETATM   10  C   UNL     1     -39.681  49.660 -52.069  1.00  0.00     0.058 C 
ENDROOT
BRANCH   3  11
HETATM   11  C   UNL     1     -40.086  54.218 -50.109  1.00  0.00     0.085 C 
BRANCH  11  12
HETATM   12  C   UNL     1     -41.341  55.098 -50.088  1.00  0.00     0.021 C 
HETATM   13  C   UNL     1     -42.549  54.448 -50.769  1.00  0.00     0.181 C 
HETATM   14  O   UNL     1     -43.726  55.237 -50.581  1.00  0.00    -0.350 OA
HETATM   15  C   UNL     1     -43.585  56.555 -50.931  1.00  0.00     0.077 A 
HETATM   16  C   UNL     1     -42.340  57.184 -51.041  1.00  0.00    -0.024 A 
HETATM   17  C   UNL     1     -44.769  57.267 -51.140  1.00  0.00     0.074 A 
HETATM   18  C   UNL     1     -41.067  56.427 -50.804  1.00  0.00     0.048 C 
HETATM   19  C   UNL     1     -42.295  58.532 -51.411  1.00  0.00     0.012 A 
HETATM   20  C   UNL     1     -43.479  59.237 -51.638  1.00  0.00     0.037 A 
HETATM   21  C   UNL     1     -44.720  58.613 -51.501  1.00  0.00     0.070 A 
BRANCH  21  22
HETATM   22  O   UNL     1     -45.794  59.421 -51.747  1.00  0.00    -0.356 OA
HETATM   23  C   UNL     1     -45.944  60.567 -50.917  1.00  0.00     0.210 C 
ENDBRANCH  21  22
ENDBRANCH  11  12
ENDBRANCH   3  11
BRANCH   1  24
HETATM   24  N   UNL     1     -40.331  53.475 -54.875  1.00  0.00    -0.281 NA
HETATM   25  C   UNL     1     -41.348  54.495 -55.086  1.00  0.00     0.114 C 
HETATM   26  H   UNL     1     -40.392  52.736 -55.571  1.00  0.00     0.128 HD
ENDBRANCH   1  24
TORSDOF 4
ENDMDL
MODEL 7
REMARK VINA RESULT:      -7.4      3.553      8.077
REMARK  4 active torsions:
REMARK  status: ('A' for Active; 'I' for Inactive)
REMARK    1  A    between atoms: N_2  and  C_3 
REMARK    2  A    between atoms: C_5  and  C_6 
REMARK    3  A    between atoms: C_6  and  C_7 
REMARK    4  A    between atoms: C_14  and  O_15 
ROOT
HETATM    1  C   UNL     1     -44.963  57.694 -58.275  1.00  0.00     0.113 A 
HETATM    2  N   UNL     1     -43.992  57.887 -57.360  1.00  0.00    -0.223 NA
HETATM    3  C   UNL     1     -43.007  56.956 -57.243  1.00  0.00     0.106 A 
HETATM    4  N   UNL     1     -42.956  55.844 -57.993  1.00  0.00    -0.347 N 
HETATM    5  H   UNL     1     -42.210  55.165 -57.864  1.00  0.00     0.167 HD
HETATM    6  C   UNL     1     -43.900  55.661 -58.911  1.00  0.00     0.020 A 
HETATM    7  C   UNL     1     -44.920  56.581 -59.084  1.00  0.00     0.005 A 
HETATM    8  C   UNL     1     -45.845  56.138 -60.171  1.00  0.00     0.044 C 
HETATM    9  C   UNL     1     -44.981  55.085 -60.891  1.00  0.00     0.011 C 
HETATM   10  C   UNL     1     -44.027  54.497 -59.840  1.00  0.00     0.058 C 
ENDROOT
BRANCH   3  11
HETATM   11  C   UNL     1     -41.949  57.184 -56.201  1.00  0.00     0.085 C 
BRANCH  11  12
HETATM   12  C   UNL     1     -41.978  56.135 -55.082  1.00  0.00     0.021 C 
HETATM   13  C   UNL     1     -41.670  56.715 -53.699  1.00  0.00     0.181 C 
HETATM   14  O   UNL     1     -41.868  55.733 -52.678  1.00  0.00    -0.350 OA
HETATM   15  C   UNL     1     -41.212  54.550 -52.899  1.00  0.00     0.077 A 
HETATM   16  C   UNL     1     -40.759  54.154 -54.162  1.00  0.00    -0.024 A 
HETATM   17  C   UNL     1     -41.047  53.721 -51.786  1.00  0.00     0.074 A 
HETATM   18  C   UNL     1     -40.947  55.034 -55.362  1.00  0.00     0.048 C 
HETATM   19  C   UNL     1     -40.093  52.931 -54.288  1.00  0.00     0.012 A 
HETATM   20  C   UNL     1     -39.912  52.112 -53.171  1.00  0.00     0.037 A 
HETATM   21  C   UNL     1     -40.390  52.499 -51.918  1.00  0.00     0.070 A 
BRANCH  21  22
HETATM   22  O   UNL     1     -40.149  51.601 -50.916  1.00  0.00    -0.356 OA
HETATM   23  C   UNL     1     -39.535  50.371 -51.283  1.00  0.00     0.210 C 
ENDBRANCH  21  22
ENDBRANCH  11  12
ENDBRANCH   3  11
BRANCH   1  24
HETATM   24  N   UNL     1     -45.952  58.652 -58.470  1.00  0.00    -0.281 NA
HETATM   25  C   UNL     1     -47.155  58.513 -57.661  1.00  0.00     0.114 C 
HETATM   26  H   UNL     1     -46.175  58.777 -59.454  1.00  0.00     0.128 HD
ENDBRANCH   1  24
TORSDOF 4
ENDMDL
MODEL 8
REMARK VINA RESULT:      -7.3      3.180      8.531
REMARK  4 active torsions:
REMARK  status: ('A' for Active; 'I' for Inactive)
REMARK    1  A    between atoms: N_2  and  C_3 
REMARK    2  A    between atoms: C_5  and  C_6 
REMARK    3  A    between atoms: C_6  and  C_7 
REMARK    4  A    between atoms: C_14  and  O_15 
ROOT
HETATM    1  C   UNL     1     -42.813  56.622 -59.005  1.00  0.00     0.113 A 
HETATM    2  N   UNL     1     -43.072  56.201 -57.751  1.00  0.00    -0.223 NA
HETATM    3  C   UNL     1     -42.869  57.060 -56.716  1.00  0.00     0.106 A 
HETATM    4  N   UNL     1     -42.416  58.313 -56.879  1.00  0.00    -0.347 N 
HETATM    5  H   UNL     1     -42.265  58.919 -56.077  1.00  0.00     0.167 HD
HETATM    6  C   UNL     1     -42.180  58.738 -58.117  1.00  0.00     0.020 A 
HETATM    7  C   UNL     1     -42.379  57.913 -59.210  1.00  0.00     0.005 A 
HETATM    8  C   UNL     1     -42.038  58.631 -60.476  1.00  0.00     0.044 C 
HETATM    9  C   UNL     1     -42.047  60.097 -60.003  1.00  0.00     0.011 C 
HETATM   10  C   UNL     1     -41.671  60.087 -58.513  1.00  0.00     0.058 C 
ENDROOT
BRANCH   3  11
HETATM   11  C   UNL     1     -43.145  56.558 -55.326  1.00  0.00     0.085 C 
BRANCH  11  12
HETATM   12  C   UNL     1     -42.170  55.460 -54.884  1.00  0.00     0.021 C 
HETATM   13  C   UNL     1     -42.661  54.046 -55.209  1.00  0.00     0.181 C 
HETATM   14  O   UNL     1     -41.650  53.077 -54.925  1.00  0.00    -0.350 OA
HETATM   15  C   UNL     1     -41.126  53.162 -53.661  1.00  0.00     0.077 A 
HETATM   16  C   UNL     1     -41.221  54.314 -52.873  1.00  0.00    -0.024 A 
HETATM   17  C   UNL     1     -40.442  52.033 -53.201  1.00  0.00     0.074 A 
HETATM   18  C   UNL     1     -41.942  55.533 -53.368  1.00  0.00     0.048 C 
HETATM   19  C   UNL     1     -40.662  54.305 -51.592  1.00  0.00     0.012 A 
HETATM   20  C   UNL     1     -39.995  53.169 -51.126  1.00  0.00     0.037 A 
HETATM   21  C   UNL     1     -39.878  52.031 -51.926  1.00  0.00     0.070 A 
BRANCH  21  22
HETATM   22  O   UNL     1     -39.197  50.996 -51.348  1.00  0.00    -0.356 OA
HETATM   23  C   UNL     1     -39.529  49.682 -51.779  1.00  0.00     0.210 C 
ENDBRANCH  21  22
ENDBRANCH  11  12
ENDBRANCH   3  11
BRANCH   1  24
HETATM   24  N   UNL     1     -43.066  55.797 -60.094  1.00  0.00    -0.281 NA
HETATM   25  C   UNL     1     -44.467  55.580 -60.428  1.00  0.00     0.114 C 
HETATM   26  H   UNL     1     -42.556  54.920 -60.038  1.00  0.00     0.128 HD
ENDBRANCH   1  24
TORSDOF 4
ENDMDL
MODEL 9
REMARK VINA RESULT:      -7.1     14.789     16.248
REMARK  4 active torsions:
REMARK  status: ('A' for Active; 'I' for Inactive)
REMARK    1  A    between atoms: N_2  and  C_3 
REMARK    2  A    between atoms: C_5  and  C_6 
REMARK    3  A    between atoms: C_6  and  C_7 
REMARK    4  A    between atoms: C_14  and  O_15 
ROOT
HETATM    1  C   UNL     1     -35.653  40.398 -50.658  1.00  0.00     0.113 A 
HETATM    2  N   UNL     1     -36.079  41.161 -51.684  1.00  0.00    -0.223 NA
HETATM    3  C   UNL     1     -35.165  41.633 -52.574  1.00  0.00     0.106 A 
HETATM    4  N   UNL     1     -33.850  41.381 -52.479  1.00  0.00    -0.347 N 
HETATM    5  H   UNL     1     -33.197  41.765 -53.158  1.00  0.00     0.167 HD
HETATM    6  C   UNL     1     -33.429  40.611 -51.480  1.00  0.00     0.020 A 
HETATM    7  C   UNL     1     -34.315  40.093 -50.551  1.00  0.00     0.005 A 
HETATM    8  C   UNL     1     -33.588  39.270 -49.537  1.00  0.00     0.044 C 
HETATM    9  C   UNL     1     -32.248  39.021 -50.257  1.00  0.00     0.011 C 
HETATM   10  C   UNL     1     -32.016  40.216 -51.194  1.00  0.00     0.058 C 
ENDROOT
BRANCH   3  11
HETATM   11  C   UNL     1     -35.663  42.499 -53.697  1.00  0.00     0.085 C 
BRANCH  11  12
HETATM   12  C   UNL     1     -36.463  41.715 -54.744  1.00  0.00     0.021 C 
HETATM   13  C   UNL     1     -36.047  40.245 -54.850  1.00  0.00     0.181 C 
HETATM   14  O   UNL     1     -36.926  39.526 -55.718  1.00  0.00    -0.350 OA
HETATM   15  C   UNL     1     -37.098  40.103 -56.950  1.00  0.00     0.077 A 
HETATM   16  C   UNL     1     -36.820  41.449 -57.206  1.00  0.00    -0.024 A 
HETATM   17  C   UNL     1     -37.612  39.274 -57.951  1.00  0.00     0.074 A 
HETATM   18  C   UNL     1     -36.281  42.346 -56.131  1.00  0.00     0.048 C 
HETATM   19  C   UNL     1     -37.019  41.947 -58.498  1.00  0.00     0.012 A 
HETATM   20  C   UNL     1     -37.514  41.112 -59.502  1.00  0.00     0.037 A 
HETATM   21  C   UNL     1     -37.817  39.776 -59.236  1.00  0.00     0.070 A 
BRANCH  21  22
HETATM   22  O   UNL     1     -38.298  39.077 -60.307  1.00  0.00    -0.356 OA
HETATM   23  C   UNL     1     -37.660  39.291 -61.560  1.00  0.00     0.210 C 
ENDBRANCH  21  22
ENDBRANCH  11  12
ENDBRANCH   3  11
BRANCH   1  24
HETATM   24  N   UNL     1     -36.562  39.845 -49.764  1.00  0.00    -0.281 NA
HETATM   25  C   UNL     1     -37.496  38.870 -50.311  1.00  0.00     0.114 C 
HETATM   26  H   UNL     1     -37.042  40.555 -49.216  1.00  0.00     0.128 HD
ENDBRANCH   1  24
TORSDOF 4
ENDMDL
MODEL 10
REMARK VINA RESULT:      -7.1      4.882      6.893
REMARK  4 active torsions:
REMARK  status: ('A' for Active; 'I' for Inactive)
REMARK    1  A    between atoms: N_2  and  C_3 
REMARK    2  A    between atoms: C_5  and  C_6 
REMARK    3  A    between atoms: C_6  and  C_7 
REMARK    4  A    between atoms: C_14  and  O_15 
ROOT
HETATM    1  C   UNL     1     -40.950  54.456 -51.522  1.00  0.00     0.113 A 
HETATM    2  N   UNL     1     -41.277  55.758 -51.648  1.00  0.00    -0.223 NA
HETATM    3  C   UNL     1     -41.226  56.331 -52.880  1.00  0.00     0.106 A 
HETATM    4  N   UNL     1     -40.857  55.664 -53.985  1.00  0.00    -0.347 N 
HETATM    5  H   UNL     1     -40.818  56.133 -54.886  1.00  0.00     0.167 HD
HETATM    6  C   UNL     1     -40.554  54.374 -53.868  1.00  0.00     0.020 A 
HETATM    7  C   UNL     1     -40.601  53.735 -52.641  1.00  0.00     0.005 A 
HETATM    8  C   UNL     1     -40.213  52.298 -52.785  1.00  0.00     0.044 C 
HETATM    9  C   UNL     1     -40.371  52.095 -54.304  1.00  0.00     0.011 C 
HETATM   10  C   UNL     1     -40.118  53.458 -54.966  1.00  0.00     0.058 C 
ENDROOT
BRANCH   3  11
HETATM   11  C   UNL     1     -41.575  57.789 -52.989  1.00  0.00     0.085 C 
BRANCH  11  12
HETATM   12  C   UNL     1     -42.625  58.229 -51.962  1.00  0.00     0.021 C 
HETATM   13  C   UNL     1     -44.058  58.173 -52.499  1.00  0.00     0.181 C 
HETATM   14  O   UNL     1     -45.003  58.436 -51.459  1.00  0.00    -0.350 OA
HETATM   15  C   UNL     1     -44.761  59.587 -50.755  1.00  0.00     0.077 A 
HETATM   16  C   UNL     1     -43.513  60.218 -50.732  1.00  0.00    -0.024 A 
HETATM   17  C   UNL     1     -45.833  60.092 -50.013  1.00  0.00     0.074 A 
HETATM   18  C   UNL     1     -42.356  59.672 -51.515  1.00  0.00     0.048 C 
HETATM   19  C   UNL     1     -43.363  61.394 -49.991  1.00  0.00     0.012 A 
HETATM   20  C   UNL     1     -44.440  61.908 -49.265  1.00  0.00     0.037 A 
HETATM   21  C   UNL     1     -45.677  61.260 -49.269  1.00  0.00     0.070 A 
BRANCH  21  22
HETATM   22  O   UNL     1     -46.640  61.868 -48.512  1.00  0.00    -0.356 OA
HETATM   23  C   UNL     1     -46.664  63.291 -48.517  1.00  0.00     0.210 C 
ENDBRANCH  21  22
ENDBRANCH  11  12
ENDBRANCH   3  11
BRANCH   1  24
HETATM   24  N   UNL     1     -41.051  53.818 -50.291  1.00  0.00    -0.281 NA
HETATM   25  C   UNL     1     -41.149  54.680 -49.121  1.00  0.00     0.114 C 
HETATM   26  H   UNL     1     -40.336  53.104 -50.170  1.00  0.00     0.128 HD
ENDBRANCH   1  24
TORSDOF 4
ENDMDL
