MODEL 1
REMARK VINA RESULT:      -7.1      0.000      0.000
REMARK  5 active torsions:
REMARK  status: ('A' for Active; 'I' for Inactive)
REMARK    1  A    between atoms: C_3  and  N_4 
REMARK       I    between atoms: N_4  and  C_5 
REMARK       I    between atoms: C_5  and  N_6 
REMARK    2  A    between atoms: N_6  and  C_7 
REMARK    3  A    between atoms: C_7  and  C_8 
REMARK    4  A    between atoms: C_8  and  O_9 
REMARK    5  A    between atoms: O_9  and  C_10 
ROOT
HETATM    1  N   UNL     1     -39.973  53.035 -54.346  1.00  0.00    -0.307 N 
HETATM    2  C   UNL     1     -41.171  53.640 -54.660  1.00  0.00     0.320 C 
HETATM    3  N   UNL     1     -40.953  54.798 -55.377  1.00  0.00    -0.340 N 
HETATM    4  O   UNL     1     -42.290  53.218 -54.414  1.00  0.00    -0.247 OA
HETATM    5  H   UNL     1     -39.259  53.227 -55.035  1.00  0.00     0.170 HD
HETATM    6  H   UNL     1     -40.076  55.278 -55.225  1.00  0.00     0.164 HD
ENDROOT
BRANCH   3   7
HETATM    7  C   UNL     1     -42.061  55.612 -55.854  1.00  0.00     0.156 C 
BRANCH   7   8
HETATM    8  C   UNL     1     -42.312  56.874 -55.007  1.00  0.00     0.142 C 
HETATM    9  C   UNL     1     -42.987  57.988 -55.804  1.00  0.00     0.042 C 
BRANCH   8  10
HETATM   10  O   UNL     1     -43.181  56.563 -53.905  1.00  0.00    -0.345 OA
BRANCH  10  11
HETATM   11  C   UNL     1     -42.634  56.291 -52.682  1.00  0.00     0.069 A 
HETATM   12  C   UNL     1     -41.517  56.908 -52.116  1.00  0.00     0.038 A 
HETATM   13  C   UNL     1     -41.058  56.515 -50.853  1.00  0.00     0.026 A 
HETATM   14  C   UNL     1     -41.717  55.506 -50.154  1.00  0.00     0.034 A 
HETATM   15 CL   UNL     1     -41.149  55.028 -48.603  1.00  0.00    -0.084 Cl
HETATM   16  C   UNL     1     -42.830  54.883 -50.710  1.00  0.00     0.026 A 
HETATM   17  C   UNL     1     -43.283  55.275 -51.971  1.00  0.00     0.038 A 
ENDBRANCH  10  11
ENDBRANCH   8  10
ENDBRANCH   7   8
ENDBRANCH   3   7
BRANCH   1  18
HETATM   18  C   UNL     1     -39.816  51.834 -53.614  1.00  0.00     0.059 A 
HETATM   19  C   UNL     1     -39.697  51.724 -52.221  1.00  0.00    -0.032 A 
HETATM   20  C   UNL     1     -39.623  52.886 -51.273  1.00  0.00     0.050 C 
HETATM   21  C   UNL     1     -39.609  50.436 -51.661  1.00  0.00     0.028 A 
HETATM   22  C   UNL     1     -39.577  49.328 -52.492  1.00  0.00     0.117 A 
HETATM   23  N   UNL     1     -39.618  49.403 -53.834  1.00  0.00    -0.271 NA
HETATM   24  C   UNL     1     -39.734  50.649 -54.354  1.00  0.00     0.146 A 
ENDBRANCH   1  18
TORSDOF 5
ENDMDL
MODEL 2
REMARK VINA RESULT:      -6.9      1.615      2.090
REMARK  5 active torsions:
REMARK  status: ('A' for Active; 'I' for Inactive)
REMARK    1  A    between atoms: C_3  and  N_4 
REMARK       I    between atoms: N_4  and  C_5 
REMARK       I    between atoms: C_5  and  N_6 
REMARK    2  A    between atoms: N_6  and  C_7 
REMARK    3  A    between atoms: C_7  and  C_8 
REMARK    4  A    between atoms: C_8  and  O_9 
REMARK    5  A    between atoms: O_9  and  C_10 
ROOT
HETATM    1  N   UNL     1     -40.120  53.016 -54.372  1.00  0.00    -0.307 N 
HETATM    2  C   UNL     1     -41.332  53.610 -54.649  1.00  0.00     0.320 C 
HETATM    3  N   UNL     1     -41.162  54.677 -55.506  1.00  0.00    -0.340 N 
HETATM    4  O   UNL     1     -42.432  53.243 -54.265  1.00  0.00    -0.247 OA
HETATM    5  H   UNL     1     -39.465  53.115 -55.135  1.00  0.00     0.170 HD
HETATM    6  H   UNL     1     -40.269  55.151 -55.483  1.00  0.00     0.164 HD
ENDROOT
BRANCH   3   7
HETATM    7  C   UNL     1     -42.296  55.458 -55.977  1.00  0.00     0.156 C 
BRANCH   7   8
HETATM    8  C   UNL     1     -42.353  56.881 -55.389  1.00  0.00     0.142 C 
HETATM    9  C   UNL     1     -43.371  57.768 -56.104  1.00  0.00     0.042 C 
BRANCH   8  10
HETATM   10  O   UNL     1     -42.742  56.828 -54.006  1.00  0.00    -0.345 OA
BRANCH  10  11
HETATM   11  C   UNL     1     -41.968  57.458 -53.072  1.00  0.00     0.069 A 
HETATM   12  C   UNL     1     -42.190  57.492 -51.695  1.00  0.00     0.038 A 
HETATM   13  C   UNL     1     -41.314  58.192 -50.856  1.00  0.00     0.026 A 
HETATM   14  C   UNL     1     -40.215  58.857 -51.394  1.00  0.00     0.034 A 
HETATM   15 CL   UNL     1     -39.143  59.716 -50.359  1.00  0.00    -0.084 Cl
HETATM   16  C   UNL     1     -39.985  58.831 -52.766  1.00  0.00     0.026 A 
HETATM   17  C   UNL     1     -40.862  58.134 -53.600  1.00  0.00     0.038 A 
ENDBRANCH  10  11
ENDBRANCH   8  10
ENDBRANCH   7   8
ENDBRANCH   3   7
BRANCH   1  18
HETATM   18  C   UNL     1     -39.916  51.900 -53.526  1.00  0.00     0.059 A 
HETATM   19  C   UNL     1     -39.802  51.930 -52.129  1.00  0.00    -0.032 A 
HETATM   20  C   UNL     1     -39.786  53.180 -51.298  1.00  0.00     0.050 C 
HETATM   21  C   UNL     1     -39.663  50.707 -51.447  1.00  0.00     0.028 A 
HETATM   22  C   UNL     1     -39.578  49.526 -52.167  1.00  0.00     0.117 A 
HETATM   23  N   UNL     1     -39.612  49.470 -53.510  1.00  0.00    -0.271 NA
HETATM   24  C   UNL     1     -39.778  50.653 -54.148  1.00  0.00     0.146 A 
ENDBRANCH   1  18
TORSDOF 5
ENDMDL
MODEL 3
REMARK VINA RESULT:      -6.8      1.746      2.567
REMARK  5 active torsions:
REMARK  status: ('A' for Active; 'I' for Inactive)
REMARK    1  A    between atoms: C_3  and  N_4 
REMARK       I    between atoms: N_4  and  C_5 
REMARK       I    between atoms: C_5  and  N_6 
REMARK    2  A    between atoms: N_6  and  C_7 
REMARK    3  A    between atoms: C_7  and  C_8 
REMARK    4  A    between atoms: C_8  and  O_9 
REMARK    5  A    between atoms: O_9  and  C_10 
ROOT
HETATM    1  N   UNL     1     -39.891  52.874 -53.891  1.00  0.00    -0.307 N 
HETATM    2  C   UNL     1     -41.040  53.412 -54.428  1.00  0.00     0.320 C 
HETATM    3  N   UNL     1     -40.739  54.490 -55.232  1.00  0.00    -0.340 N 
HETATM    4  O   UNL     1     -42.178  52.990 -54.289  1.00  0.00    -0.247 OA
HETATM    5  H   UNL     1     -39.091  53.009 -54.494  1.00  0.00     0.170 HD
HETATM    6  H   UNL     1     -39.896  55.006 -55.018  1.00  0.00     0.164 HD
ENDROOT
BRANCH   3   7
HETATM    7  C   UNL     1     -41.780  55.219 -55.941  1.00  0.00     0.156 C 
BRANCH   7   8
HETATM    8  C   UNL     1     -42.111  56.589 -55.317  1.00  0.00     0.142 C 
HETATM    9  C   UNL     1     -43.325  57.249 -55.968  1.00  0.00     0.042 C 
BRANCH   8  10
HETATM   10  O   UNL     1     -42.417  56.433 -53.921  1.00  0.00    -0.345 OA
BRANCH  10  11
HETATM   11  C   UNL     1     -41.692  57.135 -52.999  1.00  0.00     0.069 A 
HETATM   12  C   UNL     1     -41.695  56.940 -51.617  1.00  0.00     0.038 A 
HETATM   13  C   UNL     1     -40.907  57.748 -50.788  1.00  0.00     0.026 A 
HETATM   14  C   UNL     1     -40.115  58.751 -51.343  1.00  0.00     0.034 A 
HETATM   15 CL   UNL     1     -39.149  59.742 -50.321  1.00  0.00    -0.084 Cl
HETATM   16  C   UNL     1     -40.106  58.956 -52.718  1.00  0.00     0.026 A 
HETATM   17  C   UNL     1     -40.896  58.149 -53.541  1.00  0.00     0.038 A 
ENDBRANCH  10  11
ENDBRANCH   8  10
ENDBRANCH   7   8
ENDBRANCH   3   7
BRANCH   1  18
HETATM   18  C   UNL     1     -39.822  51.764 -53.016  1.00  0.00     0.059 A 
HETATM   19  C   UNL     1     -39.719  50.417 -53.394  1.00  0.00    -0.032 A 
HETATM   20  C   UNL     1     -39.757  49.920 -54.811  1.00  0.00     0.050 C 
HETATM   21  C   UNL     1     -39.600  49.449 -52.380  1.00  0.00     0.028 A 
HETATM   22  C   UNL     1     -39.652  49.839 -51.051  1.00  0.00     0.117 A 
HETATM   23  N   UNL     1     -39.822  51.112 -50.655  1.00  0.00    -0.271 NA
HETATM   24  C   UNL     1     -39.903  52.034 -51.644  1.00  0.00     0.146 A 
ENDBRANCH   1  18
TORSDOF 5
ENDMDL
MODEL 4
REMARK VINA RESULT:      -6.8      2.787      4.234
REMARK  5 active torsions:
REMARK  status: ('A' for Active; 'I' for Inactive)
REMARK    1  A    between atoms: C_3  and  N_4 
REMARK       I    between atoms: N_4  and  C_5 
REMARK       I    between atoms: C_5  and  N_6 
REMARK    2  A    between atoms: N_6  and  C_7 
REMARK    3  A    between atoms: C_7  and  C_8 
REMARK    4  A    between atoms: C_8  and  O_9 
REMARK    5  A    between atoms: O_9  and  C_10 
ROOT
HETATM    1  N   UNL     1     -40.120  53.515 -51.644  1.00  0.00    -0.307 N 
HETATM    2  C   UNL     1     -41.319  54.134 -51.367  1.00  0.00     0.320 C 
HETATM    3  N   UNL     1     -41.113  55.451 -51.014  1.00  0.00    -0.340 N 
HETATM    4  O   UNL     1     -42.435  53.646 -51.465  1.00  0.00    -0.247 OA
HETATM    5  H   UNL     1     -39.431  54.164 -51.998  1.00  0.00     0.170 HD
HETATM    6  H   UNL     1     -40.223  55.684 -50.594  1.00  0.00     0.164 HD
ENDROOT
BRANCH   3   7
HETATM    7  C   UNL     1     -42.226  56.334 -50.699  1.00  0.00     0.156 C 
BRANCH   7   8
HETATM    8  C   UNL     1     -42.866  56.988 -51.939  1.00  0.00     0.142 C 
HETATM    9  C   UNL     1     -43.365  58.405 -51.660  1.00  0.00     0.042 C 
BRANCH   8  10
HETATM   10  O   UNL     1     -41.900  57.086 -52.999  1.00  0.00    -0.345 OA
BRANCH  10  11
HETATM   11  C   UNL     1     -42.238  56.650 -54.249  1.00  0.00     0.069 A 
HETATM   12  C   UNL     1     -42.533  55.337 -54.621  1.00  0.00     0.038 A 
HETATM   13  C   UNL     1     -42.852  55.034 -55.950  1.00  0.00     0.026 A 
HETATM   14  C   UNL     1     -42.876  56.044 -56.909  1.00  0.00     0.034 A 
HETATM   15 CL   UNL     1     -43.268  55.666 -58.540  1.00  0.00    -0.084 Cl
HETATM   16  C   UNL     1     -42.581  57.356 -56.551  1.00  0.00     0.026 A 
HETATM   17  C   UNL     1     -42.262  57.654 -55.224  1.00  0.00     0.038 A 
ENDBRANCH  10  11
ENDBRANCH   8  10
ENDBRANCH   7   8
ENDBRANCH   3   7
BRANCH   1  18
HETATM   18  C   UNL     1     -39.953  52.165 -52.032  1.00  0.00     0.059 A 
HETATM   19  C   UNL     1     -39.945  51.676 -53.347  1.00  0.00    -0.032 A 
HETATM   20  C   UNL     1     -40.209  52.506 -54.570  1.00  0.00     0.050 C 
HETATM   21  C   UNL     1     -39.703  50.304 -53.545  1.00  0.00     0.028 A 
HETATM   22  C   UNL     1     -39.545  49.471 -52.449  1.00  0.00     0.117 A 
HETATM   23  N   UNL     1     -39.617  49.895 -51.175  1.00  0.00    -0.271 NA
HETATM   24  C   UNL     1     -39.820  51.223 -51.004  1.00  0.00     0.146 A 
ENDBRANCH   1  18
TORSDOF 5
ENDMDL
MODEL 5
REMARK VINA RESULT:      -6.6      3.124      6.707
REMARK  5 active torsions:
REMARK  status: ('A' for Active; 'I' for Inactive)
REMARK    1  A    between atoms: C_3  and  N_4 
REMARK       I    between atoms: N_4  and  C_5 
REMARK       I    between atoms: C_5  and  N_6 
REMARK    2  A    between atoms: N_6  and  C_7 
REMARK    3  A    between atoms: C_7  and  C_8 
REMARK    4  A    between atoms: C_8  and  O_9 
REMARK    5  A    between atoms: O_9  and  C_10 
ROOT
HETATM    1  N   UNL     1     -43.659  56.390 -56.726  1.00  0.00    -0.307 N 
HETATM    2  C   UNL     1     -43.010  55.543 -55.855  1.00  0.00     0.320 C 
HETATM    3  N   UNL     1     -43.789  55.305 -54.742  1.00  0.00    -0.340 N 
HETATM    4  O   UNL     1     -41.927  55.004 -56.028  1.00  0.00    -0.247 OA
HETATM    5  H   UNL     1     -44.663  56.301 -56.665  1.00  0.00     0.170 HD
HETATM    6  H   UNL     1     -44.449  56.024 -54.477  1.00  0.00     0.164 HD
ENDROOT
BRANCH   3   7
HETATM    7  C   UNL     1     -43.341  54.417 -53.681  1.00  0.00     0.156 C 
BRANCH   7   8
HETATM    8  C   UNL     1     -42.499  55.120 -52.599  1.00  0.00     0.142 C 
HETATM    9  C   UNL     1     -42.825  54.626 -51.191  1.00  0.00     0.042 C 
BRANCH   8  10
HETATM   10  O   UNL     1     -41.101  54.864 -52.819  1.00  0.00    -0.345 OA
BRANCH  10  11
HETATM   11  C   UNL     1     -40.642  53.577 -52.759  1.00  0.00     0.069 A 
HETATM   12  C   UNL     1     -40.113  52.935 -51.638  1.00  0.00     0.038 A 
HETATM   13  C   UNL     1     -39.668  51.611 -51.728  1.00  0.00     0.026 A 
HETATM   14  C   UNL     1     -39.752  50.928 -52.939  1.00  0.00     0.034 A 
HETATM   15 CL   UNL     1     -39.203  49.302 -53.044  1.00  0.00    -0.084 Cl
HETATM   16  C   UNL     1     -40.275  51.559 -54.063  1.00  0.00     0.026 A 
HETATM   17  C   UNL     1     -40.717  52.881 -53.970  1.00  0.00     0.038 A 
ENDBRANCH  10  11
ENDBRANCH   8  10
ENDBRANCH   7   8
ENDBRANCH   3   7
BRANCH   1  18
HETATM   18  C   UNL     1     -43.155  56.853 -57.965  1.00  0.00     0.059 A 
HETATM   19  C   UNL     1     -43.369  56.262 -59.218  1.00  0.00    -0.032 A 
HETATM   20  C   UNL     1     -44.103  54.971 -59.442  1.00  0.00     0.050 C 
HETATM   21  C   UNL     1     -42.838  56.901 -60.354  1.00  0.00     0.028 A 
HETATM   22  C   UNL     1     -42.072  58.045 -60.202  1.00  0.00     0.117 A 
HETATM   23  N   UNL     1     -41.788  58.597 -59.009  1.00  0.00    -0.271 NA
HETATM   24  C   UNL     1     -42.334  57.987 -57.929  1.00  0.00     0.146 A 
ENDBRANCH   1  18
TORSDOF 5
ENDMDL
MODEL 6
REMARK VINA RESULT:      -6.5      1.887      2.688
REMARK  5 active torsions:
REMARK  status: ('A' for Active; 'I' for Inactive)
REMARK    1  A    between atoms: C_3  and  N_4 
REMARK       I    between atoms: N_4  and  C_5 
REMARK       I    between atoms: C_5  and  N_6 
REMARK    2  A    between atoms: N_6  and  C_7 
REMARK    3  A    between atoms: C_7  and  C_8 
REMARK    4  A    between atoms: C_8  and  O_9 
REMARK    5  A    between atoms: O_9  and  C_10 
ROOT
HETATM    1  N   UNL     1     -40.459  53.595 -54.487  1.00  0.00    -0.307 N 
HETATM    2  C   UNL     1     -41.674  54.126 -54.861  1.00  0.00     0.320 C 
HETATM    3  N   UNL     1     -41.538  54.884 -56.005  1.00  0.00    -0.340 N 
HETATM    4  O   UNL     1     -42.753  53.931 -54.324  1.00  0.00    -0.247 OA
HETATM    5  H   UNL     1     -39.852  53.439 -55.280  1.00  0.00     0.170 HD
HETATM    6  H   UNL     1     -40.636  55.309 -56.174  1.00  0.00     0.164 HD
ENDROOT
BRANCH   3   7
HETATM    7  C   UNL     1     -42.684  55.533 -56.623  1.00  0.00     0.156 C 
BRANCH   7   8
HETATM    8  C   UNL     1     -42.821  57.024 -56.260  1.00  0.00     0.142 C 
HETATM    9  C   UNL     1     -43.740  57.777 -57.220  1.00  0.00     0.042 C 
BRANCH   8  10
HETATM   10  O   UNL     1     -43.385  57.162 -54.945  1.00  0.00    -0.345 OA
BRANCH  10  11
HETATM   11  C   UNL     1     -42.575  57.539 -53.910  1.00  0.00     0.069 A 
HETATM   12  C   UNL     1     -42.667  57.113 -52.584  1.00  0.00     0.038 A 
HETATM   13  C   UNL     1     -41.773  57.598 -51.623  1.00  0.00     0.026 A 
HETATM   14  C   UNL     1     -40.784  58.509 -51.988  1.00  0.00     0.034 A 
HETATM   15 CL   UNL     1     -39.687  59.101 -50.803  1.00  0.00    -0.084 Cl
HETATM   16  C   UNL     1     -40.684  58.943 -53.306  1.00  0.00     0.026 A 
HETATM   17  C   UNL     1     -41.580  58.459 -54.261  1.00  0.00     0.038 A 
ENDBRANCH  10  11
ENDBRANCH   8  10
ENDBRANCH   7   8
ENDBRANCH   3   7
BRANCH   1  18
HETATM   18  C   UNL     1     -40.223  52.772 -53.359  1.00  0.00     0.059 A 
HETATM   19  C   UNL     1     -39.933  51.400 -53.382  1.00  0.00    -0.032 A 
HETATM   20  C   UNL     1     -39.917  50.549 -54.619  1.00  0.00     0.050 C 
HETATM   21  C   UNL     1     -39.666  50.757 -52.159  1.00  0.00     0.028 A 
HETATM   22  C   UNL     1     -39.758  51.471 -50.974  1.00  0.00     0.117 A 
HETATM   23  N   UNL     1     -40.103  52.769 -50.913  1.00  0.00    -0.271 NA
HETATM   24  C   UNL     1     -40.326  53.380 -52.102  1.00  0.00     0.146 A 
ENDBRANCH   1  18
TORSDOF 5
ENDMDL
MODEL 7
REMARK VINA RESULT:      -6.4      3.045      6.721
REMARK  5 active torsions:
REMARK  status: ('A' for Active; 'I' for Inactive)
REMARK    1  A    between atoms: C_3  and  N_4 
REMARK       I    between atoms: N_4  and  C_5 
REMARK       I    between atoms: C_5  and  N_6 
REMARK    2  A    between atoms: N_6  and  C_7 
REMARK    3  A    between atoms: C_7  and  C_8 
REMARK    4  A    between atoms: C_8  and  O_9 
REMARK    5  A    between atoms: O_9  and  C_10 
ROOT
HETATM    1  N   UNL     1     -43.857  56.311 -56.502  1.00  0.00    -0.307 N 
HETATM    2  C   UNL     1     -43.256  56.757 -55.346  1.00  0.00     0.320 C 
HETATM    3  N   UNL     1     -43.754  56.082 -54.251  1.00  0.00    -0.340 N 
HETATM    4  O   UNL     1     -42.362  57.584 -55.258  1.00  0.00    -0.247 OA
HETATM    5  H   UNL     1     -44.144  55.344 -56.433  1.00  0.00     0.170 HD
HETATM    6  H   UNL     1     -44.696  55.720 -54.320  1.00  0.00     0.164 HD
ENDROOT
BRANCH   3   7
HETATM    7  C   UNL     1     -43.261  56.348 -52.909  1.00  0.00     0.156 C 
BRANCH   7   8
HETATM    8  C   UNL     1     -41.758  56.059 -52.732  1.00  0.00     0.142 C 
HETATM    9  C   UNL     1     -41.033  57.171 -51.978  1.00  0.00     0.042 C 
BRANCH   8  10
HETATM   10  O   UNL     1     -41.575  54.851 -51.975  1.00  0.00    -0.345 OA
BRANCH  10  11
HETATM   11  C   UNL     1     -41.074  53.743 -52.601  1.00  0.00     0.069 A 
HETATM   12  C   UNL     1     -41.307  53.357 -53.922  1.00  0.00     0.038 A 
HETATM   13  C   UNL     1     -40.736  52.183 -54.426  1.00  0.00     0.026 A 
HETATM   14  C   UNL     1     -39.929  51.394 -53.608  1.00  0.00     0.034 A 
HETATM   15 CL   UNL     1     -39.229  49.952 -54.232  1.00  0.00    -0.084 Cl
HETATM   16  C   UNL     1     -39.692  51.767 -52.289  1.00  0.00     0.026 A 
HETATM   17  C   UNL     1     -40.266  52.938 -51.790  1.00  0.00     0.038 A 
ENDBRANCH  10  11
ENDBRANCH   8  10
ENDBRANCH   7   8
ENDBRANCH   3   7
BRANCH   1  18
HETATM   18  C   UNL     1     -43.595  56.783 -57.810  1.00  0.00     0.059 A 
HETATM   19  C   UNL     1     -44.008  58.013 -58.345  1.00  0.00    -0.032 A 
HETATM   20  C   UNL     1     -44.887  59.003 -57.636  1.00  0.00     0.050 C 
HETATM   21  C   UNL     1     -43.599  58.341 -59.651  1.00  0.00     0.028 A 
HETATM   22  C   UNL     1     -42.865  57.427 -60.390  1.00  0.00     0.117 A 
HETATM   23  N   UNL     1     -42.514  56.212 -59.932  1.00  0.00    -0.271 NA
HETATM   24  C   UNL     1     -42.888  55.926 -58.662  1.00  0.00     0.146 A 
ENDBRANCH   1  18
TORSDOF 5
ENDMDL
MODEL 8
REMARK VINA RESULT:      -6.3      4.097      7.998
REMARK  5 active torsions:
REMARK  status: ('A' for Active; 'I' for Inactive)
REMARK    1  A    between atoms: C_3  and  N_4 
REMARK       I    between atoms: N_4  and  C_5 
REMARK       I    between atoms: C_5  and  N_6 
REMARK    2  A    between atoms: N_6  and  C_7 
REMARK    3  A    between atoms: C_7  and  C_8 
REMARK    4  A    between atoms: C_8  and  O_9 
REMARK    5  A    between atoms: O_9  and  C_10 
ROOT
HETATM    1  N   UNL     1     -43.259  59.079 -50.982  1.00  0.00    -0.307 N 
HETATM    2  C   UNL     1     -42.102  58.352 -51.155  1.00  0.00     0.320 C 
HETATM    3  N   UNL     1     -42.026  57.337 -50.225  1.00  0.00    -0.340 N 
HETATM    4  O   UNL     1     -41.263  58.509 -52.029  1.00  0.00    -0.247 OA
HETATM    5  H   UNL     1     -44.006  58.517 -50.598  1.00  0.00     0.170 HD
HETATM    6  H   UNL     1     -42.503  57.478 -49.345  1.00  0.00     0.164 HD
ENDROOT
BRANCH   3   7
HETATM    7  C   UNL     1     -40.908  56.405 -50.212  1.00  0.00     0.156 C 
BRANCH   7   8
HETATM    8  C   UNL     1     -41.288  54.977 -50.650  1.00  0.00     0.142 C 
HETATM    9  C   UNL     1     -42.764  54.665 -50.411  1.00  0.00     0.042 C 
BRANCH   8  10
HETATM   10  O   UNL     1     -41.048  54.813 -52.058  1.00  0.00    -0.345 OA
BRANCH  10  11
HETATM   11  C   UNL     1     -40.617  53.602 -52.523  1.00  0.00     0.069 A 
HETATM   12  C   UNL     1     -39.937  52.625 -51.793  1.00  0.00     0.038 A 
HETATM   13  C   UNL     1     -39.543  51.431 -52.408  1.00  0.00     0.026 A 
HETATM   14  C   UNL     1     -39.829  51.212 -53.754  1.00  0.00     0.034 A 
HETATM   15 CL   UNL     1     -39.342  49.744 -54.505  1.00  0.00    -0.084 Cl
HETATM   16  C   UNL     1     -40.504  52.180 -54.492  1.00  0.00     0.026 A 
HETATM   17  C   UNL     1     -40.893  53.371 -53.875  1.00  0.00     0.038 A 
ENDBRANCH  10  11
ENDBRANCH   8  10
ENDBRANCH   7   8
ENDBRANCH   3   7
BRANCH   1  18
HETATM   18  C   UNL     1     -43.662  60.196 -51.753  1.00  0.00     0.059 A 
HETATM   19  C   UNL     1     -44.418  60.158 -52.933  1.00  0.00    -0.032 A 
HETATM   20  C   UNL     1     -44.852  58.902 -53.632  1.00  0.00     0.050 C 
HETATM   21  C   UNL     1     -44.778  61.380 -53.532  1.00  0.00     0.028 A 
HETATM   22  C   UNL     1     -44.327  62.570 -52.984  1.00  0.00     0.117 A 
HETATM   23  N   UNL     1     -43.542  62.638 -51.895  1.00  0.00    -0.271 NA
HETATM   24  C   UNL     1     -43.232  61.454 -51.313  1.00  0.00     0.146 A 
ENDBRANCH   1  18
TORSDOF 5
ENDMDL
MODEL 9
REMARK VINA RESULT:      -6.2      3.362      5.098
REMARK  5 active torsions:
REMARK  status: ('A' for Active; 'I' for Inactive)
REMARK    1  A    between atoms: C_3  and  N_4 
REMARK       I    between atoms: N_4  and  C_5 
REMARK       I    between atoms: C_5  and  N_6 
REMARK    2  A    between atoms: N_6  and  C_7 
REMARK    3  A    between atoms: C_7  and  C_8 
REMARK    4  A    between atoms: C_8  and  O_9 
REMARK    5  A    between atoms: O_9  and  C_10 
ROOT
HETATM    1  N   UNL     1     -42.911  54.525 -52.202  1.00  0.00    -0.307 N 
HETATM    2  C   UNL     1     -42.857  55.896 -52.323  1.00  0.00     0.320 C 
HETATM    3  N   UNL     1     -44.129  56.428 -52.358  1.00  0.00    -0.340 N 
HETATM    4  O   UNL     1     -41.852  56.590 -52.338  1.00  0.00    -0.247 OA
HETATM    5  H   UNL     1     -43.738  54.219 -51.708  1.00  0.00     0.170 HD
HETATM    6  H   UNL     1     -44.868  55.837 -52.715  1.00  0.00     0.164 HD
ENDROOT
BRANCH   3   7
HETATM    7  C   UNL     1     -44.347  57.863 -52.453  1.00  0.00     0.156 C 
BRANCH   7   8
HETATM    8  C   UNL     1     -44.733  58.338 -53.868  1.00  0.00     0.142 C 
HETATM    9  C   UNL     1     -45.325  59.746 -53.870  1.00  0.00     0.042 C 
BRANCH   8  10
HETATM   10  O   UNL     1     -43.569  58.372 -54.711  1.00  0.00    -0.345 OA
BRANCH  10  11
HETATM   11  C   UNL     1     -43.611  57.751 -55.928  1.00  0.00     0.069 A 
HETATM   12  C   UNL     1     -44.233  58.226 -57.083  1.00  0.00     0.038 A 
HETATM   13  C   UNL     1     -44.206  57.470 -58.261  1.00  0.00     0.026 A 
HETATM   14  C   UNL     1     -43.554  56.239 -58.285  1.00  0.00     0.034 A 
HETATM   15 CL   UNL     1     -43.524  55.315 -59.735  1.00  0.00    -0.084 Cl
HETATM   16  C   UNL     1     -42.932  55.755 -57.139  1.00  0.00     0.026 A 
HETATM   17  C   UNL     1     -42.964  56.510 -55.965  1.00  0.00     0.038 A 
ENDBRANCH  10  11
ENDBRANCH   8  10
ENDBRANCH   7   8
ENDBRANCH   3   7
BRANCH   1  18
HETATM   18  C   UNL     1     -41.799  53.652 -52.142  1.00  0.00     0.059 A 
HETATM   19  C   UNL     1     -41.129  53.087 -53.237  1.00  0.00    -0.032 A 
HETATM   20  C   UNL     1     -41.547  53.246 -54.671  1.00  0.00     0.050 C 
HETATM   21  C   UNL     1     -39.999  52.287 -52.985  1.00  0.00     0.028 A 
HETATM   22  C   UNL     1     -39.621  52.027 -51.678  1.00  0.00     0.117 A 
HETATM   23  N   UNL     1     -40.283  52.495 -50.605  1.00  0.00    -0.271 NA
HETATM   24  C   UNL     1     -41.349  53.289 -50.866  1.00  0.00     0.146 A 
ENDBRANCH   1  18
TORSDOF 5
ENDMDL
MODEL 10
REMARK VINA RESULT:      -6.2      3.704      5.350
REMARK  5 active torsions:
REMARK  status: ('A' for Active; 'I' for Inactive)
REMARK    1  A    between atoms: C_3  and  N_4 
REMARK       I    between atoms: N_4  and  C_5 
REMARK       I    between atoms: C_5  and  N_6 
REMARK    2  A    between atoms: N_6  and  C_7 
REMARK    3  A    between atoms: C_7  and  C_8 
REMARK    4  A    between atoms: C_8  and  O_9 
REMARK    5  A    between atoms: O_9  and  C_10 
ROOT
HETATM    1  N   UNL     1     -42.168  54.221 -53.213  1.00  0.00    -0.307 N 
HETATM    2  C   UNL     1     -41.971  55.472 -53.755  1.00  0.00     0.320 C 
HETATM    3  N   UNL     1     -43.124  56.223 -53.670  1.00  0.00    -0.340 N 
HETATM    4  O   UNL     1     -40.925  55.919 -54.201  1.00  0.00    -0.247 OA
HETATM    5  H   UNL     1     -42.864  54.230 -52.480  1.00  0.00     0.170 HD
HETATM    6  H   UNL     1     -44.002  55.722 -53.658  1.00  0.00     0.164 HD
ENDROOT
BRANCH   3   7
HETATM    7  C   UNL     1     -43.170  57.596 -54.148  1.00  0.00     0.156 C 
BRANCH   7   8
HETATM    8  C   UNL     1     -44.232  57.837 -55.238  1.00  0.00     0.142 C 
HETATM    9  C   UNL     1     -45.123  59.039 -54.932  1.00  0.00     0.042 C 
BRANCH   8  10
HETATM   10  O   UNL     1     -43.594  58.099 -56.499  1.00  0.00    -0.345 OA
BRANCH  10  11
HETATM   11  C   UNL     1     -43.840  57.268 -57.556  1.00  0.00     0.069 A 
HETATM   12  C   UNL     1     -43.139  56.106 -57.881  1.00  0.00     0.038 A 
HETATM   13  C   UNL     1     -43.497  55.357 -59.008  1.00  0.00     0.026 A 
HETATM   14  C   UNL     1     -44.558  55.769 -59.811  1.00  0.00     0.034 A 
HETATM   15 CL   UNL     1     -44.993  54.845 -61.194  1.00  0.00    -0.084 Cl
HETATM   16  C   UNL     1     -45.262  56.927 -59.498  1.00  0.00     0.026 A 
HETATM   17  C   UNL     1     -44.900  57.673 -58.374  1.00  0.00     0.038 A 
ENDBRANCH  10  11
ENDBRANCH   8  10
ENDBRANCH   7   8
ENDBRANCH   3   7
BRANCH   1  18
HETATM   18  C   UNL     1     -41.205  53.187 -53.136  1.00  0.00     0.059 A 
HETATM   19  C   UNL     1     -40.353  52.930 -52.052  1.00  0.00    -0.032 A 
HETATM   20  C   UNL     1     -40.260  53.777 -50.815  1.00  0.00     0.050 C 
HETATM   21  C   UNL     1     -39.498  51.815 -52.129  1.00  0.00     0.028 A 
HETATM   22  C   UNL     1     -39.471  51.049 -53.284  1.00  0.00     0.117 A 
HETATM   23  N   UNL     1     -40.223  51.312 -54.367  1.00  0.00    -0.271 NA
HETATM   24  C   UNL     1     -41.063  52.369 -54.263  1.00  0.00     0.146 A 
ENDBRANCH   1  18
TORSDOF 5
ENDMDL
