MODEL 1
REMARK VINA RESULT:      -8.6      0.000      0.000
REMARK  4 active torsions:
REMARK  status: ('A' for Active; 'I' for Inactive)
REMARK    1  A    between atoms: C_3  and  N_4 
REMARK       I    between atoms: N_4  and  C_5 
REMARK       I    between atoms: C_5  and  N_6 
REMARK    2  A    between atoms: N_6  and  C_7 
REMARK    3  A    between atoms: C_18  and  C_19 
REMARK       I    between atoms: C_19  and  N_20 
REMARK    4  A    between atoms: N_20  and  C_21 
ROOT
HETATM    1  C   UNL     1     -41.210  57.770 -53.921  1.00  0.00     0.050 C 
HETATM    2  C   UNL     1     -41.888  56.520 -53.427  1.00  0.00    -0.034 A 
HETATM    3  C   UNL     1     -43.181  56.124 -53.797  1.00  0.00     0.042 A 
HETATM    4  C   UNL     1     -43.647  54.855 -53.424  1.00  0.00     0.031 A 
HETATM    5  C   UNL     1     -42.896  54.027 -52.582  1.00  0.00     0.019 A 
HETATM    6  C   UNL     1     -41.638  54.429 -52.150  1.00  0.00     0.032 A 
HETATM    7  C   UNL     1     -41.144  55.673 -52.579  1.00  0.00     0.026 A 
ENDROOT
BRANCH   3   8
HETATM    8  N   UNL     1     -44.060  56.895 -54.575  1.00  0.00    -0.308 N 
HETATM    9  C   UNL     1     -44.153  57.035 -55.938  1.00  0.00     0.325 C 
HETATM   10  N   UNL     1     -43.247  56.350 -56.697  1.00  0.00    -0.305 N 
HETATM   11  O   UNL     1     -44.997  57.823 -56.359  1.00  0.00    -0.247 OA
HETATM   12  H   UNL     1     -42.686  55.657 -56.232  1.00  0.00     0.171 HD
HETATM   13  H   UNL     1     -44.477  57.706 -54.133  1.00  0.00     0.170 HD
BRANCH  10  14
HETATM   14  C   UNL     1     -43.058  56.454 -58.067  1.00  0.00     0.086 A 
HETATM   15  C   UNL     1     -43.427  55.634 -59.174  1.00  0.00     0.079 A 
HETATM   16  C   UNL     1     -44.217  54.378 -59.225  1.00  0.00     0.075 C 
HETATM   17  N   UNL     1     -43.015  56.166 -60.336  1.00  0.00    -0.177 NA
HETATM   18  N   UNL     1     -42.410  57.302 -59.982  1.00  0.00    -0.280 N 
HETATM   19  H   UNL     1     -42.010  57.875 -60.718  1.00  0.00     0.189 HD
HETATM   20  C   UNL     1     -42.423  57.542 -58.638  1.00  0.00     0.052 A 
HETATM   21  C   UNL     1     -41.792  58.753 -58.065  1.00  0.00     0.072 C 
ENDBRANCH  10  14
ENDBRANCH   3   8
BRANCH   6  22
HETATM   22  C   UNL     1     -40.824  53.684 -51.160  1.00  0.00     0.252 C 
HETATM   23  N   UNL     1     -40.009  52.623 -51.437  1.00  0.00    -0.352 N 
HETATM   24  H   UNL     1     -39.590  52.308 -50.568  1.00  0.00     0.163 HD
HETATM   25  O   UNL     1     -40.860  54.072 -49.990  1.00  0.00    -0.268 OA
BRANCH  23  26
HETATM   26  C   UNL     1     -39.605  51.850 -52.598  1.00  0.00     0.084 C 
HETATM   27  C   UNL     1     -39.580  50.338 -52.385  1.00  0.00     0.025 C 
HETATM   28  C   UNL     1     -39.587  49.789 -53.803  1.00  0.00     0.002 C 
HETATM   29  C   UNL     1     -40.525  50.725 -54.553  1.00  0.00     0.002 C 
HETATM   30  C   UNL     1     -40.314  52.106 -53.929  1.00  0.00     0.025 C 
ENDBRANCH  23  26
ENDBRANCH   6  22
TORSDOF 4
ENDMDL
MODEL 2
REMARK VINA RESULT:      -8.4      1.410      2.313
REMARK  4 active torsions:
REMARK  status: ('A' for Active; 'I' for Inactive)
REMARK    1  A    between atoms: C_3  and  N_4 
REMARK       I    between atoms: N_4  and  C_5 
REMARK       I    between atoms: C_5  and  N_6 
REMARK    2  A    between atoms: N_6  and  C_7 
REMARK    3  A    between atoms: C_18  and  C_19 
REMARK       I    between atoms: C_19  and  N_20 
REMARK    4  A    between atoms: N_20  and  C_21 
ROOT
HETATM    1  C   UNL     1     -41.619  57.757 -51.731  1.00  0.00     0.050 C 
HETATM    2  C   UNL     1     -42.040  56.311 -51.757  1.00  0.00    -0.034 A 
HETATM    3  C   UNL     1     -43.186  55.834 -52.407  1.00  0.00     0.042 A 
HETATM    4  C   UNL     1     -43.388  54.452 -52.524  1.00  0.00     0.031 A 
HETATM    5  C   UNL     1     -42.535  53.540 -51.893  1.00  0.00     0.019 A 
HETATM    6  C   UNL     1     -41.428  53.995 -51.187  1.00  0.00     0.032 A 
HETATM    7  C   UNL     1     -41.189  55.379 -51.127  1.00  0.00     0.026 A 
ENDROOT
BRANCH   3   8
HETATM    8  N   UNL     1     -44.156  56.649 -53.014  1.00  0.00    -0.308 N 
HETATM    9  C   UNL     1     -44.164  57.259 -54.244  1.00  0.00     0.325 C 
HETATM   10  N   UNL     1     -43.057  57.094 -55.027  1.00  0.00    -0.305 N 
HETATM   11  O   UNL     1     -45.135  57.965 -54.508  1.00  0.00    -0.247 OA
HETATM   12  H   UNL     1     -42.386  56.403 -54.738  1.00  0.00     0.171 HD
HETATM   13  H   UNL     1     -44.795  57.141 -52.400  1.00  0.00     0.170 HD
BRANCH  10  14
HETATM   14  C   UNL     1     -42.782  57.729 -56.229  1.00  0.00     0.086 A 
HETATM   15  C   UNL     1     -42.427  59.067 -56.574  1.00  0.00     0.079 A 
HETATM   16  C   UNL     1     -42.170  60.249 -55.714  1.00  0.00     0.075 C 
HETATM   17  N   UNL     1     -42.255  59.202 -57.898  1.00  0.00    -0.177 NA
HETATM   18  N   UNL     1     -42.482  57.980 -58.387  1.00  0.00    -0.280 N 
HETATM   19  H   UNL     1     -42.411  57.850 -59.390  1.00  0.00     0.189 HD
HETATM   20  C   UNL     1     -42.780  57.049 -57.434  1.00  0.00     0.052 A 
HETATM   21  C   UNL     1     -43.067  55.642 -57.794  1.00  0.00     0.072 C 
ENDBRANCH  10  14
ENDBRANCH   3   8
BRANCH   6  22
HETATM   22  C   UNL     1     -40.541  53.121 -50.382  1.00  0.00     0.252 C 
HETATM   23  N   UNL     1     -39.732  52.138 -50.876  1.00  0.00    -0.352 N 
HETATM   24  H   UNL     1     -39.253  51.698 -50.097  1.00  0.00     0.163 HD
HETATM   25  O   UNL     1     -40.506  53.316 -49.165  1.00  0.00    -0.268 OA
BRANCH  23  26
HETATM   26  C   UNL     1     -39.394  51.569 -52.170  1.00  0.00     0.084 C 
HETATM   27  C   UNL     1     -39.728  50.087 -52.326  1.00  0.00     0.025 C 
HETATM   28  C   UNL     1     -39.712  49.887 -53.833  1.00  0.00     0.002 C 
HETATM   29  C   UNL     1     -40.338  51.164 -54.378  1.00  0.00     0.002 C 
HETATM   30  C   UNL     1     -39.889  52.278 -53.431  1.00  0.00     0.025 C 
ENDBRANCH  23  26
ENDBRANCH   6  22
TORSDOF 4
ENDMDL
MODEL 3
REMARK VINA RESULT:      -8.1      1.693      3.100
REMARK  4 active torsions:
REMARK  status: ('A' for Active; 'I' for Inactive)
REMARK    1  A    between atoms: C_3  and  N_4 
REMARK       I    between atoms: N_4  and  C_5 
REMARK       I    between atoms: C_5  and  N_6 
REMARK    2  A    between atoms: N_6  and  C_7 
REMARK    3  A    between atoms: C_18  and  C_19 
REMARK       I    between atoms: C_19  and  N_20 
REMARK    4  A    between atoms: N_20  and  C_21 
ROOT
HETATM    1  C   UNL     1     -41.053  57.601 -53.868  1.00  0.00     0.050 C 
HETATM    2  C   UNL     1     -41.606  56.208 -54.015  1.00  0.00    -0.034 A 
HETATM    3  C   UNL     1     -42.865  55.912 -54.555  1.00  0.00     0.042 A 
HETATM    4  C   UNL     1     -43.208  54.577 -54.814  1.00  0.00     0.031 A 
HETATM    5  C   UNL     1     -42.369  53.526 -54.427  1.00  0.00     0.019 A 
HETATM    6  C   UNL     1     -41.144  53.796 -53.830  1.00  0.00     0.032 A 
HETATM    7  C   UNL     1     -40.772  55.137 -53.631  1.00  0.00     0.026 A 
ENDROOT
BRANCH   3   8
HETATM    8  N   UNL     1     -43.825  56.872 -54.915  1.00  0.00    -0.308 N 
HETATM    9  C   UNL     1     -44.234  57.301 -56.153  1.00  0.00     0.325 C 
HETATM   10  N   UNL     1     -43.615  56.750 -57.239  1.00  0.00    -0.305 N 
HETATM   11  O   UNL     1     -45.071  58.201 -56.181  1.00  0.00    -0.247 OA
HETATM   12  H   UNL     1     -43.031  55.948 -57.079  1.00  0.00     0.171 HD
HETATM   13  H   UNL     1     -44.038  57.590 -54.232  1.00  0.00     0.170 HD
BRANCH  10  14
HETATM   14  C   UNL     1     -43.757  57.132 -58.565  1.00  0.00     0.086 A 
HETATM   15  C   UNL     1     -43.594  58.371 -59.252  1.00  0.00     0.079 A 
HETATM   16  C   UNL     1     -43.142  59.697 -58.759  1.00  0.00     0.075 C 
HETATM   17  N   UNL     1     -43.846  58.240 -60.564  1.00  0.00    -0.177 NA
HETATM   18  N   UNL     1     -44.152  56.949 -60.714  1.00  0.00    -0.280 N 
HETATM   19  H   UNL     1     -44.389  56.622 -61.644  1.00  0.00     0.189 HD
HETATM   20  C   UNL     1     -44.094  56.229 -59.556  1.00  0.00     0.052 A 
HETATM   21  C   UNL     1     -44.408  54.781 -59.532  1.00  0.00     0.072 C 
ENDBRANCH  10  14
ENDBRANCH   3   8
BRANCH   6  22
HETATM   22  C   UNL     1     -40.247  52.757 -53.272  1.00  0.00     0.252 C 
HETATM   23  N   UNL     1     -40.063  52.495 -51.944  1.00  0.00    -0.352 N 
HETATM   24  H   UNL     1     -39.386  51.744 -51.859  1.00  0.00     0.163 HD
HETATM   25  O   UNL     1     -39.635  52.046 -54.073  1.00  0.00    -0.268 OA
BRANCH  23  26
HETATM   26  C   UNL     1     -40.553  52.991 -50.670  1.00  0.00     0.084 C 
HETATM   27  C   UNL     1     -39.630  53.989 -49.973  1.00  0.00     0.025 C 
HETATM   28  C   UNL     1     -40.548  54.662 -48.965  1.00  0.00     0.002 C 
HETATM   29  C   UNL     1     -41.869  54.802 -49.710  1.00  0.00     0.002 C 
HETATM   30  C   UNL     1     -41.968  53.566 -50.605  1.00  0.00     0.025 C 
ENDBRANCH  23  26
ENDBRANCH   6  22
TORSDOF 4
ENDMDL
MODEL 4
REMARK VINA RESULT:      -8.1      1.905      7.538
REMARK  4 active torsions:
REMARK  status: ('A' for Active; 'I' for Inactive)
REMARK    1  A    between atoms: C_3  and  N_4 
REMARK       I    between atoms: N_4  and  C_5 
REMARK       I    between atoms: C_5  and  N_6 
REMARK    2  A    between atoms: N_6  and  C_7 
REMARK    3  A    between atoms: C_18  and  C_19 
REMARK       I    between atoms: C_19  and  N_20 
REMARK    4  A    between atoms: N_20  and  C_21 
ROOT
HETATM    1  C   UNL     1     -44.542  58.130 -53.865  1.00  0.00     0.050 C 
HETATM    2  C   UNL     1     -43.890  57.244 -54.894  1.00  0.00    -0.034 A 
HETATM    3  C   UNL     1     -43.712  55.861 -54.747  1.00  0.00     0.042 A 
HETATM    4  C   UNL     1     -43.259  55.105 -55.837  1.00  0.00     0.031 A 
HETATM    5  C   UNL     1     -42.860  55.720 -57.029  1.00  0.00     0.019 A 
HETATM    6  C   UNL     1     -42.966  57.097 -57.172  1.00  0.00     0.032 A 
HETATM    7  C   UNL     1     -43.483  57.848 -56.102  1.00  0.00     0.026 A 
ENDROOT
BRANCH   3   8
HETATM    8  N   UNL     1     -44.005  55.139 -53.578  1.00  0.00    -0.308 N 
HETATM    9  C   UNL     1     -43.184  54.406 -52.757  1.00  0.00     0.325 C 
HETATM   10  N   UNL     1     -41.868  54.316 -53.111  1.00  0.00    -0.305 N 
HETATM   11  O   UNL     1     -43.718  53.829 -51.811  1.00  0.00    -0.247 OA
HETATM   12  H   UNL     1     -41.544  54.925 -53.842  1.00  0.00     0.171 HD
HETATM   13  H   UNL     1     -44.958  54.819 -53.460  1.00  0.00     0.170 HD
BRANCH  10  14
HETATM   14  C   UNL     1     -40.898  53.517 -52.523  1.00  0.00     0.086 A 
HETATM   15  C   UNL     1     -40.212  52.338 -52.939  1.00  0.00     0.079 A 
HETATM   16  C   UNL     1     -40.275  51.585 -54.217  1.00  0.00     0.075 C 
HETATM   17  N   UNL     1     -39.339  51.925 -52.007  1.00  0.00    -0.177 NA
HETATM   18  N   UNL     1     -39.456  52.822 -51.025  1.00  0.00    -0.280 N 
HETATM   19  H   UNL     1     -38.880  52.699 -50.199  1.00  0.00     0.189 HD
HETATM   20  C   UNL     1     -40.358  53.814 -51.285  1.00  0.00     0.052 A 
HETATM   21  C   UNL     1     -40.621  54.893 -50.305  1.00  0.00     0.072 C 
ENDBRANCH  10  14
ENDBRANCH   3   8
BRANCH   6  22
HETATM   22  C   UNL     1     -42.453  57.852 -58.341  1.00  0.00     0.252 C 
HETATM   23  N   UNL     1     -43.002  57.850 -59.592  1.00  0.00    -0.352 N 
HETATM   24  H   UNL     1     -42.435  58.443 -60.188  1.00  0.00     0.163 HD
HETATM   25  O   UNL     1     -41.464  58.567 -58.164  1.00  0.00    -0.268 OA
BRANCH  23  26
HETATM   26  C   UNL     1     -44.132  57.242 -60.271  1.00  0.00     0.084 C 
HETATM   27  C   UNL     1     -44.092  55.717 -60.345  1.00  0.00     0.025 C 
HETATM   28  C   UNL     1     -45.532  55.348 -60.661  1.00  0.00     0.002 C 
HETATM   29  C   UNL     1     -46.352  56.335 -59.840  1.00  0.00     0.002 C 
HETATM   30  C   UNL     1     -45.545  57.635 -59.835  1.00  0.00     0.025 C 
ENDBRANCH  23  26
ENDBRANCH   6  22
TORSDOF 4
ENDMDL
MODEL 5
REMARK VINA RESULT:      -8.1      2.737      3.843
REMARK  4 active torsions:
REMARK  status: ('A' for Active; 'I' for Inactive)
REMARK    1  A    between atoms: C_3  and  N_4 
REMARK       I    between atoms: N_4  and  C_5 
REMARK       I    between atoms: C_5  and  N_6 
REMARK    2  A    between atoms: N_6  and  C_7 
REMARK    3  A    between atoms: C_18  and  C_19 
REMARK       I    between atoms: C_19  and  N_20 
REMARK    4  A    between atoms: N_20  and  C_21 
ROOT
HETATM    1  C   UNL     1     -43.214  54.204 -55.653  1.00  0.00     0.050 C 
HETATM    2  C   UNL     1     -43.126  55.507 -54.903  1.00  0.00    -0.034 A 
HETATM    3  C   UNL     1     -42.773  56.731 -55.487  1.00  0.00     0.042 A 
HETATM    4  C   UNL     1     -42.898  57.912 -54.741  1.00  0.00     0.031 A 
HETATM    5  C   UNL     1     -43.246  57.879 -53.387  1.00  0.00     0.019 A 
HETATM    6  C   UNL     1     -43.537  56.668 -52.771  1.00  0.00     0.032 A 
HETATM    7  C   UNL     1     -43.476  55.491 -53.537  1.00  0.00     0.026 A 
ENDROOT
BRANCH   3   8
HETATM    8  N   UNL     1     -42.336  56.886 -56.813  1.00  0.00    -0.308 N 
HETATM    9  C   UNL     1     -43.052  56.976 -57.981  1.00  0.00     0.325 C 
HETATM   10  N   UNL     1     -44.411  56.877 -57.887  1.00  0.00    -0.305 N 
HETATM   11  O   UNL     1     -42.406  57.062 -59.023  1.00  0.00    -0.247 OA
HETATM   12  H   UNL     1     -44.815  56.921 -56.967  1.00  0.00     0.171 HD
HETATM   13  H   UNL     1     -41.395  56.578 -57.028  1.00  0.00     0.170 HD
BRANCH  10  14
HETATM   14  C   UNL     1     -45.317  56.792 -58.935  1.00  0.00     0.086 A 
HETATM   15  C   UNL     1     -45.499  55.862 -60.001  1.00  0.00     0.079 A 
HETATM   16  C   UNL     1     -44.784  54.600 -60.315  1.00  0.00     0.075 C 
HETATM   17  N   UNL     1     -46.537  56.208 -60.779  1.00  0.00    -0.177 NA
HETATM   18  N   UNL     1     -47.013  57.322 -60.219  1.00  0.00    -0.280 N 
HETATM   19  H   UNL     1     -47.813  57.769 -60.655  1.00  0.00     0.189 HD
HETATM   20  C   UNL     1     -46.338  57.710 -59.097  1.00  0.00     0.052 A 
HETATM   21  C   UNL     1     -46.724  58.927 -58.347  1.00  0.00     0.072 C 
ENDBRANCH  10  14
ENDBRANCH   3   8
BRANCH   6  22
HETATM   22  C   UNL     1     -43.790  56.517 -51.318  1.00  0.00     0.252 C 
HETATM   23  N   UNL     1     -42.925  55.973 -50.412  1.00  0.00    -0.352 N 
HETATM   24  H   UNL     1     -43.368  55.988 -49.500  1.00  0.00     0.163 HD
HETATM   25  O   UNL     1     -44.861  56.945 -50.882  1.00  0.00    -0.268 OA
BRANCH  23  26
HETATM   26  C   UNL     1     -41.593  55.393 -50.409  1.00  0.00     0.084 C 
HETATM   27  C   UNL     1     -41.005  55.145 -49.022  1.00  0.00     0.025 C 
HETATM   28  C   UNL     1     -39.881  54.158 -49.294  1.00  0.00     0.002 C 
HETATM   29  C   UNL     1     -40.452  53.241 -50.368  1.00  0.00     0.002 C 
HETATM   30  C   UNL     1     -41.344  54.130 -51.236  1.00  0.00     0.025 C 
ENDBRANCH  23  26
ENDBRANCH   6  22
TORSDOF 4
ENDMDL
MODEL 6
REMARK VINA RESULT:      -7.9      2.429      3.013
REMARK  4 active torsions:
REMARK  status: ('A' for Active; 'I' for Inactive)
REMARK    1  A    between atoms: C_3  and  N_4 
REMARK       I    between atoms: N_4  and  C_5 
REMARK       I    between atoms: C_5  and  N_6 
REMARK    2  A    between atoms: N_6  and  C_7 
REMARK    3  A    between atoms: C_18  and  C_19 
REMARK       I    between atoms: C_19  and  N_20 
REMARK    4  A    between atoms: N_20  and  C_21 
ROOT
HETATM    1  C   UNL     1     -41.923  59.056 -55.069  1.00  0.00     0.050 C 
HETATM    2  C   UNL     1     -42.214  57.587 -55.221  1.00  0.00    -0.034 A 
HETATM    3  C   UNL     1     -42.337  56.930 -56.454  1.00  0.00     0.042 A 
HETATM    4  C   UNL     1     -42.428  55.531 -56.483  1.00  0.00     0.031 A 
HETATM    5  C   UNL     1     -42.526  54.787 -55.302  1.00  0.00     0.019 A 
HETATM    6  C   UNL     1     -42.472  55.426 -54.069  1.00  0.00     0.032 A 
HETATM    7  C   UNL     1     -42.314  56.822 -54.040  1.00  0.00     0.026 A 
ENDROOT
BRANCH   3   8
HETATM    8  N   UNL     1     -42.328  57.570 -57.704  1.00  0.00    -0.308 N 
HETATM    9  C   UNL     1     -43.300  57.648 -58.671  1.00  0.00     0.325 C 
HETATM   10  N   UNL     1     -44.471  56.987 -58.430  1.00  0.00    -0.305 N 
HETATM   11  O   UNL     1     -43.008  58.243 -59.705  1.00  0.00    -0.247 OA
HETATM   12  H   UNL     1     -44.620  56.635 -57.500  1.00  0.00     0.171 HD
HETATM   13  H   UNL     1     -41.425  57.733 -58.133  1.00  0.00     0.170 HD
BRANCH  10  14
HETATM   14  C   UNL     1     -45.524  56.804 -59.315  1.00  0.00     0.086 A 
HETATM   15  C   UNL     1     -45.744  55.914 -60.408  1.00  0.00     0.079 A 
HETATM   16  C   UNL     1     -44.906  54.809 -60.937  1.00  0.00     0.075 C 
HETATM   17  N   UNL     1     -46.945  56.119 -60.971  1.00  0.00    -0.177 NA
HETATM   18  N   UNL     1     -47.484  57.106 -60.251  1.00  0.00    -0.280 N 
HETATM   19  H   UNL     1     -48.408  57.432 -60.510  1.00  0.00     0.189 HD
HETATM   20  C   UNL     1     -46.690  57.543 -59.230  1.00  0.00     0.052 A 
HETATM   21  C   UNL     1     -47.124  58.637 -58.330  1.00  0.00     0.072 C 
ENDBRANCH  10  14
ENDBRANCH   3   8
BRANCH   6  22
HETATM   22  C   UNL     1     -42.695  54.744 -52.772  1.00  0.00     0.252 C 
HETATM   23  N   UNL     1     -41.878  53.799 -52.219  1.00  0.00    -0.352 N 
HETATM   24  H   UNL     1     -42.285  53.502 -51.339  1.00  0.00     0.163 HD
HETATM   25  O   UNL     1     -43.685  55.079 -52.118  1.00  0.00    -0.268 OA
BRANCH  23  26
HETATM   26  C   UNL     1     -40.634  53.125 -52.548  1.00  0.00     0.084 C 
HETATM   27  C   UNL     1     -40.072  52.238 -51.439  1.00  0.00     0.025 C 
HETATM   28  C   UNL     1     -39.090  51.343 -52.177  1.00  0.00     0.002 C 
HETATM   29  C   UNL     1     -39.785  51.050 -53.501  1.00  0.00     0.002 C 
HETATM   30  C   UNL     1     -40.559  52.323 -53.848  1.00  0.00     0.025 C 
ENDBRANCH  23  26
ENDBRANCH   6  22
TORSDOF 4
ENDMDL
MODEL 7
REMARK VINA RESULT:      -7.7      2.277      7.799
REMARK  4 active torsions:
REMARK  status: ('A' for Active; 'I' for Inactive)
REMARK    1  A    between atoms: C_3  and  N_4 
REMARK       I    between atoms: N_4  and  C_5 
REMARK       I    between atoms: C_5  and  N_6 
REMARK    2  A    between atoms: N_6  and  C_7 
REMARK    3  A    between atoms: C_18  and  C_19 
REMARK       I    between atoms: C_19  and  N_20 
REMARK    4  A    between atoms: N_20  and  C_21 
ROOT
HETATM    1  C   UNL     1     -43.093  54.534 -56.039  1.00  0.00     0.050 C 
HETATM    2  C   UNL     1     -43.161  55.951 -55.535  1.00  0.00    -0.034 A 
HETATM    3  C   UNL     1     -43.435  56.304 -54.206  1.00  0.00     0.042 A 
HETATM    4  C   UNL     1     -43.296  57.640 -53.804  1.00  0.00     0.031 A 
HETATM    5  C   UNL     1     -43.012  58.649 -54.732  1.00  0.00     0.019 A 
HETATM    6  C   UNL     1     -42.801  58.329 -56.067  1.00  0.00     0.032 A 
HETATM    7  C   UNL     1     -42.876  56.980 -56.456  1.00  0.00     0.026 A 
ENDROOT
BRANCH   3   8
HETATM    8  N   UNL     1     -43.803  55.396 -53.199  1.00  0.00    -0.308 N 
HETATM    9  C   UNL     1     -43.043  54.503 -52.485  1.00  0.00     0.325 C 
HETATM   10  N   UNL     1     -41.714  54.435 -52.789  1.00  0.00    -0.305 N 
HETATM   11  O   UNL     1     -43.637  53.785 -51.684  1.00  0.00    -0.247 OA
HETATM   12  H   UNL     1     -41.339  55.153 -53.384  1.00  0.00     0.171 HD
HETATM   13  H   UNL     1     -44.769  55.091 -53.184  1.00  0.00     0.170 HD
BRANCH  10  14
HETATM   14  C   UNL     1     -40.793  53.514 -52.309  1.00  0.00     0.086 A 
HETATM   15  C   UNL     1     -40.209  52.334 -52.856  1.00  0.00     0.079 A 
HETATM   16  C   UNL     1     -40.358  51.714 -54.197  1.00  0.00     0.075 C 
HETATM   17  N   UNL     1     -39.348  51.769 -51.994  1.00  0.00    -0.177 NA
HETATM   18  N   UNL     1     -39.374  52.573 -50.928  1.00  0.00    -0.280 N 
HETATM   19  H   UNL     1     -38.790  52.329 -50.136  1.00  0.00     0.189 HD
HETATM   20  C   UNL     1     -40.203  53.649 -51.066  1.00  0.00     0.052 A 
HETATM   21  C   UNL     1     -40.361  54.644 -49.980  1.00  0.00     0.072 C 
ENDBRANCH  10  14
ENDBRANCH   3   8
BRANCH   6  22
HETATM   22  C   UNL     1     -42.621  59.333 -57.142  1.00  0.00     0.252 C 
HETATM   23  N   UNL     1     -43.559  59.677 -58.074  1.00  0.00    -0.352 N 
HETATM   24  H   UNL     1     -43.156  60.377 -58.687  1.00  0.00     0.163 HD
HETATM   25  O   UNL     1     -41.545  59.933 -57.183  1.00  0.00    -0.268 OA
BRANCH  23  26
HETATM   26  C   UNL     1     -44.925  59.316 -58.412  1.00  0.00     0.084 C 
HETATM   27  C   UNL     1     -45.076  57.966 -59.110  1.00  0.00     0.025 C 
HETATM   28  C   UNL     1     -46.551  57.646 -58.927  1.00  0.00     0.002 C 
HETATM   29  C   UNL     1     -46.861  58.137 -57.519  1.00  0.00     0.002 C 
HETATM   30  C   UNL     1     -45.990  59.379 -57.316  1.00  0.00     0.025 C 
ENDBRANCH  23  26
ENDBRANCH   6  22
TORSDOF 4
ENDMDL
MODEL 8
REMARK VINA RESULT:      -7.6      4.166      6.009
REMARK  4 active torsions:
REMARK  status: ('A' for Active; 'I' for Inactive)
REMARK    1  A    between atoms: C_3  and  N_4 
REMARK       I    between atoms: N_4  and  C_5 
REMARK       I    between atoms: C_5  and  N_6 
REMARK    2  A    between atoms: N_6  and  C_7 
REMARK    3  A    between atoms: C_18  and  C_19 
REMARK       I    between atoms: C_19  and  N_20 
REMARK    4  A    between atoms: N_20  and  C_21 
ROOT
HETATM    1  C   UNL     1     -40.533  59.372 -50.052  1.00  0.00     0.050 C 
HETATM    2  C   UNL     1     -41.192  58.317 -50.900  1.00  0.00    -0.034 A 
HETATM    3  C   UNL     1     -41.787  58.563 -52.145  1.00  0.00     0.042 A 
HETATM    4  C   UNL     1     -42.210  57.483 -52.933  1.00  0.00     0.031 A 
HETATM    5  C   UNL     1     -42.165  56.172 -52.447  1.00  0.00     0.019 A 
HETATM    6  C   UNL     1     -41.637  55.912 -51.188  1.00  0.00     0.032 A 
HETATM    7  C   UNL     1     -41.153  56.990 -50.426  1.00  0.00     0.026 A 
ENDROOT
BRANCH   3   8
HETATM    8  N   UNL     1     -41.959  59.838 -52.710  1.00  0.00    -0.308 N 
HETATM    9  C   UNL     1     -42.905  60.801 -52.460  1.00  0.00     0.325 C 
HETATM   10  N   UNL     1     -43.870  60.503 -51.541  1.00  0.00    -0.305 N 
HETATM   11  O   UNL     1     -42.849  61.824 -53.140  1.00  0.00    -0.247 OA
HETATM   12  H   UNL     1     -43.734  59.680 -50.979  1.00  0.00     0.171 HD
HETATM   13  H   UNL     1     -41.572  59.990 -53.633  1.00  0.00     0.170 HD
BRANCH  10  14
HETATM   14  C   UNL     1     -44.998  61.253 -51.240  1.00  0.00     0.086 A 
HETATM   15  C   UNL     1     -46.081  61.753 -52.022  1.00  0.00     0.079 A 
HETATM   16  C   UNL     1     -46.396  61.576 -53.461  1.00  0.00     0.075 C 
HETATM   17  N   UNL     1     -46.955  62.437 -51.265  1.00  0.00    -0.177 NA
HETATM   18  N   UNL     1     -46.450  62.366 -50.032  1.00  0.00    -0.280 N 
HETATM   19  H   UNL     1     -46.956  62.829 -49.285  1.00  0.00     0.189 HD
HETATM   20  C   UNL     1     -45.290  61.650 -49.948  1.00  0.00     0.052 A 
HETATM   21  C   UNL     1     -44.586  61.472 -48.657  1.00  0.00     0.072 C 
ENDBRANCH  10  14
ENDBRANCH   3   8
BRANCH   6  22
HETATM   22  C   UNL     1     -41.663  54.581 -50.536  1.00  0.00     0.252 C 
HETATM   23  N   UNL     1     -41.106  53.439 -51.038  1.00  0.00    -0.352 N 
HETATM   24  H   UNL     1     -41.289  52.683 -50.386  1.00  0.00     0.163 HD
HETATM   25  O   UNL     1     -42.206  54.501 -49.432  1.00  0.00    -0.268 OA
BRANCH  23  26
HETATM   26  C   UNL     1     -40.358  53.032 -52.215  1.00  0.00     0.084 C 
HETATM   27  C   UNL     1     -39.619  51.703 -52.077  1.00  0.00     0.025 C 
HETATM   28  C   UNL     1     -39.334  51.315 -53.519  1.00  0.00     0.002 C 
HETATM   29  C   UNL     1     -40.590  51.742 -54.268  1.00  0.00     0.002 C 
HETATM   30  C   UNL     1     -41.075  53.011 -53.565  1.00  0.00     0.025 C 
ENDBRANCH  23  26
ENDBRANCH   6  22
TORSDOF 4
ENDMDL
MODEL 9
REMARK VINA RESULT:      -7.6      4.821      7.079
REMARK  4 active torsions:
REMARK  status: ('A' for Active; 'I' for Inactive)
REMARK    1  A    between atoms: C_3  and  N_4 
REMARK       I    between atoms: N_4  and  C_5 
REMARK       I    between atoms: C_5  and  N_6 
REMARK    2  A    between atoms: N_6  and  C_7 
REMARK    3  A    between atoms: C_18  and  C_19 
REMARK       I    between atoms: C_19  and  N_20 
REMARK    4  A    between atoms: N_20  and  C_21 
ROOT
HETATM    1  C   UNL     1     -40.532  59.225 -51.338  1.00  0.00     0.050 C 
HETATM    2  C   UNL     1     -41.513  58.109 -51.097  1.00  0.00    -0.034 A 
HETATM    3  C   UNL     1     -42.864  58.151 -51.472  1.00  0.00     0.042 A 
HETATM    4  C   UNL     1     -43.645  56.991 -51.366  1.00  0.00     0.031 A 
HETATM    5  C   UNL     1     -43.138  55.829 -50.775  1.00  0.00     0.019 A 
HETATM    6  C   UNL     1     -41.820  55.786 -50.338  1.00  0.00     0.032 A 
HETATM    7  C   UNL     1     -41.018  56.929 -50.505  1.00  0.00     0.026 A 
ENDROOT
BRANCH   3   8
HETATM    8  N   UNL     1     -43.509  59.279 -52.005  1.00  0.00    -0.308 N 
HETATM    9  C   UNL     1     -43.893  60.452 -51.403  1.00  0.00     0.325 C 
HETATM   10  N   UNL     1     -43.651  60.573 -50.065  1.00  0.00    -0.305 N 
HETATM   11  O   UNL     1     -44.491  61.265 -52.105  1.00  0.00    -0.247 OA
HETATM   12  H   UNL     1     -43.058  59.882 -49.639  1.00  0.00     0.171 HD
HETATM   13  H   UNL     1     -44.067  59.140 -52.839  1.00  0.00     0.170 HD
BRANCH  10  14
HETATM   14  C   UNL     1     -44.081  61.593 -49.228  1.00  0.00     0.086 A 
HETATM   15  C   UNL     1     -43.788  62.986 -49.148  1.00  0.00     0.079 A 
HETATM   16  C   UNL     1     -42.936  63.844 -50.009  1.00  0.00     0.075 C 
HETATM   17  N   UNL     1     -44.468  63.572 -48.150  1.00  0.00    -0.177 NA
HETATM   18  N   UNL     1     -45.185  62.583 -47.613  1.00  0.00    -0.280 N 
HETATM   19  H   UNL     1     -45.781  62.804 -46.822  1.00  0.00     0.189 HD
HETATM   20  C   UNL     1     -45.014  61.377 -48.230  1.00  0.00     0.052 A 
HETATM   21  C   UNL     1     -45.727  60.165 -47.764  1.00  0.00     0.072 C 
ENDBRANCH  10  14
ENDBRANCH   3   8
BRANCH   6  22
HETATM   22  C   UNL     1     -41.230  54.651 -49.589  1.00  0.00     0.252 C 
HETATM   23  N   UNL     1     -40.469  53.653 -50.127  1.00  0.00    -0.352 N 
HETATM   24  H   UNL     1     -40.216  53.010 -49.383  1.00  0.00     0.163 HD
HETATM   25  O   UNL     1     -41.417  54.619 -48.370  1.00  0.00    -0.268 OA
BRANCH  23  26
HETATM   26  C   UNL     1     -39.951  53.276 -51.431  1.00  0.00     0.084 C 
HETATM   27  C   UNL     1     -39.669  51.785 -51.602  1.00  0.00     0.025 C 
HETATM   28  C   UNL     1     -39.597  51.618 -53.111  1.00  0.00     0.002 C 
HETATM   29  C   UNL     1     -40.688  52.544 -53.634  1.00  0.00     0.002 C 
HETATM   30  C   UNL     1     -40.707  53.738 -52.678  1.00  0.00     0.025 C 
ENDBRANCH  23  26
ENDBRANCH   6  22
TORSDOF 4
ENDMDL
MODEL 10
REMARK VINA RESULT:      -7.5      5.357      7.524
REMARK  4 active torsions:
REMARK  status: ('A' for Active; 'I' for Inactive)
REMARK    1  A    between atoms: C_3  and  N_4 
REMARK       I    between atoms: N_4  and  C_5 
REMARK       I    between atoms: C_5  and  N_6 
REMARK    2  A    between atoms: N_6  and  C_7 
REMARK    3  A    between atoms: C_18  and  C_19 
REMARK       I    between atoms: C_19  and  N_20 
REMARK    4  A    between atoms: N_20  and  C_21 
ROOT
HETATM    1  C   UNL     1     -39.700  59.317 -50.413  1.00  0.00     0.050 C 
HETATM    2  C   UNL     1     -41.017  58.627 -50.653  1.00  0.00    -0.034 A 
HETATM    3  C   UNL     1     -42.205  59.289 -50.994  1.00  0.00     0.042 A 
HETATM    4  C   UNL     1     -43.328  58.540 -51.372  1.00  0.00     0.031 A 
HETATM    5  C   UNL     1     -43.325  57.143 -51.293  1.00  0.00     0.019 A 
HETATM    6  C   UNL     1     -42.178  56.469 -50.895  1.00  0.00     0.032 A 
HETATM    7  C   UNL     1     -41.031  57.219 -50.579  1.00  0.00     0.026 A 
ENDROOT
BRANCH   3   8
HETATM    8  N   UNL     1     -42.356  60.685 -51.036  1.00  0.00    -0.308 N 
HETATM    9  C   UNL     1     -43.260  61.502 -50.403  1.00  0.00     0.325 C 
HETATM   10  N   UNL     1     -44.198  60.899 -49.615  1.00  0.00    -0.305 N 
HETATM   11  O   UNL     1     -43.196  62.703 -50.657  1.00  0.00    -0.247 OA
HETATM   12  H   UNL     1     -44.068  59.924 -49.406  1.00  0.00     0.171 HD
HETATM   13  H   UNL     1     -42.000  61.163 -51.855  1.00  0.00     0.170 HD
BRANCH  10  14
HETATM   14  C   UNL     1     -45.288  61.502 -49.004  1.00  0.00     0.086 A 
HETATM   15  C   UNL     1     -46.433  62.194 -49.500  1.00  0.00     0.079 A 
HETATM   16  C   UNL     1     -46.876  62.452 -50.893  1.00  0.00     0.075 C 
HETATM   17  N   UNL     1     -47.230  62.601 -48.499  1.00  0.00    -0.177 NA
HETATM   18  N   UNL     1     -46.617  62.171 -47.394  1.00  0.00    -0.280 N 
HETATM   19  H   UNL     1     -47.051  62.377 -46.500  1.00  0.00     0.189 HD
HETATM   20  C   UNL     1     -45.461  61.485 -47.632  1.00  0.00     0.052 A 
HETATM   21  C   UNL     1     -44.646  60.939 -46.522  1.00  0.00     0.072 C 
ENDBRANCH  10  14
ENDBRANCH   3   8
BRANCH   6  22
HETATM   22  C   UNL     1     -42.115  55.007 -50.658  1.00  0.00     0.252 C 
HETATM   23  N   UNL     1     -41.903  54.055 -51.615  1.00  0.00    -0.352 N 
HETATM   24  H   UNL     1     -41.923  53.144 -51.167  1.00  0.00     0.163 HD
HETATM   25  O   UNL     1     -42.234  54.615 -49.495  1.00  0.00    -0.268 OA
BRANCH  23  26
HETATM   26  C   UNL     1     -41.673  54.000 -53.048  1.00  0.00     0.084 C 
HETATM   27  C   UNL     1     -40.760  55.096 -53.593  1.00  0.00     0.025 C 
HETATM   28  C   UNL     1     -40.337  54.550 -54.948  1.00  0.00     0.002 C 
HETATM   29  C   UNL     1     -40.149  53.059 -54.699  1.00  0.00     0.002 C 
HETATM   30  C   UNL     1     -41.209  52.679 -53.664  1.00  0.00     0.025 C 
ENDBRANCH  23  26
ENDBRANCH   6  22
TORSDOF 4
ENDMDL
