MODEL 1
REMARK VINA RESULT:      -8.1      0.000      0.000
REMARK  4 active torsions:
REMARK  status: ('A' for Active; 'I' for Inactive)
REMARK    1  A    between atoms: C_5  and  C_6 
REMARK    2  A    between atoms: C_6  and  N_7 
REMARK    3  A    between atoms: C_6  and  C_18 
REMARK    4  A    between atoms: N_7  and  C_8 
ROOT
HETATM    1  C   UNL     1     -41.756  54.174 -52.907  1.00  0.00     0.288 C 
ENDROOT
BRANCH   1   2
HETATM    2  C   UNL     1     -42.122  54.798 -54.242  1.00  0.00    -0.003 A 
HETATM    3  C   UNL     1     -41.623  56.050 -54.595  1.00  0.00     0.126 A 
HETATM    4  N   UNL     1     -41.869  56.666 -55.773  1.00  0.00    -0.272 NA
HETATM    5  C   UNL     1     -42.682  56.025 -56.638  1.00  0.00     0.116 A 
HETATM    6  C   UNL     1     -43.245  54.787 -56.386  1.00  0.00     0.020 A 
HETATM    7  C   UNL     1     -42.955  54.165 -55.174  1.00  0.00     0.012 A 
ENDBRANCH   1   2
BRANCH   1   8
HETATM    8  N   UNL     1     -41.088  55.183 -52.051  1.00  0.00     0.101 N 
HETATM    9  H   UNL     1     -40.922  56.008 -52.622  1.00  0.00     0.317 HD
BRANCH   8  10
HETATM   10  C   UNL     1     -41.747  55.479 -50.772  1.00  0.00     0.225 C 
HETATM   11  C   UNL     1     -43.252  55.808 -50.874  1.00  0.00     0.069 C 
HETATM   12  C   UNL     1     -43.478  57.155 -51.535  1.00  0.00     0.190 C 
HETATM   13  N   UNL     1     -42.757  58.209 -50.739  1.00  0.00    -0.067 N 
HETATM   14  C   UNL     1     -44.892  57.699 -51.528  1.00  0.00     0.035 C 
HETATM   15  H   UNL     1     -43.079  58.150 -49.761  1.00  0.00     0.280 HD
HETATM   16  C   UNL     1     -41.273  58.010 -50.726  1.00  0.00     0.237 C 
HETATM   17  C   UNL     1     -43.275  59.523 -51.266  1.00  0.00     0.235 C 
HETATM   18  C   UNL     1     -40.988  56.647 -50.100  1.00  0.00     0.063 C 
HETATM   19  C   UNL     1     -44.682  59.195 -51.768  1.00  0.00     0.030 C 
ENDBRANCH   8  10
ENDBRANCH   1   8
BRANCH   1  20
HETATM   20  C   UNL     1     -40.975  52.876 -53.078  1.00  0.00    -0.021 A 
HETATM   21  C   UNL     1     -40.224  52.374 -51.998  1.00  0.00     0.012 A 
HETATM   22  C   UNL     1     -39.509  51.181 -52.122  1.00  0.00     0.043 A 
HETATM   23  C   UNL     1     -39.547  50.479 -53.318  1.00  0.00     0.116 A 
HETATM   24  F   UNL     1     -38.860  49.336 -53.436  1.00  0.00    -0.206 F 
HETATM   25  C   UNL     1     -40.291  50.944 -54.395  1.00  0.00     0.043 A 
HETATM   26  C   UNL     1     -41.007  52.137 -54.275  1.00  0.00     0.012 A 
ENDBRANCH   1  20
TORSDOF 4
ENDMDL
MODEL 2
REMARK VINA RESULT:      -8.0      1.728      4.542
REMARK  4 active torsions:
REMARK  status: ('A' for Active; 'I' for Inactive)
REMARK    1  A    between atoms: C_5  and  C_6 
REMARK    2  A    between atoms: C_6  and  N_7 
REMARK    3  A    between atoms: C_6  and  C_18 
REMARK    4  A    between atoms: N_7  and  C_8 
ROOT
HETATM    1  C   UNL     1     -40.769  54.543 -53.243  1.00  0.00     0.288 C 
ENDROOT
BRANCH   1   2
HETATM    2  C   UNL     1     -41.860  54.827 -52.225  1.00  0.00    -0.003 A 
HETATM    3  C   UNL     1     -41.829  55.995 -51.466  1.00  0.00     0.126 A 
HETATM    4  N   UNL     1     -42.771  56.344 -50.563  1.00  0.00    -0.272 NA
HETATM    5  C   UNL     1     -43.785  55.475 -50.373  1.00  0.00     0.116 A 
HETATM    6  C   UNL     1     -43.909  54.280 -51.059  1.00  0.00     0.020 A 
HETATM    7  C   UNL     1     -42.936  53.957 -52.001  1.00  0.00     0.012 A 
ENDBRANCH   1   2
BRANCH   1   8
HETATM    8  N   UNL     1     -41.167  55.085 -54.565  1.00  0.00     0.101 N 
HETATM    9  H   UNL     1     -40.800  54.456 -55.276  1.00  0.00     0.317 HD
BRANCH   8  10
HETATM   10  C   UNL     1     -42.593  55.391 -54.731  1.00  0.00     0.225 C 
HETATM   11  C   UNL     1     -43.252  54.770 -55.982  1.00  0.00     0.069 C 
HETATM   12  C   UNL     1     -42.754  55.431 -57.253  1.00  0.00     0.190 C 
HETATM   13  N   UNL     1     -43.045  56.906 -57.177  1.00  0.00    -0.067 N 
HETATM   14  C   UNL     1     -43.455  55.061 -58.544  1.00  0.00     0.035 C 
HETATM   15  H   UNL     1     -44.053  57.025 -56.997  1.00  0.00     0.280 HD
HETATM   16  C   UNL     1     -42.315  57.581 -56.057  1.00  0.00     0.237 C 
HETATM   17  C   UNL     1     -42.809  57.425 -58.571  1.00  0.00     0.235 C 
HETATM   18  C   UNL     1     -42.755  56.929 -54.749  1.00  0.00     0.063 C 
HETATM   19  C   UNL     1     -43.095  56.222 -59.472  1.00  0.00     0.030 C 
ENDBRANCH   8  10
ENDBRANCH   1   8
BRANCH   1  20
HETATM   20  C   UNL     1     -40.372  53.072 -53.258  1.00  0.00    -0.021 A 
HETATM   21  C   UNL     1     -39.817  52.493 -52.100  1.00  0.00     0.012 A 
HETATM   22  C   UNL     1     -39.456  51.145 -52.081  1.00  0.00     0.043 A 
HETATM   23  C   UNL     1     -39.653  50.365 -53.212  1.00  0.00     0.116 A 
HETATM   24  F   UNL     1     -39.303  49.073 -53.193  1.00  0.00    -0.206 F 
HETATM   25  C   UNL     1     -40.211  50.906 -54.363  1.00  0.00     0.043 A 
HETATM   26  C   UNL     1     -40.573  52.255 -54.386  1.00  0.00     0.012 A 
ENDBRANCH   1  20
TORSDOF 4
ENDMDL
MODEL 3
REMARK VINA RESULT:      -7.9      1.733      3.974
REMARK  4 active torsions:
REMARK  status: ('A' for Active; 'I' for Inactive)
REMARK    1  A    between atoms: C_5  and  C_6 
REMARK    2  A    between atoms: C_6  and  N_7 
REMARK    3  A    between atoms: C_6  and  C_18 
REMARK    4  A    between atoms: N_7  and  C_8 
ROOT
HETATM    1  C   UNL     1     -40.792  53.985 -52.580  1.00  0.00     0.288 C 
ENDROOT
BRANCH   1   2
HETATM    2  C   UNL     1     -40.766  54.192 -51.076  1.00  0.00    -0.003 A 
HETATM    3  C   UNL     1     -41.942  54.469 -50.382  1.00  0.00     0.126 A 
HETATM    4  N   UNL     1     -42.017  54.635 -49.043  1.00  0.00    -0.272 NA
HETATM    5  C   UNL     1     -40.860  54.559 -48.353  1.00  0.00     0.116 A 
HETATM    6  C   UNL     1     -39.634  54.304 -48.940  1.00  0.00     0.020 A 
HETATM    7  C   UNL     1     -39.590  54.113 -50.318  1.00  0.00     0.012 A 
ENDBRANCH   1   2
BRANCH   1   8
HETATM    8  N   UNL     1     -42.121  54.370 -53.114  1.00  0.00     0.101 N 
HETATM    9  H   UNL     1     -42.702  54.640 -52.324  1.00  0.00     0.317 HD
BRANCH   8  10
HETATM   10  C   UNL     1     -42.115  55.357 -54.201  1.00  0.00     0.225 C 
HETATM   11  C   UNL     1     -41.040  56.459 -54.077  1.00  0.00     0.069 C 
HETATM   12  C   UNL     1     -41.357  57.412 -52.940  1.00  0.00     0.190 C 
HETATM   13  N   UNL     1     -42.713  58.018 -53.183  1.00  0.00    -0.067 N 
HETATM   14  C   UNL     1     -40.498  58.654 -52.821  1.00  0.00     0.035 C 
HETATM   15  H   UNL     1     -42.709  58.451 -54.118  1.00  0.00     0.280 HD
HETATM   16  C   UNL     1     -43.811  57.000 -53.175  1.00  0.00     0.237 C 
HETATM   17  C   UNL     1     -42.816  59.157 -52.201  1.00  0.00     0.235 C 
HETATM   18  C   UNL     1     -43.523  55.990 -54.282  1.00  0.00     0.063 C 
HETATM   19  C   UNL     1     -41.365  59.588 -51.975  1.00  0.00     0.030 C 
ENDBRANCH   8  10
ENDBRANCH   1   8
BRANCH   1  20
HETATM   20  C   UNL     1     -40.338  52.583 -52.971  1.00  0.00    -0.021 A 
HETATM   21  C   UNL     1     -39.851  51.712 -51.978  1.00  0.00     0.012 A 
HETATM   22  C   UNL     1     -39.440  50.418 -52.305  1.00  0.00     0.043 A 
HETATM   23  C   UNL     1     -39.521  49.984 -53.621  1.00  0.00     0.116 A 
HETATM   24  F   UNL     1     -39.124  48.745 -53.934  1.00  0.00    -0.206 F 
HETATM   25  C   UNL     1     -40.010  50.818 -54.618  1.00  0.00     0.043 A 
HETATM   26  C   UNL     1     -40.422  52.113 -54.295  1.00  0.00     0.012 A 
ENDBRANCH   1  20
TORSDOF 4
ENDMDL
MODEL 4
REMARK VINA RESULT:      -7.8      2.739      4.755
REMARK  4 active torsions:
REMARK  status: ('A' for Active; 'I' for Inactive)
REMARK    1  A    between atoms: C_5  and  C_6 
REMARK    2  A    between atoms: C_6  and  N_7 
REMARK    3  A    between atoms: C_6  and  C_18 
REMARK    4  A    between atoms: N_7  and  C_8 
ROOT
HETATM    1  C   UNL     1     -40.994  56.069 -51.923  1.00  0.00     0.288 C 
ENDROOT
BRANCH   1   2
HETATM    2  C   UNL     1     -40.855  55.088 -50.772  1.00  0.00    -0.003 A 
HETATM    3  C   UNL     1     -41.168  55.477 -49.472  1.00  0.00     0.126 A 
HETATM    4  N   UNL     1     -41.104  54.664 -48.395  1.00  0.00    -0.272 NA
HETATM    5  C   UNL     1     -40.674  53.403 -48.607  1.00  0.00     0.116 A 
HETATM    6  C   UNL     1     -40.323  52.913 -49.852  1.00  0.00     0.020 A 
HETATM    7  C   UNL     1     -40.420  53.767 -50.948  1.00  0.00     0.012 A 
ENDBRANCH   1   2
BRANCH   1   8
HETATM    8  N   UNL     1     -41.651  57.309 -51.444  1.00  0.00     0.101 N 
HETATM    9  H   UNL     1     -42.034  57.117 -50.522  1.00  0.00     0.317 HD
BRANCH   8  10
HETATM   10  C   UNL     1     -40.837  58.530 -51.498  1.00  0.00     0.225 C 
HETATM   11  C   UNL     1     -41.541  59.808 -50.993  1.00  0.00     0.069 C 
HETATM   12  C   UNL     1     -42.633  60.250 -51.948  1.00  0.00     0.190 C 
HETATM   13  N   UNL     1     -42.023  60.482 -53.304  1.00  0.00    -0.067 N 
HETATM   14  C   UNL     1     -43.278  61.595 -51.684  1.00  0.00     0.035 C 
HETATM   15  H   UNL     1     -41.247  61.153 -53.197  1.00  0.00     0.280 HD
HETATM   16  C   UNL     1     -41.446  59.235 -53.899  1.00  0.00     0.237 C 
HETATM   17  C   UNL     1     -43.085  61.201 -54.095  1.00  0.00     0.235 C 
HETATM   18  C   UNL     1     -40.360  58.724 -52.957  1.00  0.00     0.063 C 
HETATM   19  C   UNL     1     -43.900  61.947 -53.036  1.00  0.00     0.030 C 
ENDBRANCH   8  10
ENDBRANCH   1   8
BRANCH   1  20
HETATM   20  C   UNL     1     -41.657  55.433 -53.139  1.00  0.00    -0.021 A 
HETATM   21  C   UNL     1     -43.045  55.192 -53.123  1.00  0.00     0.012 A 
HETATM   22  C   UNL     1     -43.681  54.623 -54.227  1.00  0.00     0.043 A 
HETATM   23  C   UNL     1     -42.941  54.299 -55.355  1.00  0.00     0.116 A 
HETATM   24  F   UNL     1     -43.552  53.751 -56.412  1.00  0.00    -0.206 F 
HETATM   25  C   UNL     1     -41.573  54.539 -55.403  1.00  0.00     0.043 A 
HETATM   26  C   UNL     1     -40.933  55.108 -54.301  1.00  0.00     0.012 A 
ENDBRANCH   1  20
TORSDOF 4
ENDMDL
MODEL 5
REMARK VINA RESULT:      -7.6      3.039      6.321
REMARK  4 active torsions:
REMARK  status: ('A' for Active; 'I' for Inactive)
REMARK    1  A    between atoms: C_5  and  C_6 
REMARK    2  A    between atoms: C_6  and  N_7 
REMARK    3  A    between atoms: C_6  and  C_18 
REMARK    4  A    between atoms: N_7  and  C_8 
ROOT
HETATM    1  C   UNL     1     -41.806  55.321 -53.466  1.00  0.00     0.288 C 
ENDROOT
BRANCH   1   2
HETATM    2  C   UNL     1     -40.993  54.069 -53.183  1.00  0.00    -0.003 A 
HETATM    3  C   UNL     1     -40.611  53.756 -51.880  1.00  0.00     0.126 A 
HETATM    4  N   UNL     1     -39.918  52.650 -51.533  1.00  0.00    -0.272 NA
HETATM    5  C   UNL     1     -39.550  51.822 -52.533  1.00  0.00     0.116 A 
HETATM    6  C   UNL     1     -39.861  52.041 -53.862  1.00  0.00     0.020 A 
HETATM    7  C   UNL     1     -40.597  53.177 -54.189  1.00  0.00     0.012 A 
ENDBRANCH   1   2
BRANCH   1   8
HETATM    8  N   UNL     1     -41.885  55.544 -54.930  1.00  0.00     0.101 N 
HETATM    9  H   UNL     1     -41.230  54.905 -55.373  1.00  0.00     0.317 HD
BRANCH   8  10
HETATM   10  C   UNL     1     -43.231  55.502 -55.514  1.00  0.00     0.225 C 
HETATM   11  C   UNL     1     -43.291  55.034 -56.984  1.00  0.00     0.069 C 
HETATM   12  C   UNL     1     -42.698  56.072 -57.917  1.00  0.00     0.190 C 
HETATM   13  N   UNL     1     -43.449  57.364 -57.742  1.00  0.00    -0.067 N 
HETATM   14  C   UNL     1     -42.863  55.837 -59.405  1.00  0.00     0.035 C 
HETATM   15  H   UNL     1     -44.452  57.176 -57.890  1.00  0.00     0.280 HD
HETATM   16  C   UNL     1     -43.307  57.932 -56.364  1.00  0.00     0.237 C 
HETATM   17  C   UNL     1     -43.016  58.230 -58.897  1.00  0.00     0.235 C 
HETATM   18  C   UNL     1     -43.859  56.909 -55.375  1.00  0.00     0.063 C 
HETATM   19  C   UNL     1     -42.648  57.232 -59.996  1.00  0.00     0.030 C 
ENDBRANCH   8  10
ENDBRANCH   1   8
BRANCH   1  20
HETATM   20  C   UNL     1     -41.302  56.520 -52.672  1.00  0.00    -0.021 A 
HETATM   21  C   UNL     1     -40.700  57.597 -53.352  1.00  0.00     0.012 A 
HETATM   22  C   UNL     1     -40.241  58.713 -52.652  1.00  0.00     0.043 A 
HETATM   23  C   UNL     1     -40.388  58.768 -51.273  1.00  0.00     0.116 A 
HETATM   24  F   UNL     1     -39.944  59.838 -50.602  1.00  0.00    -0.206 F 
HETATM   25  C   UNL     1     -40.990  57.726 -50.578  1.00  0.00     0.043 A 
HETATM   26  C   UNL     1     -41.450  56.607 -51.275  1.00  0.00     0.012 A 
ENDBRANCH   1  20
TORSDOF 4
ENDMDL
MODEL 6
REMARK VINA RESULT:      -7.5      1.834      3.202
REMARK  4 active torsions:
REMARK  status: ('A' for Active; 'I' for Inactive)
REMARK    1  A    between atoms: C_5  and  C_6 
REMARK    2  A    between atoms: C_6  and  N_7 
REMARK    3  A    between atoms: C_6  and  C_18 
REMARK    4  A    between atoms: N_7  and  C_8 
ROOT
HETATM    1  C   UNL     1     -42.965  56.128 -55.542  1.00  0.00     0.288 C 
ENDROOT
BRANCH   1   2
HETATM    2  C   UNL     1     -42.844  56.483 -57.014  1.00  0.00    -0.003 A 
HETATM    3  C   UNL     1     -42.408  57.749 -57.400  1.00  0.00     0.126 A 
HETATM    4  N   UNL     1     -42.240  58.140 -58.682  1.00  0.00    -0.272 NA
HETATM    5  C   UNL     1     -42.553  57.243 -59.640  1.00  0.00     0.116 A 
HETATM    6  C   UNL     1     -43.008  55.965 -59.372  1.00  0.00     0.020 A 
HETATM    7  C   UNL     1     -43.149  55.580 -58.041  1.00  0.00     0.012 A 
ENDBRANCH   1   2
BRANCH   1   8
HETATM    8  N   UNL     1     -42.772  57.345 -54.718  1.00  0.00     0.101 N 
HETATM    9  H   UNL     1     -42.732  58.140 -55.351  1.00  0.00     0.317 HD
BRANCH   8  10
HETATM   10  C   UNL     1     -43.717  57.525 -53.609  1.00  0.00     0.225 C 
HETATM   11  C   UNL     1     -43.708  58.928 -52.963  1.00  0.00     0.069 C 
HETATM   12  C   UNL     1     -42.430  59.166 -52.182  1.00  0.00     0.190 C 
HETATM   13  N   UNL     1     -42.301  58.098 -51.129  1.00  0.00    -0.067 N 
HETATM   14  C   UNL     1     -42.362  60.421 -51.335  1.00  0.00     0.035 C 
HETATM   15  H   UNL     1     -43.161  58.103 -50.560  1.00  0.00     0.280 HD
HETATM   16  C   UNL     1     -42.168  56.726 -51.713  1.00  0.00     0.237 C 
HETATM   17  C   UNL     1     -41.200  58.574 -50.218  1.00  0.00     0.235 C 
HETATM   18  C   UNL     1     -43.418  56.445 -52.543  1.00  0.00     0.063 C 
HETATM   19  C   UNL     1     -41.249  60.099 -50.337  1.00  0.00     0.030 C 
ENDBRANCH   8  10
ENDBRANCH   1   8
BRANCH   1  20
HETATM   20  C   UNL     1     -42.063  54.959 -55.161  1.00  0.00    -0.021 A 
HETATM   21  C   UNL     1     -40.666  55.135 -55.161  1.00  0.00     0.012 A 
HETATM   22  C   UNL     1     -39.817  54.086 -54.804  1.00  0.00     0.043 A 
HETATM   23  C   UNL     1     -40.355  52.861 -54.436  1.00  0.00     0.116 A 
HETATM   24  F   UNL     1     -39.539  51.855 -54.097  1.00  0.00    -0.206 F 
HETATM   25  C   UNL     1     -41.730  52.664 -54.414  1.00  0.00     0.043 A 
HETATM   26  C   UNL     1     -42.583  53.711 -54.771  1.00  0.00     0.012 A 
ENDBRANCH   1  20
TORSDOF 4
ENDMDL
MODEL 7
REMARK VINA RESULT:      -7.4      3.016      5.931
REMARK  4 active torsions:
REMARK  status: ('A' for Active; 'I' for Inactive)
REMARK    1  A    between atoms: C_5  and  C_6 
REMARK    2  A    between atoms: C_6  and  N_7 
REMARK    3  A    between atoms: C_6  and  C_18 
REMARK    4  A    between atoms: N_7  and  C_8 
ROOT
HETATM    1  C   UNL     1     -43.064  56.367 -54.681  1.00  0.00     0.288 C 
ENDROOT
BRANCH   1   2
HETATM    2  C   UNL     1     -42.658  57.649 -53.975  1.00  0.00    -0.003 A 
HETATM    3  C   UNL     1     -41.459  58.281 -54.296  1.00  0.00     0.126 A 
HETATM    4  N   UNL     1     -41.035  59.439 -53.743  1.00  0.00    -0.272 NA
HETATM    5  C   UNL     1     -41.821  59.986 -52.793  1.00  0.00     0.116 A 
HETATM    6  C   UNL     1     -43.023  59.437 -52.385  1.00  0.00     0.020 A 
HETATM    7  C   UNL     1     -43.448  58.256 -52.989  1.00  0.00     0.012 A 
ENDBRANCH   1   2
BRANCH   1   8
HETATM    8  N   UNL     1     -42.045  55.318 -54.436  1.00  0.00     0.101 N 
HETATM    9  H   UNL     1     -41.256  55.760 -53.970  1.00  0.00     0.317 HD
BRANCH   8  10
HETATM   10  C   UNL     1     -42.522  54.106 -53.758  1.00  0.00     0.225 C 
HETATM   11  C   UNL     1     -43.034  54.321 -52.318  1.00  0.00     0.069 C 
HETATM   12  C   UNL     1     -41.895  54.648 -51.371  1.00  0.00     0.190 C 
HETATM   13  N   UNL     1     -40.894  53.525 -51.415  1.00  0.00    -0.067 N 
HETATM   14  C   UNL     1     -42.218  54.694 -49.891  1.00  0.00     0.035 C 
HETATM   15  H   UNL     1     -41.388  52.646 -51.206  1.00  0.00     0.280 HD
HETATM   16  C   UNL     1     -40.265  53.365 -52.764  1.00  0.00     0.237 C 
HETATM   17  C   UNL     1     -39.975  53.772 -50.246  1.00  0.00     0.235 C 
HETATM   18  C   UNL     1     -41.375  53.068 -53.768  1.00  0.00     0.063 C 
HETATM   19  C   UNL     1     -40.847  54.523 -49.238  1.00  0.00     0.030 C 
ENDBRANCH   8  10
ENDBRANCH   1   8
BRANCH   1  20
HETATM   20  C   UNL     1     -43.384  56.603 -56.152  1.00  0.00    -0.021 A 
HETATM   21  C   UNL     1     -42.867  55.723 -57.123  1.00  0.00     0.012 A 
HETATM   22  C   UNL     1     -43.154  55.907 -58.476  1.00  0.00     0.043 A 
HETATM   23  C   UNL     1     -43.965  56.962 -58.869  1.00  0.00     0.116 A 
HETATM   24  F   UNL     1     -44.238  57.139 -60.167  1.00  0.00    -0.206 F 
HETATM   25  C   UNL     1     -44.501  57.837 -57.932  1.00  0.00     0.043 A 
HETATM   26  C   UNL     1     -44.215  57.656 -56.577  1.00  0.00     0.012 A 
ENDBRANCH   1  20
TORSDOF 4
ENDMDL
MODEL 8
REMARK VINA RESULT:      -7.4      2.194      5.562
REMARK  4 active torsions:
REMARK  status: ('A' for Active; 'I' for Inactive)
REMARK    1  A    between atoms: C_5  and  C_6 
REMARK    2  A    between atoms: C_6  and  N_7 
REMARK    3  A    between atoms: C_6  and  C_18 
REMARK    4  A    between atoms: N_7  and  C_8 
ROOT
HETATM    1  C   UNL     1     -40.994  57.225 -54.313  1.00  0.00     0.288 C 
ENDROOT
BRANCH   1   2
HETATM    2  C   UNL     1     -41.173  58.078 -53.070  1.00  0.00    -0.003 A 
HETATM    3  C   UNL     1     -40.078  58.710 -52.485  1.00  0.00     0.126 A 
HETATM    4  N   UNL     1     -40.149  59.512 -51.400  1.00  0.00    -0.272 NA
HETATM    5  C   UNL     1     -41.365  59.672 -50.838  1.00  0.00     0.116 A 
HETATM    6  C   UNL     1     -42.517  59.081 -51.324  1.00  0.00     0.020 A 
HETATM    7  C   UNL     1     -42.418  58.279 -52.458  1.00  0.00     0.012 A 
ENDBRANCH   1   2
BRANCH   1   8
HETATM    8  N   UNL     1     -42.056  57.547 -55.297  1.00  0.00     0.101 N 
HETATM    9  H   UNL     1     -41.599  57.818 -56.163  1.00  0.00     0.317 HD
BRANCH   8  10
HETATM   10  C   UNL     1     -43.095  56.525 -55.477  1.00  0.00     0.225 C 
HETATM   11  C   UNL     1     -42.958  55.673 -56.758  1.00  0.00     0.069 C 
HETATM   12  C   UNL     1     -43.260  56.491 -57.999  1.00  0.00     0.190 C 
HETATM   13  N   UNL     1     -44.652  57.050 -57.881  1.00  0.00    -0.067 N 
HETATM   14  C   UNL     1     -43.356  55.742 -59.313  1.00  0.00     0.035 C 
HETATM   15  H   UNL     1     -45.300  56.266 -57.714  1.00  0.00     0.280 HD
HETATM   16  C   UNL     1     -44.799  57.995 -56.729  1.00  0.00     0.237 C 
HETATM   17  C   UNL     1     -44.982  57.575 -59.255  1.00  0.00     0.235 C 
HETATM   18  C   UNL     1     -44.472  57.230 -55.450  1.00  0.00     0.063 C 
HETATM   19  C   UNL     1     -44.146  56.707 -60.198  1.00  0.00     0.030 C 
ENDBRANCH   8  10
ENDBRANCH   1   8
BRANCH   1  20
HETATM   20  C   UNL     1     -40.875  55.743 -53.977  1.00  0.00    -0.021 A 
HETATM   21  C   UNL     1     -40.210  54.882 -54.872  1.00  0.00     0.012 A 
HETATM   22  C   UNL     1     -40.075  53.523 -54.584  1.00  0.00     0.043 A 
HETATM   23  C   UNL     1     -40.591  53.017 -53.399  1.00  0.00     0.116 A 
HETATM   24  F   UNL     1     -40.462  51.713 -53.125  1.00  0.00    -0.206 F 
HETATM   25  C   UNL     1     -41.238  53.846 -52.492  1.00  0.00     0.043 A 
HETATM   26  C   UNL     1     -41.377  55.206 -52.777  1.00  0.00     0.012 A 
ENDBRANCH   1  20
TORSDOF 4
ENDMDL
MODEL 9
REMARK VINA RESULT:      -7.4      2.881      6.168
REMARK  4 active torsions:
REMARK  status: ('A' for Active; 'I' for Inactive)
REMARK    1  A    between atoms: C_5  and  C_6 
REMARK    2  A    between atoms: C_6  and  N_7 
REMARK    3  A    between atoms: C_6  and  C_18 
REMARK    4  A    between atoms: N_7  and  C_8 
ROOT
HETATM    1  C   UNL     1     -42.263  57.161 -55.423  1.00  0.00     0.288 C 
ENDROOT
BRANCH   1   2
HETATM    2  C   UNL     1     -42.247  58.019 -54.170  1.00  0.00    -0.003 A 
HETATM    3  C   UNL     1     -41.432  59.146 -54.097  1.00  0.00     0.126 A 
HETATM    4  N   UNL     1     -41.378  59.982 -53.038  1.00  0.00    -0.272 NA
HETATM    5  C   UNL     1     -42.147  59.670 -51.974  1.00  0.00     0.116 A 
HETATM    6  C   UNL     1     -42.983  58.568 -51.931  1.00  0.00     0.020 A 
HETATM    7  C   UNL     1     -43.036  57.737 -53.046  1.00  0.00     0.012 A 
ENDBRANCH   1   2
BRANCH   1   8
HETATM    8  N   UNL     1     -43.537  57.367 -56.153  1.00  0.00     0.101 N 
HETATM    9  H   UNL     1     -44.215  57.733 -55.489  1.00  0.00     0.317 HD
BRANCH   8  10
HETATM   10  C   UNL     1     -43.448  58.151 -57.392  1.00  0.00     0.225 C 
HETATM   11  C   UNL     1     -44.805  58.530 -58.023  1.00  0.00     0.069 C 
HETATM   12  C   UNL     1     -45.502  57.314 -58.602  1.00  0.00     0.190 C 
HETATM   13  N   UNL     1     -44.599  56.682 -59.627  1.00  0.00    -0.067 N 
HETATM   14  C   UNL     1     -46.751  57.561 -59.426  1.00  0.00     0.035 C 
HETATM   15  H   UNL     1     -44.345  57.402 -60.319  1.00  0.00     0.280 HD
HETATM   16  C   UNL     1     -43.323  56.171 -59.035  1.00  0.00     0.237 C 
HETATM   17  C   UNL     1     -45.468  55.693 -60.360  1.00  0.00     0.235 C 
HETATM   18  C   UNL     1     -42.592  57.353 -58.404  1.00  0.00     0.063 C 
HETATM   19  C   UNL     1     -46.878  56.276 -60.244  1.00  0.00     0.030 C 
ENDBRANCH   8  10
ENDBRANCH   1   8
BRANCH   1  20
HETATM   20  C   UNL     1     -41.937  55.703 -55.122  1.00  0.00    -0.021 A 
HETATM   21  C   UNL     1     -40.618  55.344 -54.785  1.00  0.00     0.012 A 
HETATM   22  C   UNL     1     -40.293  54.019 -54.492  1.00  0.00     0.043 A 
HETATM   23  C   UNL     1     -41.283  53.046 -54.523  1.00  0.00     0.116 A 
HETATM   24  F   UNL     1     -40.970  51.775 -54.244  1.00  0.00    -0.206 F 
HETATM   25  C   UNL     1     -42.595  53.374 -54.838  1.00  0.00     0.043 A 
HETATM   26  C   UNL     1     -42.924  54.700 -55.132  1.00  0.00     0.012 A 
ENDBRANCH   1  20
TORSDOF 4
ENDMDL
MODEL 10
REMARK VINA RESULT:      -7.3      2.379      4.550
REMARK  4 active torsions:
REMARK  status: ('A' for Active; 'I' for Inactive)
REMARK    1  A    between atoms: C_5  and  C_6 
REMARK    2  A    between atoms: C_6  and  N_7 
REMARK    3  A    between atoms: C_6  and  C_18 
REMARK    4  A    between atoms: N_7  and  C_8 
ROOT
HETATM    1  C   UNL     1     -41.886  56.498 -53.716  1.00  0.00     0.288 C 
ENDROOT
BRANCH   1   2
HETATM    2  C   UNL     1     -41.219  57.436 -52.725  1.00  0.00    -0.003 A 
HETATM    3  C   UNL     1     -40.250  58.341 -53.154  1.00  0.00     0.126 A 
HETATM    4  N   UNL     1     -39.629  59.232 -52.351  1.00  0.00    -0.272 NA
HETATM    5  C   UNL     1     -39.957  59.206 -51.042  1.00  0.00     0.116 A 
HETATM    6  C   UNL     1     -40.892  58.341 -50.504  1.00  0.00     0.020 A 
HETATM    7  C   UNL     1     -41.534  57.449 -51.360  1.00  0.00     0.012 A 
ENDBRANCH   1   2
BRANCH   1   8
HETATM    8  N   UNL     1     -43.351  56.485 -53.482  1.00  0.00     0.101 N 
HETATM    9  H   UNL     1     -43.554  57.185 -52.773  1.00  0.00     0.317 HD
BRANCH   8  10
HETATM   10  C   UNL     1     -44.193  56.601 -54.679  1.00  0.00     0.225 C 
HETATM   11  C   UNL     1     -43.424  56.793 -56.004  1.00  0.00     0.069 C 
HETATM   12  C   UNL     1     -42.782  58.166 -56.073  1.00  0.00     0.190 C 
HETATM   13  N   UNL     1     -43.858  59.209 -55.929  1.00  0.00    -0.067 N 
HETATM   14  C   UNL     1     -42.159  58.571 -57.394  1.00  0.00     0.035 C 
HETATM   15  H   UNL     1     -44.575  59.032 -56.647  1.00  0.00     0.280 HD
HETATM   16  C   UNL     1     -44.543  59.151 -54.599  1.00  0.00     0.237 C 
HETATM   17  C   UNL     1     -43.199  60.509 -56.313  1.00  0.00     0.235 C 
HETATM   18  C   UNL     1     -45.181  57.771 -54.459  1.00  0.00     0.063 C 
HETATM   19  C   UNL     1     -42.095  60.095 -57.288  1.00  0.00     0.030 C 
ENDBRANCH   8  10
ENDBRANCH   1   8
BRANCH   1  20
HETATM   20  C   UNL     1     -41.237  55.120 -53.724  1.00  0.00    -0.021 A 
HETATM   21  C   UNL     1     -41.255  54.339 -52.552  1.00  0.00     0.012 A 
HETATM   22  C   UNL     1     -40.679  53.068 -52.534  1.00  0.00     0.043 A 
HETATM   23  C   UNL     1     -40.091  52.564 -53.685  1.00  0.00     0.116 A 
HETATM   24  F   UNL     1     -39.536  51.346 -53.666  1.00  0.00    -0.206 F 
HETATM   25  C   UNL     1     -40.070  53.306 -54.859  1.00  0.00     0.043 A 
HETATM   26  C   UNL     1     -40.645  54.579 -54.881  1.00  0.00     0.012 A 
ENDBRANCH   1  20
TORSDOF 4
ENDMDL
