MODEL 1
REMARK VINA RESULT:      -9.0      0.000      0.000
REMARK  2 active torsions:
REMARK  status: ('A' for Active; 'I' for Inactive)
REMARK    1  A    between atoms: C_9  and  C_10 
REMARK       I    between atoms: C_10  and  N_11 
REMARK    2  A    between atoms: N_11  and  C_12 
ROOT
HETATM    1  C   UNL     1     -42.476  55.254 -53.609  1.00  0.00     0.277 C 
HETATM    2  N   UNL     1     -41.846  55.475 -54.822  1.00  0.00    -0.322 N 
HETATM    3  O   UNL     1     -43.632  55.550 -53.330  1.00  0.00    -0.266 OA
HETATM    4  H   UNL     1     -40.891  55.123 -54.845  1.00  0.00     0.169 HD
ENDROOT
BRANCH   2   5
HETATM    5  C   UNL     1     -42.365  56.072 -55.982  1.00  0.00     0.037 A 
HETATM    6  C   UNL     1     -42.828  55.351 -57.086  1.00  0.00     0.062 A 
HETATM    7  C   UNL     1     -43.320  56.025 -58.208  1.00  0.00     0.070 A 
HETATM    8  C   UNL     1     -43.353  57.420 -58.238  1.00  0.00     0.096 A 
HETATM    9  N   UNL     1     -43.806  55.290 -59.289  1.00  0.00    -0.323 N 
HETATM   10  O   UNL     1     -43.848  58.148 -59.283  1.00  0.00    -0.340 OA
HETATM   11  C   UNL     1     -42.908  58.142 -57.135  1.00  0.00     0.041 A 
HETATM   12  C   UNL     1     -44.044  57.411 -60.481  1.00  0.00     0.278 C 
HETATM   13  C   UNL     1     -44.242  55.897 -60.433  1.00  0.00     0.246 C 
HETATM   14  O   UNL     1     -44.698  55.249 -61.371  1.00  0.00    -0.271 OA
HETATM   15  C   UNL     1     -42.416  57.471 -56.013  1.00  0.00     0.032 A 
HETATM   16  H   UNL     1     -43.861  54.280 -59.250  1.00  0.00     0.169 HD
ENDBRANCH   2   5
BRANCH   1  17
HETATM   17  C   UNL     1     -41.582  54.579 -52.650  1.00  0.00     0.157 A 
HETATM   18  C   UNL     1     -40.918  53.327 -52.815  1.00  0.00     0.029 A 
HETATM   19  C   UNL     1     -40.840  52.343 -53.822  1.00  0.00     0.023 A 
HETATM   20  C   UNL     1     -40.200  53.139 -51.641  1.00  0.00     0.063 A 
HETATM   21  C   UNL     1     -40.038  51.207 -53.621  1.00  0.00    -0.061 A 
HETATM   22  C   UNL     1     -39.932  50.153 -54.684  1.00  0.00     0.048 C 
HETATM   23  C   UNL     1     -39.336  51.055 -52.418  1.00  0.00     0.009 A 
HETATM   24  C   UNL     1     -39.403  52.017 -51.404  1.00  0.00     0.032 A 
HETATM   25  N   UNL     1     -40.467  54.241 -50.876  1.00  0.00    -0.277 N 
HETATM   26  H   UNL     1     -40.113  54.440 -49.947  1.00  0.00     0.189 HD
HETATM   27  N   UNL     1     -41.283  55.140 -51.456  1.00  0.00    -0.168 NA
ENDBRANCH   1  17
TORSDOF 2
ENDMDL
MODEL 2
REMARK VINA RESULT:      -8.6      1.404      2.145
REMARK  2 active torsions:
REMARK  status: ('A' for Active; 'I' for Inactive)
REMARK    1  A    between atoms: C_9  and  C_10 
REMARK       I    between atoms: C_10  and  N_11 
REMARK    2  A    between atoms: N_11  and  C_12 
ROOT
HETATM    1  C   UNL     1     -42.782  55.121 -54.374  1.00  0.00     0.277 C 
HETATM    2  N   UNL     1     -42.048  55.683 -55.405  1.00  0.00    -0.322 N 
HETATM    3  O   UNL     1     -44.000  54.996 -54.339  1.00  0.00    -0.266 OA
HETATM    4  H   UNL     1     -41.044  55.658 -55.237  1.00  0.00     0.169 HD
ENDROOT
BRANCH   2   5
HETATM    5  C   UNL     1     -42.509  56.226 -56.614  1.00  0.00     0.037 A 
HETATM    6  C   UNL     1     -42.514  57.593 -56.901  1.00  0.00     0.062 A 
HETATM    7  C   UNL     1     -43.002  58.050 -58.129  1.00  0.00     0.070 A 
HETATM    8  C   UNL     1     -43.489  57.150 -59.078  1.00  0.00     0.096 A 
HETATM    9  N   UNL     1     -42.972  59.416 -58.410  1.00  0.00    -0.323 N 
HETATM   10  O   UNL     1     -43.951  57.517 -60.310  1.00  0.00    -0.340 OA
HETATM   11  C   UNL     1     -43.471  55.786 -58.804  1.00  0.00     0.041 A 
HETATM   12  C   UNL     1     -44.204  58.906 -60.461  1.00  0.00     0.278 C 
HETATM   13  C   UNL     1     -43.491  59.922 -59.569  1.00  0.00     0.246 C 
HETATM   14  O   UNL     1     -43.436  61.121 -59.829  1.00  0.00    -0.271 OA
HETATM   15  C   UNL     1     -42.984  55.326 -57.577  1.00  0.00     0.032 A 
HETATM   16  H   UNL     1     -42.551  60.072 -57.766  1.00  0.00     0.169 HD
ENDBRANCH   2   5
BRANCH   1  17
HETATM   17  C   UNL     1     -41.909  54.649 -53.282  1.00  0.00     0.157 A 
HETATM   18  C   UNL     1     -41.154  53.440 -53.236  1.00  0.00     0.029 A 
HETATM   19  C   UNL     1     -40.944  52.340 -54.092  1.00  0.00     0.023 A 
HETATM   20  C   UNL     1     -40.503  53.466 -52.009  1.00  0.00     0.063 A 
HETATM   21  C   UNL     1     -40.082  51.305 -53.691  1.00  0.00    -0.061 A 
HETATM   22  C   UNL     1     -39.836  50.128 -54.591  1.00  0.00     0.048 C 
HETATM   23  C   UNL     1     -39.452  51.368 -52.441  1.00  0.00     0.009 A 
HETATM   24  C   UNL     1     -39.650  52.449 -51.575  1.00  0.00     0.032 A 
HETATM   25  N   UNL     1     -40.894  54.636 -51.419  1.00  0.00    -0.277 N 
HETATM   26  H   UNL     1     -40.616  54.984 -50.509  1.00  0.00     0.189 HD
HETATM   27  N   UNL     1     -41.729  55.386 -52.162  1.00  0.00    -0.168 NA
ENDBRANCH   1  17
TORSDOF 2
ENDMDL
MODEL 3
REMARK VINA RESULT:      -8.3      4.956      6.314
REMARK  2 active torsions:
REMARK  status: ('A' for Active; 'I' for Inactive)
REMARK    1  A    between atoms: C_9  and  C_10 
REMARK       I    between atoms: C_10  and  N_11 
REMARK    2  A    between atoms: N_11  and  C_12 
ROOT
HETATM    1  C   UNL     1     -40.968  55.207 -52.083  1.00  0.00     0.277 C 
HETATM    2  N   UNL     1     -41.433  56.379 -52.656  1.00  0.00    -0.322 N 
HETATM    3  O   UNL     1     -40.789  55.009 -50.887  1.00  0.00    -0.266 OA
HETATM    4  H   UNL     1     -41.533  56.314 -53.667  1.00  0.00     0.169 HD
ENDROOT
BRANCH   2   5
HETATM    5  C   UNL     1     -41.798  57.578 -52.024  1.00  0.00     0.037 A 
HETATM    6  C   UNL     1     -43.098  57.869 -51.602  1.00  0.00     0.062 A 
HETATM    7  C   UNL     1     -43.378  59.094 -50.990  1.00  0.00     0.070 A 
HETATM    8  C   UNL     1     -42.368  60.037 -50.795  1.00  0.00     0.096 A 
HETATM    9  N   UNL     1     -44.675  59.356 -50.547  1.00  0.00    -0.323 N 
HETATM   10  O   UNL     1     -42.558  61.240 -50.176  1.00  0.00    -0.340 OA
HETATM   11  C   UNL     1     -41.069  59.746 -51.199  1.00  0.00     0.041 A 
HETATM   12  C   UNL     1     -43.917  61.620 -50.017  1.00  0.00     0.278 C 
HETATM   13  C   UNL     1     -45.017  60.559 -49.997  1.00  0.00     0.246 C 
HETATM   14  O   UNL     1     -46.151  60.777 -49.580  1.00  0.00    -0.271 OA
HETATM   15  C   UNL     1     -40.786  58.522 -51.811  1.00  0.00     0.032 A 
HETATM   16  H   UNL     1     -45.400  58.653 -50.610  1.00  0.00     0.169 HD
ENDBRANCH   2   5
BRANCH   1  17
HETATM   17  C   UNL     1     -40.715  54.169 -53.100  1.00  0.00     0.157 A 
HETATM   18  C   UNL     1     -40.332  52.814 -52.879  1.00  0.00     0.029 A 
HETATM   19  C   UNL     1     -40.072  52.001 -51.757  1.00  0.00     0.023 A 
HETATM   20  C   UNL     1     -40.226  52.256 -54.147  1.00  0.00     0.063 A 
HETATM   21  C   UNL     1     -39.721  50.653 -51.944  1.00  0.00    -0.061 A 
HETATM   22  C   UNL     1     -39.450  49.767 -50.763  1.00  0.00     0.048 C 
HETATM   23  C   UNL     1     -39.619  50.133 -53.241  1.00  0.00     0.009 A 
HETATM   24  C   UNL     1     -39.869  50.924 -54.369  1.00  0.00     0.032 A 
HETATM   25  N   UNL     1     -40.537  53.268 -55.013  1.00  0.00    -0.277 N 
HETATM   26  H   UNL     1     -40.558  53.221 -56.025  1.00  0.00     0.189 HD
HETATM   27  N   UNL     1     -40.854  54.434 -54.419  1.00  0.00    -0.168 NA
ENDBRANCH   1  17
TORSDOF 2
ENDMDL
MODEL 4
REMARK VINA RESULT:      -8.3      1.353      1.883
REMARK  2 active torsions:
REMARK  status: ('A' for Active; 'I' for Inactive)
REMARK    1  A    between atoms: C_9  and  C_10 
REMARK       I    between atoms: C_10  and  N_11 
REMARK    2  A    between atoms: N_11  and  C_12 
ROOT
HETATM    1  C   UNL     1     -43.022  56.761 -53.138  1.00  0.00     0.277 C 
HETATM    2  N   UNL     1     -42.210  56.782 -54.259  1.00  0.00    -0.322 N 
HETATM    3  O   UNL     1     -44.234  56.945 -53.120  1.00  0.00    -0.266 OA
HETATM    4  H   UNL     1     -41.236  56.575 -54.048  1.00  0.00     0.169 HD
ENDROOT
BRANCH   2   5
HETATM    5  C   UNL     1     -42.569  57.012 -55.597  1.00  0.00     0.037 A 
HETATM    6  C   UNL     1     -42.976  56.005 -56.476  1.00  0.00     0.062 A 
HETATM    7  C   UNL     1     -43.305  56.320 -57.798  1.00  0.00     0.070 A 
HETATM    8  C   UNL     1     -43.232  57.637 -58.252  1.00  0.00     0.096 A 
HETATM    9  N   UNL     1     -43.738  55.307 -58.653  1.00  0.00    -0.323 N 
HETATM   10  O   UNL     1     -43.569  58.026 -59.518  1.00  0.00    -0.340 OA
HETATM   11  C   UNL     1     -42.843  58.646 -57.376  1.00  0.00     0.041 A 
HETATM   12  C   UNL     1     -43.702  56.964 -60.451  1.00  0.00     0.278 C 
HETATM   13  C   UNL     1     -44.016  55.548 -59.970  1.00  0.00     0.246 C 
HETATM   14  O   UNL     1     -44.426  54.662 -60.714  1.00  0.00    -0.271 OA
HETATM   15  C   UNL     1     -42.513  58.334 -56.055  1.00  0.00     0.032 A 
HETATM   16  H   UNL     1     -43.872  54.362 -58.318  1.00  0.00     0.169 HD
ENDBRANCH   2   5
BRANCH   1  17
HETATM   17  C   UNL     1     -42.252  56.463 -51.916  1.00  0.00     0.157 A 
HETATM   18  C   UNL     1     -41.448  55.314 -51.656  1.00  0.00     0.029 A 
HETATM   19  C   UNL     1     -41.092  54.143 -52.357  1.00  0.00     0.023 A 
HETATM   20  C   UNL     1     -40.937  55.510 -50.380  1.00  0.00     0.063 A 
HETATM   21  C   UNL     1     -40.229  53.211 -51.755  1.00  0.00    -0.061 A 
HETATM   22  C   UNL     1     -39.829  51.962 -52.487  1.00  0.00     0.048 C 
HETATM   23  C   UNL     1     -39.743  53.445 -50.463  1.00  0.00     0.009 A 
HETATM   24  C   UNL     1     -40.088  54.599 -49.748  1.00  0.00     0.032 A 
HETATM   25  N   UNL     1     -41.446  56.711 -49.969  1.00  0.00    -0.277 N 
HETATM   26  H   UNL     1     -41.286  57.170 -49.079  1.00  0.00     0.189 HD
HETATM   27  N   UNL     1     -42.231  57.324 -50.874  1.00  0.00    -0.168 NA
ENDBRANCH   1  17
TORSDOF 2
ENDMDL
MODEL 5
REMARK VINA RESULT:      -8.2      1.896      2.560
REMARK  2 active torsions:
REMARK  status: ('A' for Active; 'I' for Inactive)
REMARK    1  A    between atoms: C_9  and  C_10 
REMARK       I    between atoms: C_10  and  N_11 
REMARK    2  A    between atoms: N_11  and  C_12 
ROOT
HETATM    1  C   UNL     1     -41.256  55.331 -52.935  1.00  0.00     0.277 C 
HETATM    2  N   UNL     1     -42.146  54.874 -53.891  1.00  0.00    -0.322 N 
HETATM    3  O   UNL     1     -40.801  56.466 -52.855  1.00  0.00    -0.266 OA
HETATM    4  H   UNL     1     -42.415  53.901 -53.751  1.00  0.00     0.169 HD
ENDROOT
BRANCH   2   5
HETATM    5  C   UNL     1     -42.722  55.578 -54.960  1.00  0.00     0.037 A 
HETATM    6  C   UNL     1     -43.527  56.709 -54.802  1.00  0.00     0.062 A 
HETATM    7  C   UNL     1     -44.070  57.345 -55.922  1.00  0.00     0.070 A 
HETATM    8  C   UNL     1     -43.816  56.859 -57.206  1.00  0.00     0.096 A 
HETATM    9  N   UNL     1     -44.846  58.490 -55.748  1.00  0.00    -0.323 N 
HETATM   10  O   UNL     1     -44.284  57.445 -58.348  1.00  0.00    -0.340 OA
HETATM   11  C   UNL     1     -43.002  55.743 -57.369  1.00  0.00     0.041 A 
HETATM   12  C   UNL     1     -45.311  58.404 -58.147  1.00  0.00     0.278 C 
HETATM   13  C   UNL     1     -45.450  59.116 -56.802  1.00  0.00     0.246 C 
HETATM   14  O   UNL     1     -46.108  60.142 -56.651  1.00  0.00    -0.271 OA
HETATM   15  C   UNL     1     -42.458  55.105 -56.251  1.00  0.00     0.032 A 
HETATM   16  H   UNL     1     -44.974  58.900 -54.832  1.00  0.00     0.169 HD
ENDBRANCH   2   5
BRANCH   1  17
HETATM   17  C   UNL     1     -40.907  54.272 -51.968  1.00  0.00     0.157 A 
HETATM   18  C   UNL     1     -40.473  52.945 -52.254  1.00  0.00     0.029 A 
HETATM   19  C   UNL     1     -40.221  52.186 -53.415  1.00  0.00     0.023 A 
HETATM   20  C   UNL     1     -40.272  52.353 -51.013  1.00  0.00     0.063 A 
HETATM   21  C   UNL     1     -39.770  50.861 -53.293  1.00  0.00    -0.061 A 
HETATM   22  C   UNL     1     -39.486  50.038 -54.517  1.00  0.00     0.048 C 
HETATM   23  C   UNL     1     -39.588  50.302 -52.022  1.00  0.00     0.009 A 
HETATM   24  C   UNL     1     -39.836  51.036 -50.856  1.00  0.00     0.032 A 
HETATM   25  N   UNL     1     -40.588  53.320 -50.099  1.00  0.00    -0.277 N 
HETATM   26  H   UNL     1     -40.561  53.237 -49.089  1.00  0.00     0.189 HD
HETATM   27  N   UNL     1     -40.960  54.497 -50.635  1.00  0.00    -0.168 NA
ENDBRANCH   1  17
TORSDOF 2
ENDMDL
MODEL 6
REMARK VINA RESULT:      -7.9      4.280      8.034
REMARK  2 active torsions:
REMARK  status: ('A' for Active; 'I' for Inactive)
REMARK    1  A    between atoms: C_9  and  C_10 
REMARK       I    between atoms: C_10  and  N_11 
REMARK    2  A    between atoms: N_11  and  C_12 
ROOT
HETATM    1  C   UNL     1     -42.352  56.515 -52.729  1.00  0.00     0.277 C 
HETATM    2  N   UNL     1     -41.090  55.948 -52.780  1.00  0.00    -0.322 N 
HETATM    3  O   UNL     1     -43.395  55.932 -52.456  1.00  0.00    -0.266 OA
HETATM    4  H   UNL     1     -40.360  56.623 -52.999  1.00  0.00     0.169 HD
ENDROOT
BRANCH   2   5
HETATM    5  C   UNL     1     -40.717  54.617 -52.539  1.00  0.00     0.037 A 
HETATM    6  C   UNL     1     -40.594  53.651 -53.541  1.00  0.00     0.062 A 
HETATM    7  C   UNL     1     -40.228  52.342 -53.212  1.00  0.00     0.070 A 
HETATM    8  C   UNL     1     -39.981  51.987 -51.885  1.00  0.00     0.096 A 
HETATM    9  N   UNL     1     -40.081  51.398 -54.229  1.00  0.00    -0.323 N 
HETATM   10  O   UNL     1     -39.587  50.740 -51.491  1.00  0.00    -0.340 OA
HETATM   11  C   UNL     1     -40.086  52.950 -50.886  1.00  0.00     0.041 A 
HETATM   12  C   UNL     1     -39.745  49.728 -52.474  1.00  0.00     0.278 C 
HETATM   13  C   UNL     1     -39.783  50.092 -53.958  1.00  0.00     0.246 C 
HETATM   14  O   UNL     1     -39.624  49.269 -54.856  1.00  0.00    -0.271 OA
HETATM   15  C   UNL     1     -40.452  54.258 -51.212  1.00  0.00     0.032 A 
HETATM   16  H   UNL     1     -40.179  51.658 -55.201  1.00  0.00     0.169 HD
ENDBRANCH   2   5
BRANCH   1  17
HETATM   17  C   UNL     1     -42.311  57.958 -53.031  1.00  0.00     0.157 A 
HETATM   18  C   UNL     1     -43.017  59.004 -52.367  1.00  0.00     0.029 A 
HETATM   19  C   UNL     1     -43.922  59.094 -51.290  1.00  0.00     0.023 A 
HETATM   20  C   UNL     1     -42.637  60.170 -53.020  1.00  0.00     0.063 A 
HETATM   21  C   UNL     1     -44.411  60.352 -50.899  1.00  0.00    -0.061 A 
HETATM   22  C   UNL     1     -45.368  60.473 -49.748  1.00  0.00     0.048 C 
HETATM   23  C   UNL     1     -44.007  61.502 -51.590  1.00  0.00     0.009 A 
HETATM   24  C   UNL     1     -43.112  61.434 -52.664  1.00  0.00     0.032 A 
HETATM   25  N   UNL     1     -41.766  59.769 -53.994  1.00  0.00    -0.277 N 
HETATM   26  H   UNL     1     -41.291  60.358 -54.669  1.00  0.00     0.189 HD
HETATM   27  N   UNL     1     -41.530  58.444 -54.023  1.00  0.00    -0.168 NA
ENDBRANCH   1  17
TORSDOF 2
ENDMDL
MODEL 7
REMARK VINA RESULT:      -7.8      1.948      2.434
REMARK  2 active torsions:
REMARK  status: ('A' for Active; 'I' for Inactive)
REMARK    1  A    between atoms: C_9  and  C_10 
REMARK       I    between atoms: C_10  and  N_11 
REMARK    2  A    between atoms: N_11  and  C_12 
ROOT
HETATM    1  C   UNL     1     -41.641  56.738 -53.179  1.00  0.00     0.277 C 
HETATM    2  N   UNL     1     -42.966  56.751 -53.581  1.00  0.00    -0.322 N 
HETATM    3  O   UNL     1     -40.671  57.003 -53.880  1.00  0.00    -0.266 OA
HETATM    4  H   UNL     1     -43.612  56.525 -52.828  1.00  0.00     0.169 HD
ENDROOT
BRANCH   2   5
HETATM    5  C   UNL     1     -43.495  57.061 -54.844  1.00  0.00     0.037 A 
HETATM    6  C   UNL     1     -43.011  56.528 -56.042  1.00  0.00     0.062 A 
HETATM    7  C   UNL     1     -43.591  56.899 -57.259  1.00  0.00     0.070 A 
HETATM    8  C   UNL     1     -44.655  57.802 -57.291  1.00  0.00     0.096 A 
HETATM    9  N   UNL     1     -43.115  56.335 -58.442  1.00  0.00    -0.323 N 
HETATM   10  O   UNL     1     -45.293  58.186 -58.437  1.00  0.00    -0.340 OA
HETATM   11  C   UNL     1     -45.151  58.322 -56.100  1.00  0.00     0.041 A 
HETATM   12  C   UNL     1     -44.610  57.857 -59.637  1.00  0.00     0.278 C 
HETATM   13  C   UNL     1     -43.604  56.707 -59.663  1.00  0.00     0.246 C 
HETATM   14  O   UNL     1     -43.205  56.187 -60.701  1.00  0.00    -0.271 OA
HETATM   15  C   UNL     1     -44.573  57.953 -54.882  1.00  0.00     0.032 A 
HETATM   16  H   UNL     1     -42.398  55.622 -58.429  1.00  0.00     0.169 HD
ENDBRANCH   2   5
BRANCH   1  17
HETATM   17  C   UNL     1     -41.510  56.375 -51.756  1.00  0.00     0.157 A 
HETATM   18  C   UNL     1     -41.073  55.130 -51.214  1.00  0.00     0.029 A 
HETATM   19  C   UNL     1     -40.637  53.894 -51.733  1.00  0.00     0.023 A 
HETATM   20  C   UNL     1     -41.122  55.297 -49.836  1.00  0.00     0.063 A 
HETATM   21  C   UNL     1     -40.258  52.868 -50.851  1.00  0.00    -0.061 A 
HETATM   22  C   UNL     1     -39.780  51.546 -51.381  1.00  0.00     0.048 C 
HETATM   23  C   UNL     1     -40.330  53.076 -49.467  1.00  0.00     0.009 A 
HETATM   24  C   UNL     1     -40.764  54.294 -48.932  1.00  0.00     0.032 A 
HETATM   25  N   UNL     1     -41.569  56.575 -49.644  1.00  0.00    -0.277 N 
HETATM   26  H   UNL     1     -41.731  57.039 -48.757  1.00  0.00     0.189 HD
HETATM   27  N   UNL     1     -41.799  57.263 -50.777  1.00  0.00    -0.168 NA
ENDBRANCH   1  17
TORSDOF 2
ENDMDL
MODEL 8
REMARK VINA RESULT:      -7.8      2.897      7.630
REMARK  2 active torsions:
REMARK  status: ('A' for Active; 'I' for Inactive)
REMARK    1  A    between atoms: C_9  and  C_10 
REMARK       I    between atoms: C_10  and  N_11 
REMARK    2  A    between atoms: N_11  and  C_12 
ROOT
HETATM    1  C   UNL     1     -41.885  56.924 -54.302  1.00  0.00     0.277 C 
HETATM    2  N   UNL     1     -42.269  55.602 -54.157  1.00  0.00    -0.322 N 
HETATM    3  O   UNL     1     -40.852  57.428 -53.876  1.00  0.00    -0.266 OA
HETATM    4  H   UNL     1     -43.154  55.393 -54.616  1.00  0.00     0.169 HD
ENDROOT
BRANCH   2   5
HETATM    5  C   UNL     1     -41.590  54.558 -53.508  1.00  0.00     0.037 A 
HETATM    6  C   UNL     1     -41.245  53.354 -54.127  1.00  0.00     0.062 A 
HETATM    7  C   UNL     1     -40.577  52.361 -53.403  1.00  0.00     0.070 A 
HETATM    8  C   UNL     1     -40.249  52.560 -52.061  1.00  0.00     0.096 A 
HETATM    9  N   UNL     1     -40.213  51.177 -54.044  1.00  0.00    -0.323 N 
HETATM   10  O   UNL     1     -39.569  51.652 -51.300  1.00  0.00    -0.340 OA
HETATM   11  C   UNL     1     -40.576  53.765 -51.446  1.00  0.00     0.041 A 
HETATM   12  C   UNL     1     -39.485  50.350 -51.861  1.00  0.00     0.278 C 
HETATM   13  C   UNL     1     -39.613  50.151 -53.371  1.00  0.00     0.246 C 
HETATM   14  O   UNL     1     -39.266  49.121 -53.943  1.00  0.00    -0.271 OA
HETATM   15  C   UNL     1     -41.244  54.759 -52.166  1.00  0.00     0.032 A 
HETATM   16  H   UNL     1     -40.373  51.049 -55.035  1.00  0.00     0.169 HD
ENDBRANCH   2   5
BRANCH   1  17
HETATM   17  C   UNL     1     -42.879  57.696 -55.072  1.00  0.00     0.157 A 
HETATM   18  C   UNL     1     -43.337  57.441 -56.398  1.00  0.00     0.029 A 
HETATM   19  C   UNL     1     -43.077  56.479 -57.396  1.00  0.00     0.023 A 
HETATM   20  C   UNL     1     -44.265  58.441 -56.660  1.00  0.00     0.063 A 
HETATM   21  C   UNL     1     -43.763  56.548 -58.621  1.00  0.00    -0.061 A 
HETATM   22  C   UNL     1     -43.510  55.528 -59.693  1.00  0.00     0.048 C 
HETATM   23  C   UNL     1     -44.686  57.578 -58.845  1.00  0.00     0.009 A 
HETATM   24  C   UNL     1     -44.955  58.546 -57.870  1.00  0.00     0.032 A 
HETATM   25  N   UNL     1     -44.303  59.202 -55.525  1.00  0.00    -0.277 N 
HETATM   26  H   UNL     1     -44.871  60.026 -55.360  1.00  0.00     0.189 HD
HETATM   27  N   UNL     1     -43.493  58.776 -54.538  1.00  0.00    -0.168 NA
ENDBRANCH   1  17
TORSDOF 2
ENDMDL
MODEL 9
REMARK VINA RESULT:      -7.8      4.328      5.257
REMARK  2 active torsions:
REMARK  status: ('A' for Active; 'I' for Inactive)
REMARK    1  A    between atoms: C_9  and  C_10 
REMARK       I    between atoms: C_10  and  N_11 
REMARK    2  A    between atoms: N_11  and  C_12 
ROOT
HETATM    1  C   UNL     1     -41.566  55.092 -52.316  1.00  0.00     0.277 C 
HETATM    2  N   UNL     1     -41.355  56.307 -51.687  1.00  0.00    -0.322 N 
HETATM    3  O   UNL     1     -42.095  54.926 -53.409  1.00  0.00    -0.266 OA
HETATM    4  H   UNL     1     -40.872  56.214 -50.796  1.00  0.00     0.169 HD
ENDROOT
BRANCH   2   5
HETATM    5  C   UNL     1     -41.684  57.595 -52.136  1.00  0.00     0.037 A 
HETATM    6  C   UNL     1     -42.657  58.401 -51.539  1.00  0.00     0.062 A 
HETATM    7  C   UNL     1     -42.931  59.670 -52.058  1.00  0.00     0.070 A 
HETATM    8  C   UNL     1     -42.240  60.144 -53.174  1.00  0.00     0.096 A 
HETATM    9  N   UNL     1     -43.884  60.473 -51.432  1.00  0.00    -0.323 N 
HETATM   10  O   UNL     1     -42.428  61.384 -53.717  1.00  0.00    -0.340 OA
HETATM   11  C   UNL     1     -41.259  59.352 -53.762  1.00  0.00     0.041 A 
HETATM   12  C   UNL     1     -43.598  62.055 -53.274  1.00  0.00     0.278 C 
HETATM   13  C   UNL     1     -44.233  61.696 -51.931  1.00  0.00     0.246 C 
HETATM   14  O   UNL     1     -45.050  62.415 -51.362  1.00  0.00    -0.271 OA
HETATM   15  C   UNL     1     -40.983  58.083 -53.246  1.00  0.00     0.032 A 
HETATM   16  H   UNL     1     -44.337  60.176 -50.577  1.00  0.00     0.169 HD
ENDBRANCH   2   5
BRANCH   1  17
HETATM   17  C   UNL     1     -41.051  53.968 -51.512  1.00  0.00     0.157 A 
HETATM   18  C   UNL     1     -40.536  52.726 -51.986  1.00  0.00     0.029 A 
HETATM   19  C   UNL     1     -40.324  52.128 -53.245  1.00  0.00     0.023 A 
HETATM   20  C   UNL     1     -40.182  52.020 -50.843  1.00  0.00     0.063 A 
HETATM   21  C   UNL     1     -39.758  50.844 -53.316  1.00  0.00    -0.061 A 
HETATM   22  C   UNL     1     -39.514  50.192 -54.647  1.00  0.00     0.048 C 
HETATM   23  C   UNL     1     -39.422  50.164 -52.138  1.00  0.00     0.009 A 
HETATM   24  C   UNL     1     -39.628  50.738 -50.878  1.00  0.00     0.032 A 
HETATM   25  N   UNL     1     -40.495  52.845 -49.799  1.00  0.00    -0.277 N 
HETATM   26  H   UNL     1     -40.374  52.653 -48.811  1.00  0.00     0.189 HD
HETATM   27  N   UNL     1     -41.006  54.036 -50.162  1.00  0.00    -0.168 NA
ENDBRANCH   1  17
TORSDOF 2
ENDMDL
MODEL 10
REMARK VINA RESULT:      -7.6      4.488      6.702
REMARK  2 active torsions:
REMARK  status: ('A' for Active; 'I' for Inactive)
REMARK    1  A    between atoms: C_9  and  C_10 
REMARK       I    between atoms: C_10  and  N_11 
REMARK    2  A    between atoms: N_11  and  C_12 
ROOT
HETATM    1  C   UNL     1     -41.644  57.163 -52.882  1.00  0.00     0.277 C 
HETATM    2  N   UNL     1     -42.855  57.728 -53.244  1.00  0.00    -0.322 N 
HETATM    3  O   UNL     1     -40.927  57.524 -51.956  1.00  0.00    -0.266 OA
HETATM    4  H   UNL     1     -43.297  57.251 -54.027  1.00  0.00     0.169 HD
ENDROOT
BRANCH   2   5
HETATM    5  C   UNL     1     -43.528  58.811 -52.656  1.00  0.00     0.037 A 
HETATM    6  C   UNL     1     -43.989  58.816 -51.337  1.00  0.00     0.062 A 
HETATM    7  C   UNL     1     -44.660  59.934 -50.834  1.00  0.00     0.070 A 
HETATM    8  C   UNL     1     -44.877  61.053 -51.640  1.00  0.00     0.096 A 
HETATM    9  N   UNL     1     -45.087  59.934 -49.506  1.00  0.00    -0.323 N 
HETATM   10  O   UNL     1     -45.495  62.194 -51.210  1.00  0.00    -0.340 OA
HETATM   11  C   UNL     1     -44.406  61.059 -52.949  1.00  0.00     0.041 A 
HETATM   12  C   UNL     1     -46.190  62.065 -49.979  1.00  0.00     0.278 C 
HETATM   13  C   UNL     1     -45.800  60.976 -48.981  1.00  0.00     0.246 C 
HETATM   14  O   UNL     1     -46.148  60.987 -47.803  1.00  0.00    -0.271 OA
HETATM   15  C   UNL     1     -43.734  59.943 -53.455  1.00  0.00     0.032 A 
HETATM   16  H   UNL     1     -44.869  59.164 -48.888  1.00  0.00     0.169 HD
ENDBRANCH   2   5
BRANCH   1  17
HETATM   17  C   UNL     1     -41.297  56.022 -53.749  1.00  0.00     0.157 A 
HETATM   18  C   UNL     1     -40.892  54.716 -53.343  1.00  0.00     0.029 A 
HETATM   19  C   UNL     1     -40.685  54.051 -52.117  1.00  0.00     0.023 A 
HETATM   20  C   UNL     1     -40.688  54.016 -54.526  1.00  0.00     0.063 A 
HETATM   21  C   UNL     1     -40.287  52.703 -52.118  1.00  0.00    -0.061 A 
HETATM   22  C   UNL     1     -40.070  51.973 -50.824  1.00  0.00     0.048 C 
HETATM   23  C   UNL     1     -40.085  52.038 -53.334  1.00  0.00     0.009 A 
HETATM   24  C   UNL     1     -40.281  52.681 -54.563  1.00  0.00     0.032 A 
HETATM   25  N   UNL     1     -40.968  54.907 -55.524  1.00  0.00    -0.277 N 
HETATM   26  H   UNL     1     -40.920  54.740 -56.523  1.00  0.00     0.189 HD
HETATM   27  N   UNL     1     -41.355  56.123 -55.096  1.00  0.00    -0.168 NA
ENDBRANCH   1  17
TORSDOF 2
ENDMDL
