MODEL 1
REMARK VINA RESULT:      -7.9      0.000      0.000
REMARK  6 active torsions:
REMARK  status: ('A' for Active; 'I' for Inactive)
REMARK    1  A    between atoms: C_2  and  C_3 
REMARK    2  A    between atoms: C_7  and  C_8 
REMARK       I    between atoms: C_8  and  N_9 
REMARK    3  A    between atoms: N_9  and  C_10 
REMARK    4  A    between atoms: C_10  and  C_11 
REMARK    5  A    between atoms: C_10  and  C_19 
REMARK    6  A    between atoms: C_14  and  O_15 
ROOT
HETATM    1  C   UNL     1     -41.880  55.210 -53.469  1.00  0.00     0.151 C 
ENDROOT
BRANCH   1   2
HETATM    2  N   UNL     1     -41.997  55.502 -54.888  1.00  0.00    -0.343 N 
HETATM    3  C   UNL     1     -43.148  55.979 -55.458  1.00  0.00     0.270 C 
HETATM    4  O   UNL     1     -44.173  56.194 -54.819  1.00  0.00    -0.266 OA
HETATM    5  H   UNL     1     -41.185  55.336 -55.458  1.00  0.00     0.163 HD
BRANCH   3   6
HETATM    6  C   UNL     1     -43.076  56.201 -56.878  1.00  0.00     0.119 A 
HETATM    7  N   UNL     1     -43.576  55.290 -57.769  1.00  0.00    -0.273 N 
HETATM    8  N   UNL     1     -43.433  55.642 -59.057  1.00  0.00    -0.179 NA
HETATM    9  H   UNL     1     -44.026  54.406 -57.548  1.00  0.00     0.189 HD
HETATM   10  C   UNL     1     -42.823  56.831 -59.000  1.00  0.00     0.056 A 
HETATM   11  C   UNL     1     -42.574  57.222 -57.662  1.00  0.00     0.065 A 
BRANCH  10  12
HETATM   12  C   UNL     1     -42.493  57.576 -60.248  1.00  0.00     0.056 C 
HETATM   13  C   UNL     1     -42.168  59.038 -59.981  1.00  0.00     0.011 C 
ENDBRANCH  10  12
ENDBRANCH   3   6
ENDBRANCH   1   2
BRANCH   1  14
HETATM   14  C   UNL     1     -41.356  56.468 -52.781  1.00  0.00    -0.031 A 
HETATM   15  C   UNL     1     -41.540  56.684 -51.405  1.00  0.00     0.012 A 
HETATM   16  C   UNL     1     -41.057  57.847 -50.799  1.00  0.00     0.037 A 
HETATM   17  C   UNL     1     -40.386  58.814 -51.547  1.00  0.00     0.068 A 
HETATM   18  C   UNL     1     -40.177  58.600 -52.909  1.00  0.00     0.037 A 
HETATM   19  C   UNL     1     -40.655  57.433 -53.520  1.00  0.00     0.012 A 
BRANCH  17  20
HETATM   20  O   UNL     1     -39.981  59.909 -50.835  1.00  0.00    -0.356 OA
HETATM   21  C   UNL     1     -38.692  59.840 -50.237  1.00  0.00     0.210 C 
ENDBRANCH  17  20
ENDBRANCH   1  14
BRANCH   1  22
HETATM   22  C   UNL     1     -41.045  53.955 -53.193  1.00  0.00    -0.031 A 
HETATM   23  C   UNL     1     -40.708  53.605 -51.870  1.00  0.00     0.009 A 
HETATM   24  C   UNL     1     -39.976  52.449 -51.591  1.00  0.00     0.001 A 
HETATM   25  C   UNL     1     -39.583  51.606 -52.626  1.00  0.00     0.000 A 
HETATM   26  C   UNL     1     -39.931  51.914 -53.937  1.00  0.00     0.001 A 
HETATM   27  C   UNL     1     -40.660  53.073 -54.219  1.00  0.00     0.009 A 
ENDBRANCH   1  22
TORSDOF 6
ENDMDL
MODEL 2
REMARK VINA RESULT:      -7.9      1.084      1.581
REMARK  6 active torsions:
REMARK  status: ('A' for Active; 'I' for Inactive)
REMARK    1  A    between atoms: C_2  and  C_3 
REMARK    2  A    between atoms: C_7  and  C_8 
REMARK       I    between atoms: C_8  and  N_9 
REMARK    3  A    between atoms: N_9  and  C_10 
REMARK    4  A    between atoms: C_10  and  C_11 
REMARK    5  A    between atoms: C_10  and  C_19 
REMARK    6  A    between atoms: C_14  and  O_15 
ROOT
HETATM    1  C   UNL     1     -42.014  55.264 -53.183  1.00  0.00     0.151 C 
ENDROOT
BRANCH   1   2
HETATM    2  N   UNL     1     -42.337  55.549 -54.571  1.00  0.00    -0.343 N 
HETATM    3  C   UNL     1     -43.512  56.138 -54.958  1.00  0.00     0.270 C 
HETATM    4  O   UNL     1     -44.387  56.469 -54.165  1.00  0.00    -0.266 OA
HETATM    5  H   UNL     1     -41.653  55.290 -55.263  1.00  0.00     0.163 HD
BRANCH   3   6
HETATM    6  C   UNL     1     -43.657  56.333 -56.376  1.00  0.00     0.119 A 
HETATM    7  N   UNL     1     -44.467  57.314 -56.881  1.00  0.00    -0.273 N 
HETATM    8  N   UNL     1     -44.496  57.368 -58.223  1.00  0.00    -0.179 NA
HETATM    9  H   UNL     1     -45.027  57.975 -56.349  1.00  0.00     0.189 HD
HETATM   10  C   UNL     1     -43.667  56.391 -58.602  1.00  0.00     0.056 A 
HETATM   11  C   UNL     1     -43.121  55.711 -57.487  1.00  0.00     0.065 A 
BRANCH  10  12
HETATM   12  C   UNL     1     -43.411  56.130 -60.048  1.00  0.00     0.056 C 
HETATM   13  C   UNL     1     -44.539  55.347 -60.703  1.00  0.00     0.011 C 
ENDBRANCH  10  12
ENDBRANCH   3   6
ENDBRANCH   1   2
BRANCH   1  14
HETATM   14  C   UNL     1     -41.373  56.518 -52.592  1.00  0.00    -0.031 A 
HETATM   15  C   UNL     1     -41.382  56.766 -51.210  1.00  0.00     0.012 A 
HETATM   16  C   UNL     1     -40.795  57.924 -50.693  1.00  0.00     0.037 A 
HETATM   17  C   UNL     1     -40.192  58.855 -51.539  1.00  0.00     0.068 A 
HETATM   18  C   UNL     1     -40.157  58.608 -52.911  1.00  0.00     0.037 A 
HETATM   19  C   UNL     1     -40.740  57.446 -53.432  1.00  0.00     0.012 A 
BRANCH  17  20
HETATM   20  O   UNL     1     -39.671  59.950 -50.906  1.00  0.00    -0.356 OA
HETATM   21  C   UNL     1     -38.471  59.750 -50.170  1.00  0.00     0.210 C 
ENDBRANCH  17  20
ENDBRANCH   1  14
BRANCH   1  22
HETATM   22  C   UNL     1     -41.167  53.997 -53.023  1.00  0.00    -0.031 A 
HETATM   23  C   UNL     1     -40.794  53.246 -54.155  1.00  0.00     0.009 A 
HETATM   24  C   UNL     1     -39.995  52.107 -54.038  1.00  0.00     0.001 A 
HETATM   25  C   UNL     1     -39.533  51.706 -52.788  1.00  0.00     0.000 A 
HETATM   26  C   UNL     1     -39.863  52.449 -51.659  1.00  0.00     0.001 A 
HETATM   27  C   UNL     1     -40.665  53.588 -51.774  1.00  0.00     0.009 A 
ENDBRANCH   1  22
TORSDOF 6
ENDMDL
MODEL 3
REMARK VINA RESULT:      -7.7      2.430      5.064
REMARK  6 active torsions:
REMARK  status: ('A' for Active; 'I' for Inactive)
REMARK    1  A    between atoms: C_2  and  C_3 
REMARK    2  A    between atoms: C_7  and  C_8 
REMARK       I    between atoms: C_8  and  N_9 
REMARK    3  A    between atoms: N_9  and  C_10 
REMARK    4  A    between atoms: C_10  and  C_11 
REMARK    5  A    between atoms: C_10  and  C_19 
REMARK    6  A    between atoms: C_14  and  O_15 
ROOT
HETATM    1  C   UNL     1     -41.473  56.297 -54.729  1.00  0.00     0.151 C 
ENDROOT
BRANCH   1   2
HETATM    2  N   UNL     1     -42.061  56.081 -56.041  1.00  0.00    -0.343 N 
HETATM    3  C   UNL     1     -42.313  57.100 -56.921  1.00  0.00     0.270 C 
HETATM    4  O   UNL     1     -42.067  58.276 -56.673  1.00  0.00    -0.266 OA
HETATM    5  H   UNL     1     -42.287  55.133 -56.291  1.00  0.00     0.163 HD
BRANCH   3   6
HETATM    6  C   UNL     1     -42.904  56.694 -58.169  1.00  0.00     0.119 A 
HETATM    7  N   UNL     1     -42.138  56.465 -59.280  1.00  0.00    -0.273 N 
HETATM    8  N   UNL     1     -42.838  56.093 -60.365  1.00  0.00    -0.179 NA
HETATM    9  H   UNL     1     -41.128  56.552 -59.351  1.00  0.00     0.189 HD
HETATM   10  C   UNL     1     -44.105  56.072 -59.939  1.00  0.00     0.056 A 
HETATM   11  C   UNL     1     -44.201  56.444 -58.576  1.00  0.00     0.065 A 
BRANCH  10  12
HETATM   12  C   UNL     1     -45.210  55.687 -60.862  1.00  0.00     0.056 C 
HETATM   13  C   UNL     1     -46.572  56.131 -60.351  1.00  0.00     0.011 C 
ENDBRANCH  10  12
ENDBRANCH   3   6
ENDBRANCH   1   2
BRANCH   1  14
HETATM   14  C   UNL     1     -41.022  54.939 -54.196  1.00  0.00    -0.031 A 
HETATM   15  C   UNL     1     -40.636  53.902 -55.061  1.00  0.00     0.012 A 
HETATM   16  C   UNL     1     -40.234  52.665 -54.550  1.00  0.00     0.037 A 
HETATM   17  C   UNL     1     -40.211  52.436 -53.174  1.00  0.00     0.068 A 
HETATM   18  C   UNL     1     -40.571  53.466 -52.305  1.00  0.00     0.037 A 
HETATM   19  C   UNL     1     -40.970  54.709 -52.813  1.00  0.00     0.012 A 
BRANCH  17  20
HETATM   20  O   UNL     1     -39.814  51.179 -52.810  1.00  0.00    -0.356 OA
HETATM   21  C   UNL     1     -39.569  50.257 -53.864  1.00  0.00     0.210 C 
ENDBRANCH  17  20
ENDBRANCH   1  14
BRANCH   1  22
HETATM   22  C   UNL     1     -42.408  57.058 -53.783  1.00  0.00    -0.031 A 
HETATM   23  C   UNL     1     -41.920  58.141 -53.024  1.00  0.00     0.009 A 
HETATM   24  C   UNL     1     -42.760  58.870 -52.179  1.00  0.00     0.001 A 
HETATM   25  C   UNL     1     -44.111  58.546 -52.092  1.00  0.00     0.000 A 
HETATM   26  C   UNL     1     -44.622  57.501 -52.854  1.00  0.00     0.001 A 
HETATM   27  C   UNL     1     -43.781  56.768 -53.697  1.00  0.00     0.009 A 
ENDBRANCH   1  22
TORSDOF 6
ENDMDL
MODEL 4
REMARK VINA RESULT:      -7.0      1.354      1.857
REMARK  6 active torsions:
REMARK  status: ('A' for Active; 'I' for Inactive)
REMARK    1  A    between atoms: C_2  and  C_3 
REMARK    2  A    between atoms: C_7  and  C_8 
REMARK       I    between atoms: C_8  and  N_9 
REMARK    3  A    between atoms: N_9  and  C_10 
REMARK    4  A    between atoms: C_10  and  C_11 
REMARK    5  A    between atoms: C_10  and  C_19 
REMARK    6  A    between atoms: C_14  and  O_15 
ROOT
HETATM    1  C   UNL     1     -42.390  55.940 -54.298  1.00  0.00     0.151 C 
ENDROOT
BRANCH   1   2
HETATM    2  N   UNL     1     -42.220  56.448 -55.649  1.00  0.00    -0.343 N 
HETATM    3  C   UNL     1     -42.866  55.915 -56.733  1.00  0.00     0.270 C 
HETATM    4  O   UNL     1     -43.636  54.963 -56.652  1.00  0.00    -0.266 OA
HETATM    5  H   UNL     1     -41.593  57.226 -55.770  1.00  0.00     0.163 HD
BRANCH   3   6
HETATM    6  C   UNL     1     -42.567  56.547 -57.991  1.00  0.00     0.119 A 
HETATM    7  N   UNL     1     -42.426  55.816 -59.140  1.00  0.00    -0.273 N 
HETATM    8  N   UNL     1     -42.148  56.551 -60.229  1.00  0.00    -0.179 NA
HETATM    9  H   UNL     1     -42.508  54.808 -59.234  1.00  0.00     0.189 HD
HETATM   10  C   UNL     1     -42.114  57.807 -59.771  1.00  0.00     0.056 A 
HETATM   11  C   UNL     1     -42.364  57.858 -58.378  1.00  0.00     0.065 A 
BRANCH  10  12
HETATM   12  C   UNL     1     -41.842  58.945 -60.695  1.00  0.00     0.056 C 
HETATM   13  C   UNL     1     -42.845  60.077 -60.529  1.00  0.00     0.011 C 
ENDBRANCH  10  12
ENDBRANCH   3   6
ENDBRANCH   1   2
BRANCH   1  14
HETATM   14  C   UNL     1     -42.099  57.087 -53.333  1.00  0.00    -0.031 A 
HETATM   15  C   UNL     1     -42.973  57.400 -52.279  1.00  0.00     0.012 A 
HETATM   16  C   UNL     1     -42.689  58.459 -51.413  1.00  0.00     0.037 A 
HETATM   17  C   UNL     1     -41.535  59.225 -51.579  1.00  0.00     0.068 A 
HETATM   18  C   UNL     1     -40.648  58.908 -52.608  1.00  0.00     0.037 A 
HETATM   19  C   UNL     1     -40.927  57.845 -53.475  1.00  0.00     0.012 A 
BRANCH  17  20
HETATM   20  O   UNL     1     -41.386  60.239 -50.674  1.00  0.00    -0.356 OA
HETATM   21  C   UNL     1     -42.501  61.103 -50.494  1.00  0.00     0.210 C 
ENDBRANCH  17  20
ENDBRANCH   1  14
BRANCH   1  22
HETATM   22  C   UNL     1     -41.560  54.679 -54.035  1.00  0.00    -0.031 A 
HETATM   23  C   UNL     1     -40.726  54.156 -55.043  1.00  0.00     0.009 A 
HETATM   24  C   UNL     1     -39.936  53.027 -54.816  1.00  0.00     0.001 A 
HETATM   25  C   UNL     1     -39.945  52.409 -53.569  1.00  0.00     0.000 A 
HETATM   26  C   UNL     1     -40.738  52.925 -52.548  1.00  0.00     0.001 A 
HETATM   27  C   UNL     1     -41.532  54.053 -52.775  1.00  0.00     0.009 A 
ENDBRANCH   1  22
TORSDOF 6
ENDMDL
MODEL 5
REMARK VINA RESULT:      -7.0      2.707      6.824
REMARK  6 active torsions:
REMARK  status: ('A' for Active; 'I' for Inactive)
REMARK    1  A    between atoms: C_2  and  C_3 
REMARK    2  A    between atoms: C_7  and  C_8 
REMARK       I    between atoms: C_8  and  N_9 
REMARK    3  A    between atoms: N_9  and  C_10 
REMARK    4  A    between atoms: C_10  and  C_11 
REMARK    5  A    between atoms: C_10  and  C_19 
REMARK    6  A    between atoms: C_14  and  O_15 
ROOT
HETATM    1  C   UNL     1     -42.986  56.011 -55.553  1.00  0.00     0.151 C 
ENDROOT
BRANCH   1   2
HETATM    2  N   UNL     1     -42.728  57.137 -54.670  1.00  0.00    -0.343 N 
HETATM    3  C   UNL     1     -43.445  57.366 -53.526  1.00  0.00     0.270 C 
HETATM    4  O   UNL     1     -44.365  56.643 -53.156  1.00  0.00    -0.266 OA
HETATM    5  H   UNL     1     -41.987  57.764 -54.933  1.00  0.00     0.163 HD
BRANCH   3   6
HETATM    6  C   UNL     1     -43.050  58.534 -52.784  1.00  0.00     0.119 A 
HETATM    7  N   UNL     1     -41.911  59.225 -53.097  1.00  0.00    -0.273 N 
HETATM    8  N   UNL     1     -41.680  60.291 -52.312  1.00  0.00    -0.179 NA
HETATM    9  H   UNL     1     -41.251  59.009 -53.839  1.00  0.00     0.189 HD
HETATM   10  C   UNL     1     -42.713  60.295 -51.463  1.00  0.00     0.056 A 
HETATM   11  C   UNL     1     -43.595  59.215 -51.713  1.00  0.00     0.065 A 
BRANCH  10  12
HETATM   12  C   UNL     1     -42.834  61.353 -50.419  1.00  0.00     0.056 C 
HETATM   13  C   UNL     1     -44.097  61.200 -49.584  1.00  0.00     0.011 C 
ENDBRANCH  10  12
ENDBRANCH   3   6
ENDBRANCH   1   2
BRANCH   1  14
HETATM   14  C   UNL     1     -42.065  54.870 -55.126  1.00  0.00    -0.031 A 
HETATM   15  C   UNL     1     -40.669  55.020 -55.108  1.00  0.00     0.012 A 
HETATM   16  C   UNL     1     -39.847  53.958 -54.721  1.00  0.00     0.037 A 
HETATM   17  C   UNL     1     -40.396  52.731 -54.347  1.00  0.00     0.068 A 
HETATM   18  C   UNL     1     -41.782  52.578 -54.339  1.00  0.00     0.037 A 
HETATM   19  C   UNL     1     -42.610  53.641 -54.722  1.00  0.00     0.012 A 
BRANCH  17  20
HETATM   20  O   UNL     1     -39.480  51.775 -54.006  1.00  0.00    -0.356 OA
HETATM   21  C   UNL     1     -39.910  50.422 -54.086  1.00  0.00     0.210 C 
ENDBRANCH  17  20
ENDBRANCH   1  14
BRANCH   1  22
HETATM   22  C   UNL     1     -42.868  56.385 -57.034  1.00  0.00    -0.031 A 
HETATM   23  C   UNL     1     -42.407  57.663 -57.408  1.00  0.00     0.009 A 
HETATM   24  C   UNL     1     -42.260  58.016 -58.752  1.00  0.00     0.001 A 
HETATM   25  C   UNL     1     -42.550  57.091 -59.750  1.00  0.00     0.000 A 
HETATM   26  C   UNL     1     -42.977  55.813 -59.405  1.00  0.00     0.001 A 
HETATM   27  C   UNL     1     -43.128  55.460 -58.061  1.00  0.00     0.009 A 
ENDBRANCH   1  22
TORSDOF 6
ENDMDL
MODEL 6
REMARK VINA RESULT:      -6.9      3.028      6.623
REMARK  6 active torsions:
REMARK  status: ('A' for Active; 'I' for Inactive)
REMARK    1  A    between atoms: C_2  and  C_3 
REMARK    2  A    between atoms: C_7  and  C_8 
REMARK       I    between atoms: C_8  and  N_9 
REMARK    3  A    between atoms: N_9  and  C_10 
REMARK    4  A    between atoms: C_10  and  C_11 
REMARK    5  A    between atoms: C_10  and  C_19 
REMARK    6  A    between atoms: C_14  and  O_15 
ROOT
HETATM    1  C   UNL     1     -41.443  56.687 -54.891  1.00  0.00     0.151 C 
ENDROOT
BRANCH   1   2
HETATM    2  N   UNL     1     -42.208  57.502 -53.963  1.00  0.00    -0.343 N 
HETATM    3  C   UNL     1     -41.752  58.695 -53.467  1.00  0.00     0.270 C 
HETATM    4  O   UNL     1     -40.659  59.168 -53.762  1.00  0.00    -0.266 OA
HETATM    5  H   UNL     1     -43.111  57.154 -53.684  1.00  0.00     0.163 HD
BRANCH   3   6
HETATM    6  C   UNL     1     -42.646  59.357 -52.555  1.00  0.00     0.119 A 
HETATM    7  N   UNL     1     -42.588  60.710 -52.356  1.00  0.00    -0.273 N 
HETATM    8  N   UNL     1     -43.488  61.177 -51.475  1.00  0.00    -0.179 NA
HETATM    9  H   UNL     1     -41.947  61.363 -52.797  1.00  0.00     0.189 HD
HETATM   10  C   UNL     1     -44.161  60.086 -51.094  1.00  0.00     0.056 A 
HETATM   11  C   UNL     1     -43.671  58.923 -51.736  1.00  0.00     0.065 A 
BRANCH  10  12
HETATM   12  C   UNL     1     -45.278  60.188 -50.111  1.00  0.00     0.056 C 
HETATM   13  C   UNL     1     -44.962  61.147 -48.974  1.00  0.00     0.011 C 
ENDBRANCH  10  12
ENDBRANCH   3   6
ENDBRANCH   1   2
BRANCH   1  14
HETATM   14  C   UNL     1     -42.205  56.654 -56.214  1.00  0.00    -0.031 A 
HETATM   15  C   UNL     1     -42.772  55.467 -56.705  1.00  0.00     0.012 A 
HETATM   16  C   UNL     1     -43.459  55.460 -57.922  1.00  0.00     0.037 A 
HETATM   17  C   UNL     1     -43.592  56.629 -58.672  1.00  0.00     0.068 A 
HETATM   18  C   UNL     1     -43.053  57.818 -58.182  1.00  0.00     0.037 A 
HETATM   19  C   UNL     1     -42.368  57.830 -56.960  1.00  0.00     0.012 A 
BRANCH  17  20
HETATM   20  O   UNL     1     -44.272  56.480 -59.848  1.00  0.00    -0.356 OA
HETATM   21  C   UNL     1     -44.715  55.167 -60.168  1.00  0.00     0.210 C 
ENDBRANCH  17  20
ENDBRANCH   1  14
BRANCH   1  22
HETATM   22  C   UNL     1     -41.117  55.300 -54.325  1.00  0.00    -0.031 A 
HETATM   23  C   UNL     1     -41.695  54.876 -53.113  1.00  0.00     0.009 A 
HETATM   24  C   UNL     1     -41.439  53.604 -52.594  1.00  0.00     0.001 A 
HETATM   25  C   UNL     1     -40.617  52.722 -53.288  1.00  0.00     0.000 A 
HETATM   26  C   UNL     1     -40.059  53.107 -54.503  1.00  0.00     0.001 A 
HETATM   27  C   UNL     1     -40.311  54.381 -55.021  1.00  0.00     0.009 A 
ENDBRANCH   1  22
TORSDOF 6
ENDMDL
MODEL 7
REMARK VINA RESULT:      -6.9     15.995     18.453
REMARK  6 active torsions:
REMARK  status: ('A' for Active; 'I' for Inactive)
REMARK    1  A    between atoms: C_2  and  C_3 
REMARK    2  A    between atoms: C_7  and  C_8 
REMARK       I    between atoms: C_8  and  N_9 
REMARK    3  A    between atoms: N_9  and  C_10 
REMARK    4  A    between atoms: C_10  and  C_11 
REMARK    5  A    between atoms: C_10  and  C_19 
REMARK    6  A    between atoms: C_14  and  O_15 
ROOT
HETATM    1  C   UNL     1     -33.999  40.957 -55.139  1.00  0.00     0.151 C 
ENDROOT
BRANCH   1   2
HETATM    2  N   UNL     1     -34.740  40.481 -53.983  1.00  0.00    -0.343 N 
HETATM    3  C   UNL     1     -35.474  41.309 -53.176  1.00  0.00     0.270 C 
HETATM    4  O   UNL     1     -35.562  42.519 -53.360  1.00  0.00    -0.266 OA
HETATM    5  H   UNL     1     -34.696  39.495 -53.785  1.00  0.00     0.163 HD
BRANCH   3   6
HETATM    6  C   UNL     1     -36.134  40.657 -52.075  1.00  0.00     0.119 A 
HETATM    7  N   UNL     1     -37.294  39.952 -52.255  1.00  0.00    -0.273 N 
HETATM    8  N   UNL     1     -37.785  39.404 -51.132  1.00  0.00    -0.179 NA
HETATM    9  H   UNL     1     -37.794  39.817 -53.129  1.00  0.00     0.189 HD
HETATM   10  C   UNL     1     -36.907  39.760 -50.189  1.00  0.00     0.056 A 
HETATM   11  C   UNL     1     -35.860  40.548 -50.725  1.00  0.00     0.065 A 
BRANCH  10  12
HETATM   12  C   UNL     1     -37.094  39.327 -48.774  1.00  0.00     0.056 C 
HETATM   13  C   UNL     1     -35.989  38.393 -48.304  1.00  0.00     0.011 C 
ENDBRANCH  10  12
ENDBRANCH   3   6
ENDBRANCH   1   2
BRANCH   1  14
HETATM   14  C   UNL     1     -34.940  40.912 -56.341  1.00  0.00    -0.031 A 
HETATM   15  C   UNL     1     -35.361  39.694 -56.899  1.00  0.00     0.012 A 
HETATM   16  C   UNL     1     -36.217  39.679 -58.004  1.00  0.00     0.037 A 
HETATM   17  C   UNL     1     -36.667  40.870 -58.574  1.00  0.00     0.068 A 
HETATM   18  C   UNL     1     -36.274  42.085 -58.013  1.00  0.00     0.037 A 
HETATM   19  C   UNL     1     -35.420  42.105 -56.903  1.00  0.00     0.012 A 
BRANCH  17  20
HETATM   20  O   UNL     1     -37.485  40.713 -59.658  1.00  0.00    -0.356 OA
HETATM   21  C   UNL     1     -37.106  39.722 -60.606  1.00  0.00     0.210 C 
ENDBRANCH  17  20
ENDBRANCH   1  14
BRANCH   1  22
HETATM   22  C   UNL     1     -32.684  40.199 -55.349  1.00  0.00    -0.031 A 
HETATM   23  C   UNL     1     -32.212  39.312 -54.362  1.00  0.00     0.009 A 
HETATM   24  C   UNL     1     -31.034  38.585 -54.545  1.00  0.00     0.001 A 
HETATM   25  C   UNL     1     -30.313  38.713 -55.728  1.00  0.00     0.000 A 
HETATM   26  C   UNL     1     -30.776  39.559 -56.731  1.00  0.00     0.001 A 
HETATM   27  C   UNL     1     -31.953  40.290 -56.547  1.00  0.00     0.009 A 
ENDBRANCH   1  22
TORSDOF 6
ENDMDL
MODEL 8
REMARK VINA RESULT:      -6.8      1.676      1.946
REMARK  6 active torsions:
REMARK  status: ('A' for Active; 'I' for Inactive)
REMARK    1  A    between atoms: C_2  and  C_3 
REMARK    2  A    between atoms: C_7  and  C_8 
REMARK       I    between atoms: C_8  and  N_9 
REMARK    3  A    between atoms: N_9  and  C_10 
REMARK    4  A    between atoms: C_10  and  C_11 
REMARK    5  A    between atoms: C_10  and  C_19 
REMARK    6  A    between atoms: C_14  and  O_15 
ROOT
HETATM    1  C   UNL     1     -42.700  56.099 -53.027  1.00  0.00     0.151 C 
ENDROOT
BRANCH   1   2
HETATM    2  N   UNL     1     -42.548  56.192 -54.469  1.00  0.00    -0.343 N 
HETATM    3  C   UNL     1     -43.560  56.590 -55.301  1.00  0.00     0.270 C 
HETATM    4  O   UNL     1     -44.678  56.895 -54.898  1.00  0.00    -0.266 OA
HETATM    5  H   UNL     1     -41.650  55.946 -54.852  1.00  0.00     0.163 HD
BRANCH   3   6
HETATM    6  C   UNL     1     -43.224  56.615 -56.701  1.00  0.00     0.119 A 
HETATM    7  N   UNL     1     -43.530  55.566 -57.526  1.00  0.00    -0.273 N 
HETATM    8  N   UNL     1     -43.151  55.740 -58.802  1.00  0.00    -0.179 NA
HETATM    9  H   UNL     1     -43.998  54.702 -57.265  1.00  0.00     0.189 HD
HETATM   10  C   UNL     1     -42.585  56.951 -58.807  1.00  0.00     0.056 A 
HETATM   11  C   UNL     1     -42.601  57.537 -57.518  1.00  0.00     0.065 A 
BRANCH  10  12
HETATM   12  C   UNL     1     -42.036  57.528 -60.068  1.00  0.00     0.056 C 
HETATM   13  C   UNL     1     -42.153  59.044 -60.109  1.00  0.00     0.011 C 
ENDBRANCH  10  12
ENDBRANCH   3   6
ENDBRANCH   1   2
BRANCH   1  14
HETATM   14  C   UNL     1     -42.621  57.515 -52.461  1.00  0.00    -0.031 A 
HETATM   15  C   UNL     1     -43.634  58.036 -51.640  1.00  0.00     0.012 A 
HETATM   16  C   UNL     1     -43.543  59.337 -51.140  1.00  0.00     0.037 A 
HETATM   17  C   UNL     1     -42.447  60.144 -51.449  1.00  0.00     0.068 A 
HETATM   18  C   UNL     1     -41.423  59.629 -52.244  1.00  0.00     0.037 A 
HETATM   19  C   UNL     1     -41.509  58.323 -52.743  1.00  0.00     0.012 A 
BRANCH  17  20
HETATM   20  O   UNL     1     -42.490  61.399 -50.908  1.00  0.00    -0.356 OA
HETATM   21  C   UNL     1     -43.361  62.333 -51.534  1.00  0.00     0.210 C 
ENDBRANCH  17  20
ENDBRANCH   1  14
BRANCH   1  22
HETATM   22  C   UNL     1     -41.708  55.118 -52.392  1.00  0.00    -0.031 A 
HETATM   23  C   UNL     1     -41.340  55.259 -51.040  1.00  0.00     0.009 A 
HETATM   24  C   UNL     1     -40.462  54.359 -50.430  1.00  0.00     0.001 A 
HETATM   25  C   UNL     1     -39.951  53.287 -51.154  1.00  0.00     0.000 A 
HETATM   26  C   UNL     1     -40.324  53.109 -52.482  1.00  0.00     0.001 A 
HETATM   27  C   UNL     1     -41.199  54.011 -53.095  1.00  0.00     0.009 A 
ENDBRANCH   1  22
TORSDOF 6
ENDMDL
MODEL 9
REMARK VINA RESULT:      -6.6      3.168      6.839
REMARK  6 active torsions:
REMARK  status: ('A' for Active; 'I' for Inactive)
REMARK    1  A    between atoms: C_2  and  C_3 
REMARK    2  A    between atoms: C_7  and  C_8 
REMARK       I    between atoms: C_8  and  N_9 
REMARK    3  A    between atoms: N_9  and  C_10 
REMARK    4  A    between atoms: C_10  and  C_11 
REMARK    5  A    between atoms: C_10  and  C_19 
REMARK    6  A    between atoms: C_14  and  O_15 
ROOT
HETATM    1  C   UNL     1     -41.752  57.193 -54.717  1.00  0.00     0.151 C 
ENDROOT
BRANCH   1   2
HETATM    2  N   UNL     1     -42.168  58.080 -53.643  1.00  0.00    -0.343 N 
HETATM    3  C   UNL     1     -41.333  59.006 -53.077  1.00  0.00     0.270 C 
HETATM    4  O   UNL     1     -40.167  59.160 -53.426  1.00  0.00    -0.266 OA
HETATM    5  H   UNL     1     -43.115  57.989 -53.315  1.00  0.00     0.163 HD
BRANCH   3   6
HETATM    6  C   UNL     1     -41.921  59.790 -52.022  1.00  0.00     0.119 A 
HETATM    7  N   UNL     1     -41.835  59.400 -50.712  1.00  0.00    -0.273 N 
HETATM    8  N   UNL     1     -42.433  60.236 -49.848  1.00  0.00    -0.179 NA
HETATM    9  H   UNL     1     -41.379  58.565 -50.354  1.00  0.00     0.189 HD
HETATM   10  C   UNL     1     -42.918  61.210 -50.626  1.00  0.00     0.056 A 
HETATM   11  C   UNL     1     -42.629  60.975 -51.992  1.00  0.00     0.065 A 
BRANCH  10  12
HETATM   12  C   UNL     1     -43.655  62.361 -50.030  1.00  0.00     0.056 C 
HETATM   13  C   UNL     1     -42.863  63.657 -50.108  1.00  0.00     0.011 C 
ENDBRANCH  10  12
ENDBRANCH   3   6
ENDBRANCH   1   2
BRANCH   1  14
HETATM   14  C   UNL     1     -42.766  57.332 -55.850  1.00  0.00    -0.031 A 
HETATM   15  C   UNL     1     -42.556  56.730 -57.101  1.00  0.00     0.012 A 
HETATM   16  C   UNL     1     -43.495  56.878 -58.125  1.00  0.00     0.037 A 
HETATM   17  C   UNL     1     -44.655  57.627 -57.926  1.00  0.00     0.068 A 
HETATM   18  C   UNL     1     -44.885  58.210 -56.680  1.00  0.00     0.037 A 
HETATM   19  C   UNL     1     -43.948  58.060 -55.649  1.00  0.00     0.012 A 
BRANCH  17  20
HETATM   20  O   UNL     1     -45.481  57.704 -59.013  1.00  0.00    -0.356 OA
HETATM   21  C   UNL     1     -46.876  57.578 -58.766  1.00  0.00     0.210 C 
ENDBRANCH  17  20
ENDBRANCH   1  14
BRANCH   1  22
HETATM   22  C   UNL     1     -41.543  55.750 -54.242  1.00  0.00    -0.031 A 
HETATM   23  C   UNL     1     -40.499  54.972 -54.778  1.00  0.00     0.009 A 
HETATM   24  C   UNL     1     -40.269  53.666 -54.338  1.00  0.00     0.001 A 
HETATM   25  C   UNL     1     -41.065  53.119 -53.336  1.00  0.00     0.000 A 
HETATM   26  C   UNL     1     -42.083  53.879 -52.770  1.00  0.00     0.001 A 
HETATM   27  C   UNL     1     -42.316  55.184 -53.212  1.00  0.00     0.009 A 
ENDBRANCH   1  22
TORSDOF 6
ENDMDL
MODEL 10
REMARK VINA RESULT:      -6.6     15.670     18.374
REMARK  6 active torsions:
REMARK  status: ('A' for Active; 'I' for Inactive)
REMARK    1  A    between atoms: C_2  and  C_3 
REMARK    2  A    between atoms: C_7  and  C_8 
REMARK       I    between atoms: C_8  and  N_9 
REMARK    3  A    between atoms: N_9  and  C_10 
REMARK    4  A    between atoms: C_10  and  C_11 
REMARK    5  A    between atoms: C_10  and  C_19 
REMARK    6  A    between atoms: C_14  and  O_15 
ROOT
HETATM    1  C   UNL     1     -34.820  40.719 -56.965  1.00  0.00     0.151 C 
ENDROOT
BRANCH   1   2
HETATM    2  N   UNL     1     -35.680  40.076 -57.944  1.00  0.00    -0.343 N 
HETATM    3  C   UNL     1     -36.568  40.767 -58.724  1.00  0.00     0.270 C 
HETATM    4  O   UNL     1     -36.713  41.984 -58.657  1.00  0.00    -0.266 OA
HETATM    5  H   UNL     1     -35.605  39.076 -58.034  1.00  0.00     0.163 HD
BRANCH   3   6
HETATM    6  C   UNL     1     -37.340  39.959 -59.631  1.00  0.00     0.119 A 
HETATM    7  N   UNL     1     -37.099  39.972 -60.979  1.00  0.00    -0.273 N 
HETATM    8  N   UNL     1     -37.903  39.165 -61.690  1.00  0.00    -0.179 NA
HETATM    9  H   UNL     1     -36.395  40.520 -61.466  1.00  0.00     0.189 HD
HETATM   10  C   UNL     1     -38.690  38.601 -60.768  1.00  0.00     0.056 A 
HETATM   11  C   UNL     1     -38.382  39.067 -59.467  1.00  0.00     0.065 A 
BRANCH  10  12
HETATM   12  C   UNL     1     -39.732  37.610 -61.163  1.00  0.00     0.056 C 
HETATM   13  C   UNL     1     -41.121  38.014 -60.694  1.00  0.00     0.011 C 
ENDBRANCH  10  12
ENDBRANCH   3   6
ENDBRANCH   1   2
BRANCH   1  14
HETATM   14  C   UNL     1     -33.536  39.897 -56.868  1.00  0.00    -0.031 A 
HETATM   15  C   UNL     1     -32.400  40.386 -56.204  1.00  0.00     0.012 A 
HETATM   16  C   UNL     1     -31.234  39.619 -56.135  1.00  0.00     0.037 A 
HETATM   17  C   UNL     1     -31.176  38.356 -56.725  1.00  0.00     0.068 A 
HETATM   18  C   UNL     1     -32.307  37.850 -57.367  1.00  0.00     0.037 A 
HETATM   19  C   UNL     1     -33.479  38.614 -57.434  1.00  0.00     0.012 A 
BRANCH  17  20
HETATM   20  O   UNL     1     -29.973  37.719 -56.597  1.00  0.00    -0.356 OA
HETATM   21  C   UNL     1     -29.114  37.745 -57.730  1.00  0.00     0.210 C 
ENDBRANCH  17  20
ENDBRANCH   1  14
BRANCH   1  22
HETATM   22  C   UNL     1     -35.521  40.939 -55.620  1.00  0.00    -0.031 A 
HETATM   23  C   UNL     1     -36.220  39.882 -55.003  1.00  0.00     0.009 A 
HETATM   24  C   UNL     1     -36.838  40.050 -53.762  1.00  0.00     0.001 A 
HETATM   25  C   UNL     1     -36.753  41.271 -53.101  1.00  0.00     0.000 A 
HETATM   26  C   UNL     1     -36.042  42.320 -53.675  1.00  0.00     0.001 A 
HETATM   27  C   UNL     1     -35.426  42.155 -54.919  1.00  0.00     0.009 A 
ENDBRANCH   1  22
TORSDOF 6
ENDMDL
