MODEL 1
REMARK VINA RESULT:      -8.3      0.000      0.000
REMARK  7 active torsions:
REMARK  status: ('A' for Active; 'I' for Inactive)
REMARK    1  A    between atoms: C_2  and  O_3 
REMARK    2  A    between atoms: O_3  and  C_4 
REMARK    3  A    between atoms: C_7  and  N_8 
REMARK    4  A    between atoms: N_8  and  C_9 
REMARK    5  A    between atoms: C_9  and  C_10 
REMARK       I    between atoms: C_10  and  N_11 
REMARK    6  A    between atoms: N_11  and  N_12 
REMARK    7  A    between atoms: C_13  and  C_14 
ROOT
HETATM    1  C   UNL     1     -42.264  55.931 -56.020  1.00  0.00     0.255 C 
HETATM    2  N   UNL     1     -41.304  56.239 -55.053  1.00  0.00    -0.246 N 
HETATM    3  O   UNL     1     -42.776  54.826 -56.187  1.00  0.00    -0.270 OA
HETATM    4  H   UNL     1     -40.758  57.085 -55.186  1.00  0.00     0.192 HD
ENDROOT
BRANCH   2   5
HETATM    5  N   UNL     1     -40.650  55.289 -54.299  1.00  0.00    -0.184 NA
HETATM    6  C   UNL     1     -41.304  54.744 -53.321  1.00  0.00     0.153 C 
BRANCH   6   7
HETATM    7  C   UNL     1     -40.708  53.670 -52.544  1.00  0.00     0.018 A 
HETATM    8  C   UNL     1     -40.356  52.337 -52.946  1.00  0.00     0.004 A 
HETATM    9  C   UNL     1     -39.841  51.685 -51.825  1.00  0.00     0.043 A 
HETATM   10  C   UNL     1     -40.435  51.612 -54.155  1.00  0.00     0.014 A 
HETATM   11  C   UNL     1     -39.405  50.354 -51.850  1.00  0.00     0.030 A 
HETATM   12  N   UNL     1     -39.870  52.581 -50.785  1.00  0.00    -0.358 N 
HETATM   13  C   UNL     1     -39.497  49.662 -53.061  1.00  0.00     0.002 A 
HETATM   14  C   UNL     1     -40.004  50.281 -54.200  1.00  0.00     0.001 A 
HETATM   15  H   UNL     1     -39.558  52.370 -49.848  1.00  0.00     0.166 HD
HETATM   16  C   UNL     1     -40.391  53.783 -51.195  1.00  0.00     0.018 A 
HETATM   17  C   UNL     1     -40.545  54.918 -50.248  1.00  0.00     0.069 C 
ENDBRANCH   6   7
ENDBRANCH   2   5
BRANCH   1  18
HETATM   18  C   UNL     1     -42.639  57.137 -56.887  1.00  0.00     0.224 C 
BRANCH  18  19
HETATM   19  N   UNL     1     -42.407  56.856 -58.303  1.00  0.00    -0.381 N 
HETATM   20  H   UNL     1     -41.547  56.357 -58.516  1.00  0.00     0.160 HD
BRANCH  19  21
HETATM   21  C   UNL     1     -43.463  56.567 -59.163  1.00  0.00     0.028 A 
HETATM   22  C   UNL     1     -43.589  55.361 -59.862  1.00  0.00     0.032 A 
HETATM   23  C   UNL     1     -44.724  55.073 -60.635  1.00  0.00     0.039 A 
HETATM   24  C   UNL     1     -45.776  55.982 -60.704  1.00  0.00     0.068 A 
HETATM   25  C   UNL     1     -45.673  57.181 -60.002  1.00  0.00     0.039 A 
HETATM   26  C   UNL     1     -44.538  57.463 -59.232  1.00  0.00     0.032 A 
BRANCH  24  27
HETATM   27  O   UNL     1     -46.941  55.816 -61.400  1.00  0.00    -0.352 OA
BRANCH  27  28
HETATM   28  C   UNL     1     -47.795  56.955 -61.508  1.00  0.00     0.171 C 
HETATM   29  C   UNL     1     -48.545  56.859 -62.824  1.00  0.00     0.034 C 
ENDBRANCH  27  28
ENDBRANCH  24  27
ENDBRANCH  19  21
ENDBRANCH  18  19
ENDBRANCH   1  18
TORSDOF 7
ENDMDL
MODEL 2
REMARK VINA RESULT:      -7.9      2.398      3.349
REMARK  7 active torsions:
REMARK  status: ('A' for Active; 'I' for Inactive)
REMARK    1  A    between atoms: C_2  and  O_3 
REMARK    2  A    between atoms: O_3  and  C_4 
REMARK    3  A    between atoms: C_7  and  N_8 
REMARK    4  A    between atoms: N_8  and  C_9 
REMARK    5  A    between atoms: C_9  and  C_10 
REMARK       I    between atoms: C_10  and  N_11 
REMARK    6  A    between atoms: N_11  and  N_12 
REMARK    7  A    between atoms: C_13  and  C_14 
ROOT
HETATM    1  C   UNL     1     -41.218  58.910 -53.455  1.00  0.00     0.255 C 
HETATM    2  N   UNL     1     -41.747  57.623 -53.324  1.00  0.00    -0.246 N 
HETATM    3  O   UNL     1     -40.036  59.213 -53.298  1.00  0.00    -0.270 OA
HETATM    4  H   UNL     1     -42.751  57.538 -53.198  1.00  0.00     0.192 HD
ENDROOT
BRANCH   2   5
HETATM    5  N   UNL     1     -41.046  56.562 -52.792  1.00  0.00    -0.184 NA
HETATM    6  C   UNL     1     -41.730  55.558 -52.338  1.00  0.00     0.153 C 
BRANCH   6   7
HETATM    7  C   UNL     1     -41.055  54.368 -51.848  1.00  0.00     0.018 A 
HETATM    8  C   UNL     1     -40.632  53.197 -52.565  1.00  0.00     0.004 A 
HETATM    9  C   UNL     1     -40.057  52.327 -51.639  1.00  0.00     0.043 A 
HETATM   10  C   UNL     1     -40.691  52.783 -53.914  1.00  0.00     0.014 A 
HETATM   11  C   UNL     1     -39.542  51.072 -51.989  1.00  0.00     0.030 A 
HETATM   12  N   UNL     1     -40.118  52.939 -50.412  1.00  0.00    -0.358 N 
HETATM   13  C   UNL     1     -39.616  50.689 -53.331  1.00  0.00     0.002 A 
HETATM   14  C   UNL     1     -40.182  51.533 -54.283  1.00  0.00     0.001 A 
HETATM   15  H   UNL     1     -39.776  52.528 -49.556  1.00  0.00     0.166 HD
HETATM   16  C   UNL     1     -40.719  54.169 -50.515  1.00  0.00     0.018 A 
HETATM   17  C   UNL     1     -40.922  55.029 -49.319  1.00  0.00     0.069 C 
ENDBRANCH   6   7
ENDBRANCH   2   5
BRANCH   1  18
HETATM   18  C   UNL     1     -42.278  59.951 -53.826  1.00  0.00     0.224 C 
BRANCH  18  19
HETATM   19  N   UNL     1     -42.094  60.419 -55.198  1.00  0.00    -0.381 N 
HETATM   20  H   UNL     1     -41.253  60.966 -55.366  1.00  0.00     0.160 HD
BRANCH  19  21
HETATM   21  C   UNL     1     -42.501  59.648 -56.284  1.00  0.00     0.028 A 
HETATM   22  C   UNL     1     -41.775  59.539 -57.475  1.00  0.00     0.032 A 
HETATM   23  C   UNL     1     -42.171  58.668 -58.501  1.00  0.00     0.039 A 
HETATM   24  C   UNL     1     -43.296  57.863 -58.344  1.00  0.00     0.068 A 
HETATM   25  C   UNL     1     -44.022  57.950 -57.158  1.00  0.00     0.039 A 
HETATM   26  C   UNL     1     -43.622  58.821 -56.138  1.00  0.00     0.032 A 
BRANCH  24  27
HETATM   27  O   UNL     1     -43.775  56.962 -59.253  1.00  0.00    -0.352 OA
BRANCH  27  28
HETATM   28  C   UNL     1     -43.594  55.580 -58.947  1.00  0.00     0.171 C 
HETATM   29  C   UNL     1     -44.484  54.771 -59.873  1.00  0.00     0.034 C 
ENDBRANCH  27  28
ENDBRANCH  24  27
ENDBRANCH  19  21
ENDBRANCH  18  19
ENDBRANCH   1  18
TORSDOF 7
ENDMDL
MODEL 3
REMARK VINA RESULT:      -7.7      5.546      7.657
REMARK  7 active torsions:
REMARK  status: ('A' for Active; 'I' for Inactive)
REMARK    1  A    between atoms: C_2  and  O_3 
REMARK    2  A    between atoms: O_3  and  C_4 
REMARK    3  A    between atoms: C_7  and  N_8 
REMARK    4  A    between atoms: N_8  and  C_9 
REMARK    5  A    between atoms: C_9  and  C_10 
REMARK       I    between atoms: C_10  and  N_11 
REMARK    6  A    between atoms: N_11  and  N_12 
REMARK    7  A    between atoms: C_13  and  C_14 
ROOT
HETATM    1  C   UNL     1     -41.423  59.071 -53.397  1.00  0.00     0.255 C 
HETATM    2  N   UNL     1     -41.999  57.846 -53.052  1.00  0.00    -0.246 N 
HETATM    3  O   UNL     1     -40.217  59.311 -53.412  1.00  0.00    -0.270 OA
HETATM    4  H   UNL     1     -42.984  57.843 -52.806  1.00  0.00     0.192 HD
ENDROOT
BRANCH   2   5
HETATM    5  N   UNL     1     -41.297  56.809 -52.477  1.00  0.00    -0.184 NA
HETATM    6  C   UNL     1     -41.893  55.662 -52.380  1.00  0.00     0.153 C 
BRANCH   6   7
HETATM    7  C   UNL     1     -41.181  54.502 -51.868  1.00  0.00     0.018 A 
HETATM    8  C   UNL     1     -40.686  53.351 -52.570  1.00  0.00     0.004 A 
HETATM    9  C   UNL     1     -40.100  52.507 -51.626  1.00  0.00     0.043 A 
HETATM   10  C   UNL     1     -40.687  52.934 -53.919  1.00  0.00     0.014 A 
HETATM   11  C   UNL     1     -39.520  51.276 -51.958  1.00  0.00     0.030 A 
HETATM   12  N   UNL     1     -40.224  53.118 -50.402  1.00  0.00    -0.358 N 
HETATM   13  C   UNL     1     -39.539  50.890 -53.301  1.00  0.00     0.002 A 
HETATM   14  C   UNL     1     -40.112  51.707 -54.271  1.00  0.00     0.001 A 
HETATM   15  H   UNL     1     -39.889  52.722 -49.536  1.00  0.00     0.166 HD
HETATM   16  C   UNL     1     -40.875  54.320 -50.525  1.00  0.00     0.018 A 
HETATM   17  C   UNL     1     -41.150  55.171 -49.338  1.00  0.00     0.069 C 
ENDBRANCH   6   7
ENDBRANCH   2   5
BRANCH   1  18
HETATM   18  C   UNL     1     -42.464  60.131 -53.772  1.00  0.00     0.224 C 
BRANCH  18  19
HETATM   19  N   UNL     1     -42.594  61.133 -52.715  1.00  0.00    -0.381 N 
HETATM   20  H   UNL     1     -42.429  62.095 -53.000  1.00  0.00     0.160 HD
BRANCH  19  21
HETATM   21  C   UNL     1     -43.536  60.990 -51.700  1.00  0.00     0.028 A 
HETATM   22  C   UNL     1     -44.721  60.260 -51.836  1.00  0.00     0.032 A 
HETATM   23  C   UNL     1     -45.590  60.057 -50.753  1.00  0.00     0.039 A 
HETATM   24  C   UNL     1     -45.275  60.564 -49.495  1.00  0.00     0.068 A 
HETATM   25  C   UNL     1     -44.092  61.282 -49.339  1.00  0.00     0.039 A 
HETATM   26  C   UNL     1     -43.228  61.481 -50.424  1.00  0.00     0.032 A 
BRANCH  24  27
HETATM   27  O   UNL     1     -46.020  60.421 -48.358  1.00  0.00    -0.352 OA
BRANCH  27  28
HETATM   28  C   UNL     1     -45.674  61.254 -47.252  1.00  0.00     0.171 C 
HETATM   29  C   UNL     1     -46.885  61.355 -46.341  1.00  0.00     0.034 C 
ENDBRANCH  27  28
ENDBRANCH  24  27
ENDBRANCH  19  21
ENDBRANCH  18  19
ENDBRANCH   1  18
TORSDOF 7
ENDMDL
MODEL 4
REMARK VINA RESULT:      -7.4      6.615      9.132
REMARK  7 active torsions:
REMARK  status: ('A' for Active; 'I' for Inactive)
REMARK    1  A    between atoms: C_2  and  O_3 
REMARK    2  A    between atoms: O_3  and  C_4 
REMARK    3  A    between atoms: C_7  and  N_8 
REMARK    4  A    between atoms: N_8  and  C_9 
REMARK    5  A    between atoms: C_9  and  C_10 
REMARK       I    between atoms: C_10  and  N_11 
REMARK    6  A    between atoms: N_11  and  N_12 
REMARK    7  A    between atoms: C_13  and  C_14 
ROOT
HETATM    1  C   UNL     1     -41.648  59.366 -51.456  1.00  0.00     0.255 C 
HETATM    2  N   UNL     1     -42.088  58.156 -50.913  1.00  0.00    -0.246 N 
HETATM    3  O   UNL     1     -40.623  59.517 -52.120  1.00  0.00    -0.270 OA
HETATM    4  H   UNL     1     -42.774  58.199 -50.166  1.00  0.00     0.192 HD
ENDROOT
BRANCH   2   5
HETATM    5  N   UNL     1     -41.317  57.015 -50.872  1.00  0.00    -0.184 NA
HETATM    6  C   UNL     1     -41.932  55.874 -50.907  1.00  0.00     0.153 C 
BRANCH   6   7
HETATM    7  C   UNL     1     -41.179  54.632 -50.960  1.00  0.00     0.018 A 
HETATM    8  C   UNL     1     -40.822  53.827 -52.094  1.00  0.00     0.004 A 
HETATM    9  C   UNL     1     -40.121  52.719 -51.616  1.00  0.00     0.043 A 
HETATM   10  C   UNL     1     -41.036  53.923 -53.487  1.00  0.00     0.014 A 
HETATM   11  C   UNL     1     -39.627  51.710 -52.452  1.00  0.00     0.030 A 
HETATM   12  N   UNL     1     -40.045  52.844 -50.251  1.00  0.00    -0.358 N 
HETATM   13  C   UNL     1     -39.856  51.832 -53.825  1.00  0.00     0.002 A 
HETATM   14  C   UNL     1     -40.550  52.924 -54.338  1.00  0.00     0.001 A 
HETATM   15  H   UNL     1     -39.594  52.175 -49.646  1.00  0.00     0.166 HD
HETATM   16  C   UNL     1     -40.679  53.988 -49.834  1.00  0.00     0.018 A 
HETATM   17  C   UNL     1     -40.752  54.346 -48.393  1.00  0.00     0.069 C 
ENDBRANCH   6   7
ENDBRANCH   2   5
BRANCH   1  18
HETATM   18  C   UNL     1     -42.589  60.533 -51.142  1.00  0.00     0.224 C 
BRANCH  18  19
HETATM   19  N   UNL     1     -43.244  60.344 -49.849  1.00  0.00    -0.381 N 
HETATM   20  H   UNL     1     -42.676  59.901 -49.131  1.00  0.00     0.160 HD
BRANCH  19  21
HETATM   21  C   UNL     1     -44.161  61.271 -49.363  1.00  0.00     0.028 A 
HETATM   22  C   UNL     1     -45.290  60.928 -48.612  1.00  0.00     0.032 A 
HETATM   23  C   UNL     1     -46.129  61.905 -48.055  1.00  0.00     0.039 A 
HETATM   24  C   UNL     1     -45.838  63.256 -48.218  1.00  0.00     0.068 A 
HETATM   25  C   UNL     1     -44.710  63.615 -48.951  1.00  0.00     0.039 A 
HETATM   26  C   UNL     1     -43.876  62.635 -49.504  1.00  0.00     0.032 A 
BRANCH  24  27
HETATM   27  O   UNL     1     -46.558  64.302 -47.712  1.00  0.00    -0.352 OA
BRANCH  27  28
HETATM   28  C   UNL     1     -47.304  64.055 -46.520  1.00  0.00     0.171 C 
HETATM   29  C   UNL     1     -46.446  64.458 -45.334  1.00  0.00     0.034 C 
ENDBRANCH  27  28
ENDBRANCH  24  27
ENDBRANCH  19  21
ENDBRANCH  18  19
ENDBRANCH   1  18
TORSDOF 7
ENDMDL
MODEL 5
REMARK VINA RESULT:      -7.4      3.434      8.950
REMARK  7 active torsions:
REMARK  status: ('A' for Active; 'I' for Inactive)
REMARK    1  A    between atoms: C_2  and  O_3 
REMARK    2  A    between atoms: O_3  and  C_4 
REMARK    3  A    between atoms: C_7  and  N_8 
REMARK    4  A    between atoms: N_8  and  C_9 
REMARK    5  A    between atoms: C_9  and  C_10 
REMARK       I    between atoms: C_10  and  N_11 
REMARK    6  A    between atoms: N_11  and  N_12 
REMARK    7  A    between atoms: C_13  and  C_14 
ROOT
HETATM    1  C   UNL     1     -43.767  57.100 -51.907  1.00  0.00     0.255 C 
HETATM    2  N   UNL     1     -44.072  56.532 -53.147  1.00  0.00    -0.246 N 
HETATM    3  O   UNL     1     -43.555  58.294 -51.704  1.00  0.00    -0.270 OA
HETATM    4  H   UNL     1     -43.950  55.529 -53.248  1.00  0.00     0.192 HD
ENDROOT
BRANCH   2   5
HETATM    5  N   UNL     1     -43.963  57.210 -54.342  1.00  0.00    -0.184 NA
HETATM    6  C   UNL     1     -42.807  57.209 -54.930  1.00  0.00     0.153 C 
BRANCH   6   7
HETATM    7  C   UNL     1     -42.645  57.824 -56.237  1.00  0.00     0.018 A 
HETATM    8  C   UNL     1     -42.736  57.234 -57.542  1.00  0.00     0.004 A 
HETATM    9  C   UNL     1     -42.471  58.239 -58.474  1.00  0.00     0.043 A 
HETATM   10  C   UNL     1     -43.008  55.937 -58.029  1.00  0.00     0.014 A 
HETATM   11  C   UNL     1     -42.463  58.015 -59.857  1.00  0.00     0.030 A 
HETATM   12  N   UNL     1     -42.236  59.394 -57.770  1.00  0.00    -0.358 N 
HETATM   13  C   UNL     1     -42.734  56.720 -60.307  1.00  0.00     0.002 A 
HETATM   14  C   UNL     1     -43.004  55.693 -59.407  1.00  0.00     0.001 A 
HETATM   15  H   UNL     1     -42.011  60.281 -58.197  1.00  0.00     0.166 HD
HETATM   16  C   UNL     1     -42.332  59.166 -56.420  1.00  0.00     0.018 A 
HETATM   17  C   UNL     1     -42.103  60.257 -55.437  1.00  0.00     0.069 C 
ENDBRANCH   6   7
ENDBRANCH   2   5
BRANCH   1  18
HETATM   18  C   UNL     1     -43.720  56.065 -50.778  1.00  0.00     0.224 C 
BRANCH  18  19
HETATM   19  N   UNL     1     -42.357  55.906 -50.272  1.00  0.00    -0.381 N 
HETATM   20  H   UNL     1     -42.209  56.206 -49.312  1.00  0.00     0.160 HD
BRANCH  19  21
HETATM   21  C   UNL     1     -41.564  54.831 -50.664  1.00  0.00     0.028 A 
HETATM   22  C   UNL     1     -41.087  53.855 -49.784  1.00  0.00     0.032 A 
HETATM   23  C   UNL     1     -40.379  52.733 -50.241  1.00  0.00     0.039 A 
HETATM   24  C   UNL     1     -40.155  52.551 -51.602  1.00  0.00     0.068 A 
HETATM   25  C   UNL     1     -40.636  53.506 -52.494  1.00  0.00     0.039 A 
HETATM   26  C   UNL     1     -41.342  54.624 -52.032  1.00  0.00     0.032 A 
BRANCH  24  27
HETATM   27  O   UNL     1     -39.501  51.498 -52.178  1.00  0.00    -0.352 OA
BRANCH  27  28
HETATM   28  C   UNL     1     -39.478  51.456 -53.605  1.00  0.00     0.171 C 
HETATM   29  C   UNL     1     -39.565  50.003 -54.035  1.00  0.00     0.034 C 
ENDBRANCH  27  28
ENDBRANCH  24  27
ENDBRANCH  19  21
ENDBRANCH  18  19
ENDBRANCH   1  18
TORSDOF 7
ENDMDL
MODEL 6
REMARK VINA RESULT:      -7.1     14.730     16.379
REMARK  7 active torsions:
REMARK  status: ('A' for Active; 'I' for Inactive)
REMARK    1  A    between atoms: C_2  and  O_3 
REMARK    2  A    between atoms: O_3  and  C_4 
REMARK    3  A    between atoms: C_7  and  N_8 
REMARK    4  A    between atoms: N_8  and  C_9 
REMARK    5  A    between atoms: C_9  and  C_10 
REMARK       I    between atoms: C_10  and  N_11 
REMARK    6  A    between atoms: N_11  and  N_12 
REMARK    7  A    between atoms: C_13  and  C_14 
ROOT
HETATM    1  C   UNL     1     -36.798  41.912 -57.779  1.00  0.00     0.255 C 
HETATM    2  N   UNL     1     -35.422  42.113 -57.639  1.00  0.00    -0.246 N 
HETATM    3  O   UNL     1     -37.594  41.769 -56.852  1.00  0.00    -0.270 OA
HETATM    4  H   UNL     1     -34.837  41.938 -58.450  1.00  0.00     0.192 HD
ENDROOT
BRANCH   2   5
HETATM    5  N   UNL     1     -34.748  41.964 -56.446  1.00  0.00    -0.184 NA
HETATM    6  C   UNL     1     -34.384  40.766 -56.108  1.00  0.00     0.153 C 
BRANCH   6   7
HETATM    7  C   UNL     1     -33.590  40.548 -54.910  1.00  0.00     0.018 A 
HETATM    8  C   UNL     1     -33.931  40.777 -53.534  1.00  0.00     0.004 A 
HETATM    9  C   UNL     1     -32.816  40.436 -52.767  1.00  0.00     0.043 A 
HETATM   10  C   UNL     1     -35.077  41.254 -52.861  1.00  0.00     0.014 A 
HETATM   11  C   UNL     1     -32.788  40.547 -51.371  1.00  0.00     0.030 A 
HETATM   12  N   UNL     1     -31.840  40.011 -53.633  1.00  0.00    -0.358 N 
HETATM   13  C   UNL     1     -33.937  41.023 -50.733  1.00  0.00     0.002 A 
HETATM   14  C   UNL     1     -35.068  41.371 -51.466  1.00  0.00     0.001 A 
HETATM   15  H   UNL     1     -30.921  39.707 -53.346  1.00  0.00     0.166 HD
HETATM   16  C   UNL     1     -32.284  40.073 -54.931  1.00  0.00     0.018 A 
HETATM   17  C   UNL     1     -31.407  39.681 -56.065  1.00  0.00     0.069 C 
ENDBRANCH   6   7
ENDBRANCH   2   5
BRANCH   1  18
HETATM   18  C   UNL     1     -37.246  41.884 -59.243  1.00  0.00     0.224 C 
BRANCH  18  19
HETATM   19  N   UNL     1     -36.782  40.669 -59.910  1.00  0.00    -0.381 N 
HETATM   20  H   UNL     1     -35.929  40.262 -59.535  1.00  0.00     0.160 HD
BRANCH  19  21
HETATM   21  C   UNL     1     -37.683  39.739 -60.422  1.00  0.00     0.028 A 
HETATM   22  C   UNL     1     -37.632  39.246 -61.730  1.00  0.00     0.032 A 
HETATM   23  C   UNL     1     -38.497  38.232 -62.169  1.00  0.00     0.039 A 
HETATM   24  C   UNL     1     -39.419  37.668 -61.293  1.00  0.00     0.068 A 
HETATM   25  C   UNL     1     -39.473  38.137 -59.983  1.00  0.00     0.039 A 
HETATM   26  C   UNL     1     -38.608  39.149 -59.550  1.00  0.00     0.032 A 
BRANCH  24  27
HETATM   27  O   UNL     1     -40.301  36.665 -61.587  1.00  0.00    -0.352 OA
BRANCH  27  28
HETATM   28  C   UNL     1     -41.156  36.867 -62.711  1.00  0.00     0.171 C 
HETATM   29  C   UNL     1     -42.131  37.979 -62.367  1.00  0.00     0.034 C 
ENDBRANCH  27  28
ENDBRANCH  24  27
ENDBRANCH  19  21
ENDBRANCH  18  19
ENDBRANCH   1  18
TORSDOF 7
ENDMDL
MODEL 7
REMARK VINA RESULT:      -7.1      2.880      9.933
REMARK  7 active torsions:
REMARK  status: ('A' for Active; 'I' for Inactive)
REMARK    1  A    between atoms: C_2  and  O_3 
REMARK    2  A    between atoms: O_3  and  C_4 
REMARK    3  A    between atoms: C_7  and  N_8 
REMARK    4  A    between atoms: N_8  and  C_9 
REMARK    5  A    between atoms: C_9  and  C_10 
REMARK       I    between atoms: C_10  and  N_11 
REMARK    6  A    between atoms: N_11  and  N_12 
REMARK    7  A    between atoms: C_13  and  C_14 
ROOT
HETATM    1  C   UNL     1     -44.115  57.413 -54.183  1.00  0.00     0.255 C 
HETATM    2  N   UNL     1     -44.368  56.868 -55.445  1.00  0.00    -0.246 N 
HETATM    3  O   UNL     1     -44.206  58.604 -53.891  1.00  0.00    -0.270 OA
HETATM    4  H   UNL     1     -43.996  55.943 -55.640  1.00  0.00     0.192 HD
ENDROOT
BRANCH   2   5
HETATM    5  N   UNL     1     -44.546  57.628 -56.581  1.00  0.00    -0.184 NA
HETATM    6  C   UNL     1     -43.969  57.224 -57.670  1.00  0.00     0.153 C 
BRANCH   6   7
HETATM    7  C   UNL     1     -44.189  57.925 -58.924  1.00  0.00     0.018 A 
HETATM    8  C   UNL     1     -43.410  58.963 -59.539  1.00  0.00     0.004 A 
HETATM    9  C   UNL     1     -44.056  59.323 -60.722  1.00  0.00     0.043 A 
HETATM   10  C   UNL     1     -42.220  59.644 -59.201  1.00  0.00     0.014 A 
HETATM   11  C   UNL     1     -43.578  60.323 -61.579  1.00  0.00     0.030 A 
HETATM   12  N   UNL     1     -45.176  58.536 -60.830  1.00  0.00    -0.358 N 
HETATM   13  C   UNL     1     -42.399  60.980 -61.217  1.00  0.00     0.002 A 
HETATM   14  C   UNL     1     -41.726  60.646 -60.045  1.00  0.00     0.001 A 
HETATM   15  H   UNL     1     -45.834  58.590 -61.594  1.00  0.00     0.166 HD
HETATM   16  C   UNL     1     -45.277  57.688 -59.755  1.00  0.00     0.018 A 
HETATM   17  C   UNL     1     -46.416  56.741 -59.626  1.00  0.00     0.069 C 
ENDBRANCH   6   7
ENDBRANCH   2   5
BRANCH   1  18
HETATM   18  C   UNL     1     -43.699  56.357 -53.155  1.00  0.00     0.224 C 
BRANCH  18  19
HETATM   19  N   UNL     1     -43.622  55.031 -53.768  1.00  0.00    -0.381 N 
HETATM   20  H   UNL     1     -43.925  54.979 -54.737  1.00  0.00     0.160 HD
BRANCH  19  21
HETATM   21  C   UNL     1     -42.602  54.143 -53.438  1.00  0.00     0.028 A 
HETATM   22  C   UNL     1     -41.917  53.363 -54.376  1.00  0.00     0.032 A 
HETATM   23  C   UNL     1     -40.826  52.560 -54.010  1.00  0.00     0.039 A 
HETATM   24  C   UNL     1     -40.379  52.542 -52.692  1.00  0.00     0.068 A 
HETATM   25  C   UNL     1     -41.040  53.324 -51.748  1.00  0.00     0.039 A 
HETATM   26  C   UNL     1     -42.129  54.123 -52.119  1.00  0.00     0.032 A 
BRANCH  24  27
HETATM   27  O   UNL     1     -39.320  51.823 -52.210  1.00  0.00    -0.352 OA
BRANCH  27  28
HETATM   28  C   UNL     1     -39.469  50.404 -52.170  1.00  0.00     0.171 C 
HETATM   29  C   UNL     1     -39.719  49.997 -50.729  1.00  0.00     0.034 C 
ENDBRANCH  27  28
ENDBRANCH  24  27
ENDBRANCH  19  21
ENDBRANCH  18  19
ENDBRANCH   1  18
TORSDOF 7
ENDMDL
MODEL 8
REMARK VINA RESULT:      -7.0      3.635      9.282
REMARK  7 active torsions:
REMARK  status: ('A' for Active; 'I' for Inactive)
REMARK    1  A    between atoms: C_2  and  O_3 
REMARK    2  A    between atoms: O_3  and  C_4 
REMARK    3  A    between atoms: C_7  and  N_8 
REMARK    4  A    between atoms: N_8  and  C_9 
REMARK    5  A    between atoms: C_9  and  C_10 
REMARK       I    between atoms: C_10  and  N_11 
REMARK    6  A    between atoms: N_11  and  N_12 
REMARK    7  A    between atoms: C_13  and  C_14 
ROOT
HETATM    1  C   UNL     1     -43.782  57.076 -52.108  1.00  0.00     0.255 C 
HETATM    2  N   UNL     1     -44.209  56.443 -53.279  1.00  0.00    -0.246 N 
HETATM    3  O   UNL     1     -43.428  58.250 -52.024  1.00  0.00    -0.270 OA
HETATM    4  H   UNL     1     -44.205  55.427 -53.292  1.00  0.00     0.192 HD
ENDROOT
BRANCH   2   5
HETATM    5  N   UNL     1     -44.083  56.997 -54.534  1.00  0.00    -0.184 NA
HETATM    6  C   UNL     1     -42.930  56.902 -55.120  1.00  0.00     0.153 C 
BRANCH   6   7
HETATM    7  C   UNL     1     -42.752  57.382 -56.480  1.00  0.00     0.018 A 
HETATM    8  C   UNL     1     -42.434  58.702 -56.949  1.00  0.00     0.004 A 
HETATM    9  C   UNL     1     -42.402  58.653 -58.343  1.00  0.00     0.043 A 
HETATM   10  C   UNL     1     -42.179  59.943 -56.325  1.00  0.00     0.014 A 
HETATM   11  C   UNL     1     -42.132  59.773 -59.140  1.00  0.00     0.030 A 
HETATM   12  N   UNL     1     -42.681  57.360 -58.711  1.00  0.00    -0.358 N 
HETATM   13  C   UNL     1     -41.886  60.987 -58.493  1.00  0.00     0.002 A 
HETATM   14  C   UNL     1     -41.907  61.073 -57.104  1.00  0.00     0.001 A 
HETATM   15  H   UNL     1     -42.729  57.042 -59.668  1.00  0.00     0.166 HD
HETATM   16  C   UNL     1     -42.899  56.578 -57.604  1.00  0.00     0.018 A 
HETATM   17  C   UNL     1     -43.237  55.137 -57.735  1.00  0.00     0.069 C 
ENDBRANCH   6   7
ENDBRANCH   2   5
BRANCH   1  18
HETATM   18  C   UNL     1     -43.796  56.145 -50.893  1.00  0.00     0.224 C 
BRANCH  18  19
HETATM   19  N   UNL     1     -42.453  55.990 -50.336  1.00  0.00    -0.381 N 
HETATM   20  H   UNL     1     -42.345  56.278 -49.367  1.00  0.00     0.160 HD
BRANCH  19  21
HETATM   21  C   UNL     1     -41.634  54.930 -50.713  1.00  0.00     0.028 A 
HETATM   22  C   UNL     1     -41.103  54.000 -49.814  1.00  0.00     0.032 A 
HETATM   23  C   UNL     1     -40.369  52.887 -50.252  1.00  0.00     0.039 A 
HETATM   24  C   UNL     1     -40.173  52.667 -51.612  1.00  0.00     0.068 A 
HETATM   25  C   UNL     1     -40.707  53.576 -52.522  1.00  0.00     0.039 A 
HETATM   26  C   UNL     1     -41.439  54.684 -52.079  1.00  0.00     0.032 A 
BRANCH  24  27
HETATM   27  O   UNL     1     -39.498  51.617 -52.170  1.00  0.00    -0.352 OA
BRANCH  27  28
HETATM   28  C   UNL     1     -39.577  51.481 -53.589  1.00  0.00     0.171 C 
HETATM   29  C   UNL     1     -39.602  49.999 -53.920  1.00  0.00     0.034 C 
ENDBRANCH  27  28
ENDBRANCH  24  27
ENDBRANCH  19  21
ENDBRANCH  18  19
ENDBRANCH   1  18
TORSDOF 7
ENDMDL
MODEL 9
REMARK VINA RESULT:      -7.0     14.403     16.546
REMARK  7 active torsions:
REMARK  status: ('A' for Active; 'I' for Inactive)
REMARK    1  A    between atoms: C_2  and  O_3 
REMARK    2  A    between atoms: O_3  and  C_4 
REMARK    3  A    between atoms: C_7  and  N_8 
REMARK    4  A    between atoms: N_8  and  C_9 
REMARK    5  A    between atoms: C_9  and  C_10 
REMARK       I    between atoms: C_10  and  N_11 
REMARK    6  A    between atoms: N_11  and  N_12 
REMARK    7  A    between atoms: C_13  and  C_14 
ROOT
HETATM    1  C   UNL     1     -35.935  41.539 -53.998  1.00  0.00     0.255 C 
HETATM    2  N   UNL     1     -34.673  41.193 -53.508  1.00  0.00    -0.246 N 
HETATM    3  O   UNL     1     -37.008  41.194 -53.505  1.00  0.00    -0.270 OA
HETATM    4  H   UNL     1     -33.882  41.291 -54.137  1.00  0.00     0.192 HD
ENDROOT
BRANCH   2   5
HETATM    5  N   UNL     1     -34.469  40.242 -52.531  1.00  0.00    -0.184 NA
HETATM    6  C   UNL     1     -34.581  40.618 -51.295  1.00  0.00     0.153 C 
BRANCH   6   7
HETATM    7  C   UNL     1     -34.470  39.649 -50.217  1.00  0.00     0.018 A 
HETATM    8  C   UNL     1     -33.404  39.447 -49.277  1.00  0.00     0.004 A 
HETATM    9  C   UNL     1     -33.765  38.374 -48.462  1.00  0.00     0.043 A 
HETATM   10  C   UNL     1     -32.156  40.064 -49.043  1.00  0.00     0.014 A 
HETATM   11  C   UNL     1     -32.949  37.889 -47.432  1.00  0.00     0.030 A 
HETATM   12  N   UNL     1     -35.000  37.943 -48.879  1.00  0.00    -0.358 N 
HETATM   13  C   UNL     1     -31.718  38.519 -47.226  1.00  0.00     0.002 A 
HETATM   14  C   UNL     1     -31.326  39.594 -48.018  1.00  0.00     0.001 A 
HETATM   15  H   UNL     1     -35.500  37.170 -48.465  1.00  0.00     0.166 HD
HETATM   16  C   UNL     1     -35.442  38.695 -49.939  1.00  0.00     0.018 A 
HETATM   17  C   UNL     1     -36.751  38.418 -50.587  1.00  0.00     0.069 C 
ENDBRANCH   6   7
ENDBRANCH   2   5
BRANCH   1  18
HETATM   18  C   UNL     1     -35.864  42.419 -55.249  1.00  0.00     0.224 C 
BRANCH  18  19
HETATM   19  N   UNL     1     -37.165  42.492 -55.912  1.00  0.00    -0.381 N 
HETATM   20  H   UNL     1     -37.636  43.391 -55.856  1.00  0.00     0.160 HD
BRANCH  19  21
HETATM   21  C   UNL     1     -37.415  41.787 -57.086  1.00  0.00     0.028 A 
HETATM   22  C   UNL     1     -36.975  42.199 -58.349  1.00  0.00     0.032 A 
HETATM   23  C   UNL     1     -37.160  41.403 -59.489  1.00  0.00     0.039 A 
HETATM   24  C   UNL     1     -37.772  40.157 -59.384  1.00  0.00     0.068 A 
HETATM   25  C   UNL     1     -38.204  39.726 -58.132  1.00  0.00     0.039 A 
HETATM   26  C   UNL     1     -38.016  40.524 -56.997  1.00  0.00     0.032 A 
BRANCH  24  27
HETATM   27  O   UNL     1     -37.995  39.279 -60.408  1.00  0.00    -0.352 OA
BRANCH  27  28
HETATM   28  C   UNL     1     -36.930  39.095 -61.341  1.00  0.00     0.171 C 
HETATM   29  C   UNL     1     -37.540  38.764 -62.692  1.00  0.00     0.034 C 
ENDBRANCH  27  28
ENDBRANCH  24  27
ENDBRANCH  19  21
ENDBRANCH  18  19
ENDBRANCH   1  18
TORSDOF 7
ENDMDL
MODEL 10
REMARK VINA RESULT:      -6.9      5.924      7.244
REMARK  7 active torsions:
REMARK  status: ('A' for Active; 'I' for Inactive)
REMARK    1  A    between atoms: C_2  and  O_3 
REMARK    2  A    between atoms: O_3  and  C_4 
REMARK    3  A    between atoms: C_7  and  N_8 
REMARK    4  A    between atoms: N_8  and  C_9 
REMARK    5  A    between atoms: C_9  and  C_10 
REMARK       I    between atoms: C_10  and  N_11 
REMARK    6  A    between atoms: N_11  and  N_12 
REMARK    7  A    between atoms: C_13  and  C_14 
ROOT
HETATM    1  C   UNL     1     -42.167  59.260 -51.281  1.00  0.00     0.255 C 
HETATM    2  N   UNL     1     -42.029  58.144 -50.452  1.00  0.00    -0.246 N 
HETATM    3  O   UNL     1     -41.858  59.305 -52.470  1.00  0.00    -0.270 OA
HETATM    4  H   UNL     1     -42.047  58.299 -49.448  1.00  0.00     0.192 HD
ENDROOT
BRANCH   2   5
HETATM    5  N   UNL     1     -41.329  57.011 -50.809  1.00  0.00    -0.184 NA
HETATM    6  C   UNL     1     -41.669  55.893 -50.247  1.00  0.00     0.153 C 
BRANCH   6   7
HETATM    7  C   UNL     1     -41.036  54.647 -50.644  1.00  0.00     0.018 A 
HETATM    8  C   UNL     1     -40.834  54.103 -51.957  1.00  0.00     0.004 A 
HETATM    9  C   UNL     1     -40.204  52.867 -51.805  1.00  0.00     0.043 A 
HETATM   10  C   UNL     1     -41.136  54.533 -53.268  1.00  0.00     0.014 A 
HETATM   11  C   UNL     1     -39.863  52.045 -52.887  1.00  0.00     0.030 A 
HETATM   12  N   UNL     1     -40.022  52.667 -50.459  1.00  0.00    -0.358 N 
HETATM   13  C   UNL     1     -40.176  52.498 -54.171  1.00  0.00     0.002 A 
HETATM   14  C   UNL     1     -40.803  53.726 -54.362  1.00  0.00     0.001 A 
HETATM   15  H   UNL     1     -39.591  51.845 -50.062  1.00  0.00     0.166 HD
HETATM   16  C   UNL     1     -40.519  53.726 -49.740  1.00  0.00     0.018 A 
HETATM   17  C   UNL     1     -40.459  53.745 -48.255  1.00  0.00     0.069 C 
ENDBRANCH   6   7
ENDBRANCH   2   5
BRANCH   1  18
HETATM   18  C   UNL     1     -42.760  60.469 -50.551  1.00  0.00     0.224 C 
BRANCH  18  19
HETATM   19  N   UNL     1     -44.135  60.205 -50.132  1.00  0.00    -0.381 N 
HETATM   20  H   UNL     1     -44.254  59.943 -49.157  1.00  0.00     0.160 HD
BRANCH  19  21
HETATM   21  C   UNL     1     -45.202  60.924 -50.665  1.00  0.00     0.028 A 
HETATM   22  C   UNL     1     -45.594  62.186 -50.206  1.00  0.00     0.032 A 
HETATM   23  C   UNL     1     -46.609  62.918 -50.842  1.00  0.00     0.039 A 
HETATM   24  C   UNL     1     -47.237  62.409 -51.975  1.00  0.00     0.068 A 
HETATM   25  C   UNL     1     -46.848  61.160 -52.453  1.00  0.00     0.039 A 
HETATM   26  C   UNL     1     -45.835  60.434 -51.814  1.00  0.00     0.032 A 
BRANCH  24  27
HETATM   27  O   UNL     1     -48.220  63.025 -52.698  1.00  0.00    -0.352 OA
BRANCH  27  28
HETATM   28  C   UNL     1     -49.484  62.365 -52.760  1.00  0.00     0.171 C 
HETATM   29  C   UNL     1     -50.493  63.205 -51.997  1.00  0.00     0.034 C 
ENDBRANCH  27  28
ENDBRANCH  24  27
ENDBRANCH  19  21
ENDBRANCH  18  19
ENDBRANCH   1  18
TORSDOF 7
ENDMDL
