MODEL 1
REMARK VINA RESULT:      -7.7      0.000      0.000
REMARK  5 active torsions:
REMARK  status: ('A' for Active; 'I' for Inactive)
REMARK       I    between atoms: C_2  and  N_3 
REMARK    1  A    between atoms: C_2  and  O_16 
REMARK    2  A    between atoms: N_3  and  C_4 
REMARK    3  A    between atoms: C_7  and  C_10 
REMARK    4  A    between atoms: O_16  and  C_17 
REMARK    5  A    between atoms: C_17  and  C_18 
ROOT
HETATM    1  C   UNL     1     -40.987  55.165 -54.171  1.00  0.00     0.036 A 
HETATM    2  C   UNL     1     -41.040  54.809 -52.824  1.00  0.00     0.030 A 
HETATM    3  C   UNL     1     -40.662  53.524 -52.412  1.00  0.00     0.014 A 
HETATM    4  C   UNL     1     -40.227  52.570 -53.339  1.00  0.00    -0.023 A 
HETATM    5  C   UNL     1     -40.163  52.935 -54.688  1.00  0.00     0.014 A 
HETATM    6  C   UNL     1     -40.535  54.221 -55.099  1.00  0.00     0.030 A 
ENDROOT
BRANCH   1   7
HETATM    7  N   UNL     1     -41.385  56.418 -54.667  1.00  0.00    -0.303 N 
HETATM    8  C   UNL     1     -42.648  56.931 -54.769  1.00  0.00     0.365 C 
HETATM    9  O   UNL     1     -43.693  56.424 -54.393  1.00  0.00    -0.238 OA
HETATM   10  H   UNL     1     -40.675  57.027 -55.050  1.00  0.00     0.171 HD
BRANCH   8  11
HETATM   11  O   UNL     1     -42.560  58.127 -55.406  1.00  0.00    -0.299 OA
BRANCH  11  12
HETATM   12  C   UNL     1     -43.528  58.367 -56.435  1.00  0.00     0.219 C 
BRANCH  12  13
HETATM   13  C   UNL     1     -43.057  57.746 -57.724  1.00  0.00    -0.034 A 
HETATM   14  C   UNL     1     -42.199  58.445 -58.584  1.00  0.00     0.009 A 
HETATM   15  C   UNL     1     -41.760  57.862 -59.774  1.00  0.00     0.001 A 
HETATM   16  C   UNL     1     -42.182  56.579 -60.118  1.00  0.00     0.000 A 
HETATM   17  C   UNL     1     -43.049  55.881 -59.278  1.00  0.00     0.001 A 
HETATM   18  C   UNL     1     -43.488  56.463 -58.088  1.00  0.00     0.009 A 
ENDBRANCH  12  13
ENDBRANCH  11  12
ENDBRANCH   8  11
ENDBRANCH   1   7
BRANCH   4  19
HETATM   19  C   UNL     1     -39.868  51.225 -52.926  1.00  0.00     0.010 A 
HETATM   20  C   UNL     1     -39.733  50.032 -53.676  1.00  0.00     0.152 A 
HETATM   21  N   UNL     1     -39.378  48.984 -52.928  1.00  0.00    -0.187 NA
HETATM   22  N   UNL     1     -39.285  49.501 -51.693  1.00  0.00    -0.289 N 
HETATM   23  H   UNL     1     -39.022  48.883 -50.932  1.00  0.00     0.188 HD
HETATM   24  C   UNL     1     -39.565  50.836 -51.638  1.00  0.00     0.123 A 
ENDBRANCH   4  19
TORSDOF 5
ENDMDL
MODEL 2
REMARK VINA RESULT:      -7.6      2.707      4.602
REMARK  5 active torsions:
REMARK  status: ('A' for Active; 'I' for Inactive)
REMARK       I    between atoms: C_2  and  N_3 
REMARK    1  A    between atoms: C_2  and  O_16 
REMARK    2  A    between atoms: N_3  and  C_4 
REMARK    3  A    between atoms: C_7  and  C_10 
REMARK    4  A    between atoms: O_16  and  C_17 
REMARK    5  A    between atoms: C_17  and  C_18 
ROOT
HETATM    1  C   UNL     1     -40.924  55.301 -53.998  1.00  0.00     0.036 A 
HETATM    2  C   UNL     1     -40.453  54.450 -54.997  1.00  0.00     0.030 A 
HETATM    3  C   UNL     1     -40.123  53.121 -54.703  1.00  0.00     0.014 A 
HETATM    4  C   UNL     1     -40.257  52.616 -53.405  1.00  0.00    -0.023 A 
HETATM    5  C   UNL     1     -40.743  53.468 -52.407  1.00  0.00     0.014 A 
HETATM    6  C   UNL     1     -41.078  54.795 -52.702  1.00  0.00     0.030 A 
ENDROOT
BRANCH   1   7
HETATM    7  N   UNL     1     -41.239  56.654 -54.203  1.00  0.00    -0.303 N 
HETATM    8  C   UNL     1     -42.473  57.231 -54.329  1.00  0.00     0.365 C 
HETATM    9  O   UNL     1     -43.564  56.692 -54.230  1.00  0.00    -0.238 OA
HETATM   10  H   UNL     1     -40.479  57.308 -54.325  1.00  0.00     0.171 HD
BRANCH   8  11
HETATM   11  O   UNL     1     -42.289  58.543 -54.623  1.00  0.00    -0.299 OA
BRANCH  11  12
HETATM   12  C   UNL     1     -41.212  59.199 -53.940  1.00  0.00     0.219 C 
BRANCH  12  13
HETATM   13  C   UNL     1     -41.735  59.855 -52.689  1.00  0.00    -0.034 A 
HETATM   14  C   UNL     1     -42.754  60.815 -52.757  1.00  0.00     0.009 A 
HETATM   15  C   UNL     1     -43.239  61.415 -51.592  1.00  0.00     0.001 A 
HETATM   16  C   UNL     1     -42.704  61.066 -50.354  1.00  0.00     0.000 A 
HETATM   17  C   UNL     1     -41.679  60.123 -50.277  1.00  0.00     0.001 A 
HETATM   18  C   UNL     1     -41.194  59.524 -51.439  1.00  0.00     0.009 A 
ENDBRANCH  12  13
ENDBRANCH  11  12
ENDBRANCH   8  11
ENDBRANCH   1   7
BRANCH   4  19
HETATM   19  C   UNL     1     -39.884  51.250 -53.083  1.00  0.00     0.010 A 
HETATM   20  C   UNL     1     -39.744  50.110 -53.911  1.00  0.00     0.152 A 
HETATM   21  N   UNL     1     -39.375  49.019 -53.236  1.00  0.00    -0.187 NA
HETATM   22  N   UNL     1     -39.278  49.454 -51.970  1.00  0.00    -0.289 N 
HETATM   23  H   UNL     1     -39.004  48.789 -51.253  1.00  0.00     0.188 HD
HETATM   24  C   UNL     1     -39.569  50.780 -51.825  1.00  0.00     0.123 A 
ENDBRANCH   4  19
TORSDOF 5
ENDMDL
MODEL 3
REMARK VINA RESULT:      -7.4      1.510      2.000
REMARK  5 active torsions:
REMARK  status: ('A' for Active; 'I' for Inactive)
REMARK       I    between atoms: C_2  and  N_3 
REMARK    1  A    between atoms: C_2  and  O_16 
REMARK    2  A    between atoms: N_3  and  C_4 
REMARK    3  A    between atoms: C_7  and  C_10 
REMARK    4  A    between atoms: O_16  and  C_17 
REMARK    5  A    between atoms: C_17  and  C_18 
ROOT
HETATM    1  C   UNL     1     -41.674  54.880 -55.542  1.00  0.00     0.036 A 
HETATM    2  C   UNL     1     -42.553  53.921 -55.039  1.00  0.00     0.030 A 
HETATM    3  C   UNL     1     -42.066  52.788 -54.374  1.00  0.00     0.014 A 
HETATM    4  C   UNL     1     -40.691  52.591 -54.201  1.00  0.00    -0.023 A 
HETATM    5  C   UNL     1     -39.813  53.561 -54.694  1.00  0.00     0.014 A 
HETATM    6  C   UNL     1     -40.300  54.697 -55.354  1.00  0.00     0.030 A 
ENDROOT
BRANCH   1   7
HETATM    7  N   UNL     1     -42.082  56.022 -56.252  1.00  0.00    -0.303 N 
HETATM    8  C   UNL     1     -42.974  56.986 -55.873  1.00  0.00     0.365 C 
HETATM    9  O   UNL     1     -43.561  57.084 -54.807  1.00  0.00    -0.238 OA
HETATM   10  H   UNL     1     -41.724  56.155 -57.187  1.00  0.00     0.171 HD
BRANCH   8  11
HETATM   11  O   UNL     1     -43.135  57.836 -56.919  1.00  0.00    -0.299 OA
BRANCH  11  12
HETATM   12  C   UNL     1     -42.642  57.380 -58.185  1.00  0.00     0.219 C 
BRANCH  12  13
HETATM   13  C   UNL     1     -43.770  56.770 -58.975  1.00  0.00    -0.034 A 
HETATM   14  C   UNL     1     -45.048  57.346 -58.959  1.00  0.00     0.009 A 
HETATM   15  C   UNL     1     -46.088  56.780 -59.699  1.00  0.00     0.001 A 
HETATM   16  C   UNL     1     -45.862  55.630 -60.453  1.00  0.00     0.000 A 
HETATM   17  C   UNL     1     -44.598  55.040 -60.462  1.00  0.00     0.001 A 
HETATM   18  C   UNL     1     -43.558  55.605 -59.724  1.00  0.00     0.009 A 
ENDBRANCH  12  13
ENDBRANCH  11  12
ENDBRANCH   8  11
ENDBRANCH   1   7
BRANCH   4  19
HETATM   19  C   UNL     1     -40.176  51.402 -53.545  1.00  0.00     0.010 A 
HETATM   20  C   UNL     1     -39.979  50.088 -54.033  1.00  0.00     0.152 A 
HETATM   21  N   UNL     1     -39.473  49.262 -53.113  1.00  0.00    -0.187 NA
HETATM   22  N   UNL     1     -39.343  50.044 -52.030  1.00  0.00    -0.289 N 
HETATM   23  H   UNL     1     -38.969  49.631 -51.182  1.00  0.00     0.188 HD
HETATM   24  C   UNL     1     -39.747  51.331 -52.236  1.00  0.00     0.123 A 
ENDBRANCH   4  19
TORSDOF 5
ENDMDL
MODEL 4
REMARK VINA RESULT:      -7.3      3.652      8.915
REMARK  5 active torsions:
REMARK  status: ('A' for Active; 'I' for Inactive)
REMARK       I    between atoms: C_2  and  N_3 
REMARK    1  A    between atoms: C_2  and  O_16 
REMARK    2  A    between atoms: N_3  and  C_4 
REMARK    3  A    between atoms: C_7  and  C_10 
REMARK    4  A    between atoms: O_16  and  C_17 
REMARK    5  A    between atoms: C_17  and  C_18 
ROOT
HETATM    1  C   UNL     1     -43.219  56.097 -57.764  1.00  0.00     0.036 A 
HETATM    2  C   UNL     1     -43.530  55.312 -58.874  1.00  0.00     0.030 A 
HETATM    3  C   UNL     1     -44.561  55.689 -59.746  1.00  0.00     0.014 A 
HETATM    4  C   UNL     1     -45.301  56.856 -59.524  1.00  0.00    -0.023 A 
HETATM    5  C   UNL     1     -44.977  57.649 -58.417  1.00  0.00     0.014 A 
HETATM    6  C   UNL     1     -43.943  57.275 -57.549  1.00  0.00     0.030 A 
ENDROOT
BRANCH   1   7
HETATM    7  N   UNL     1     -42.228  55.769 -56.824  1.00  0.00    -0.303 N 
HETATM    8  C   UNL     1     -42.299  54.876 -55.791  1.00  0.00     0.365 C 
HETATM    9  O   UNL     1     -43.226  54.134 -55.506  1.00  0.00    -0.238 OA
HETATM   10  H   UNL     1     -41.353  56.272 -56.858  1.00  0.00     0.171 HD
BRANCH   8  11
HETATM   11  O   UNL     1     -41.144  54.969 -55.083  1.00  0.00    -0.299 OA
BRANCH  11  12
HETATM   12  C   UNL     1     -41.268  54.879 -53.658  1.00  0.00     0.219 C 
BRANCH  12  13
HETATM   13  C   UNL     1     -40.636  53.599 -53.177  1.00  0.00    -0.034 A 
HETATM   14  C   UNL     1     -40.444  53.365 -51.808  1.00  0.00     0.009 A 
HETATM   15  C   UNL     1     -39.864  52.173 -51.369  1.00  0.00     0.001 A 
HETATM   16  C   UNL     1     -39.464  51.211 -52.294  1.00  0.00     0.000 A 
HETATM   17  C   UNL     1     -39.636  51.440 -53.658  1.00  0.00     0.001 A 
HETATM   18  C   UNL     1     -40.215  52.631 -54.098  1.00  0.00     0.009 A 
ENDBRANCH  12  13
ENDBRANCH  11  12
ENDBRANCH   8  11
ENDBRANCH   1   7
BRANCH   4  19
HETATM   19  C   UNL     1     -46.394  57.236 -60.402  1.00  0.00     0.010 A 
HETATM   20  C   UNL     1     -46.996  58.495 -60.637  1.00  0.00     0.152 A 
HETATM   21  N   UNL     1     -47.985  58.438 -61.533  1.00  0.00    -0.187 NA
HETATM   22  N   UNL     1     -48.022  57.141 -61.876  1.00  0.00    -0.289 N 
HETATM   23  H   UNL     1     -48.710  56.844 -62.560  1.00  0.00     0.188 HD
HETATM   24  C   UNL     1     -47.090  56.380 -61.230  1.00  0.00     0.123 A 
ENDBRANCH   4  19
TORSDOF 5
ENDMDL
MODEL 5
REMARK VINA RESULT:      -7.1     13.895     16.624
REMARK  5 active torsions:
REMARK  status: ('A' for Active; 'I' for Inactive)
REMARK       I    between atoms: C_2  and  N_3 
REMARK    1  A    between atoms: C_2  and  O_16 
REMARK    2  A    between atoms: N_3  and  C_4 
REMARK    3  A    between atoms: C_7  and  C_10 
REMARK    4  A    between atoms: O_16  and  C_17 
REMARK    5  A    between atoms: C_17  and  C_18 
ROOT
HETATM    1  C   UNL     1     -37.330  41.387 -56.633  1.00  0.00     0.036 A 
HETATM    2  C   UNL     1     -37.208  42.040 -57.859  1.00  0.00     0.030 A 
HETATM    3  C   UNL     1     -37.487  41.365 -59.055  1.00  0.00     0.014 A 
HETATM    4  C   UNL     1     -37.890  40.025 -59.048  1.00  0.00    -0.023 A 
HETATM    5  C   UNL     1     -38.024  39.377 -57.815  1.00  0.00     0.014 A 
HETATM    6  C   UNL     1     -37.751  40.053 -56.620  1.00  0.00     0.030 A 
ENDROOT
BRANCH   1   7
HETATM    7  N   UNL     1     -37.033  41.982 -55.395  1.00  0.00    -0.303 N 
HETATM    8  C   UNL     1     -35.807  42.273 -54.864  1.00  0.00     0.365 C 
HETATM    9  O   UNL     1     -34.712  42.129 -55.385  1.00  0.00    -0.238 OA
HETATM   10  H   UNL     1     -37.798  42.191 -54.770  1.00  0.00     0.171 HD
BRANCH   8  11
HETATM   11  O   UNL     1     -36.001  42.740 -53.604  1.00  0.00    -0.299 OA
BRANCH  11  12
HETATM   12  C   UNL     1     -36.737  41.884 -52.720  1.00  0.00     0.219 C 
BRANCH  12  13
HETATM   13  C   UNL     1     -35.781  41.171 -51.799  1.00  0.00    -0.034 A 
HETATM   14  C   UNL     1     -34.499  41.685 -51.561  1.00  0.00     0.009 A 
HETATM   15  C   UNL     1     -33.620  41.024 -50.701  1.00  0.00     0.001 A 
HETATM   16  C   UNL     1     -34.013  39.840 -50.079  1.00  0.00     0.000 A 
HETATM   17  C   UNL     1     -35.280  39.312 -50.321  1.00  0.00     0.001 A 
HETATM   18  C   UNL     1     -36.159  39.973 -51.180  1.00  0.00     0.009 A 
ENDBRANCH  12  13
ENDBRANCH  11  12
ENDBRANCH   8  11
ENDBRANCH   1   7
BRANCH   4  19
HETATM   19  C   UNL     1     -38.146  39.307 -60.284  1.00  0.00     0.010 A 
HETATM   20  C   UNL     1     -37.460  39.324 -61.523  1.00  0.00     0.152 A 
HETATM   21  N   UNL     1     -38.006  38.510 -62.430  1.00  0.00    -0.187 NA
HETATM   22  N   UNL     1     -39.046  37.968 -61.778  1.00  0.00    -0.289 N 
HETATM   23  H   UNL     1     -39.629  37.300 -62.272  1.00  0.00     0.188 HD
HETATM   24  C   UNL     1     -39.172  38.409 -60.492  1.00  0.00     0.123 A 
ENDBRANCH   4  19
TORSDOF 5
ENDMDL
MODEL 6
REMARK VINA RESULT:      -7.0     14.005     16.134
REMARK  5 active torsions:
REMARK  status: ('A' for Active; 'I' for Inactive)
REMARK       I    between atoms: C_2  and  N_3 
REMARK    1  A    between atoms: C_2  and  O_16 
REMARK    2  A    between atoms: N_3  and  C_4 
REMARK    3  A    between atoms: C_7  and  C_10 
REMARK    4  A    between atoms: O_16  and  C_17 
REMARK    5  A    between atoms: C_17  and  C_18 
ROOT
HETATM    1  C   UNL     1     -33.900  40.672 -52.436  1.00  0.00     0.036 A 
HETATM    2  C   UNL     1     -34.717  40.419 -51.334  1.00  0.00     0.030 A 
HETATM    3  C   UNL     1     -34.160  40.022 -50.111  1.00  0.00     0.014 A 
HETATM    4  C   UNL     1     -32.777  39.869 -49.967  1.00  0.00    -0.023 A 
HETATM    5  C   UNL     1     -31.959  40.136 -51.070  1.00  0.00     0.014 A 
HETATM    6  C   UNL     1     -32.515  40.538 -52.291  1.00  0.00     0.030 A 
ENDROOT
BRANCH   1   7
HETATM    7  N   UNL     1     -34.384  41.035 -53.704  1.00  0.00    -0.303 N 
HETATM    8  C   UNL     1     -35.365  41.935 -54.014  1.00  0.00     0.365 C 
HETATM    9  O   UNL     1     -35.988  42.656 -53.250  1.00  0.00    -0.238 OA
HETATM   10  H   UNL     1     -34.012  40.555 -54.512  1.00  0.00     0.171 HD
BRANCH   8  11
HETATM   11  O   UNL     1     -35.569  41.880 -55.355  1.00  0.00    -0.299 OA
BRANCH  11  12
HETATM   12  C   UNL     1     -36.855  42.316 -55.816  1.00  0.00     0.219 C 
BRANCH  12  13
HETATM   13  C   UNL     1     -37.210  41.581 -57.082  1.00  0.00    -0.034 A 
HETATM   14  C   UNL     1     -37.830  40.325 -57.030  1.00  0.00     0.009 A 
HETATM   15  C   UNL     1     -38.163  39.652 -58.207  1.00  0.00     0.001 A 
HETATM   16  C   UNL     1     -37.872  40.224 -59.444  1.00  0.00     0.000 A 
HETATM   17  C   UNL     1     -37.242  41.466 -59.507  1.00  0.00     0.001 A 
HETATM   18  C   UNL     1     -36.908  42.139 -58.331  1.00  0.00     0.009 A 
ENDBRANCH  12  13
ENDBRANCH  11  12
ENDBRANCH   8  11
ENDBRANCH   1   7
BRANCH   4  19
HETATM   19  C   UNL     1     -32.193  39.423 -48.713  1.00  0.00     0.010 A 
HETATM   20  C   UNL     1     -31.213  40.021 -47.885  1.00  0.00     0.152 A 
HETATM   21  N   UNL     1     -30.940  39.296 -46.797  1.00  0.00    -0.187 NA
HETATM   22  N   UNL     1     -31.743  38.228 -46.924  1.00  0.00    -0.289 N 
HETATM   23  H   UNL     1     -31.715  37.517 -46.200  1.00  0.00     0.188 HD
HETATM   24  C   UNL     1     -32.514  38.257 -48.050  1.00  0.00     0.123 A 
ENDBRANCH   4  19
TORSDOF 5
ENDMDL
MODEL 7
REMARK VINA RESULT:      -6.9      2.885      8.655
REMARK  5 active torsions:
REMARK  status: ('A' for Active; 'I' for Inactive)
REMARK       I    between atoms: C_2  and  N_3 
REMARK    1  A    between atoms: C_2  and  O_16 
REMARK    2  A    between atoms: N_3  and  C_4 
REMARK    3  A    between atoms: C_7  and  C_10 
REMARK    4  A    between atoms: O_16  and  C_17 
REMARK    5  A    between atoms: C_17  and  C_18 
ROOT
HETATM    1  C   UNL     1     -42.531  55.826 -56.504  1.00  0.00     0.036 A 
HETATM    2  C   UNL     1     -43.077  55.286 -57.668  1.00  0.00     0.030 A 
HETATM    3  C   UNL     1     -43.612  56.122 -58.658  1.00  0.00     0.014 A 
HETATM    4  C   UNL     1     -43.613  57.513 -58.502  1.00  0.00    -0.023 A 
HETATM    5  C   UNL     1     -43.052  58.052 -57.339  1.00  0.00     0.014 A 
HETATM    6  C   UNL     1     -42.512  57.217 -56.353  1.00  0.00     0.030 A 
ENDROOT
BRANCH   1   7
HETATM    7  N   UNL     1     -42.011  55.056 -55.451  1.00  0.00    -0.303 N 
HETATM    8  C   UNL     1     -42.603  54.732 -54.262  1.00  0.00     0.365 C 
HETATM    9  O   UNL     1     -43.736  54.999 -53.893  1.00  0.00    -0.238 OA
HETATM   10  H   UNL     1     -41.062  54.720 -55.528  1.00  0.00     0.171 HD
BRANCH   8  11
HETATM   11  O   UNL     1     -41.689  54.065 -53.512  1.00  0.00    -0.299 OA
BRANCH  11  12
HETATM   12  C   UNL     1     -40.578  53.503 -54.222  1.00  0.00     0.219 C 
BRANCH  12  13
HETATM   13  C   UNL     1     -40.204  52.181 -53.605  1.00  0.00    -0.034 A 
HETATM   14  C   UNL     1     -40.191  51.009 -54.375  1.00  0.00     0.009 A 
HETATM   15  C   UNL     1     -39.836  49.788 -53.799  1.00  0.00     0.001 A 
HETATM   16  C   UNL     1     -39.500  49.726 -52.448  1.00  0.00     0.000 A 
HETATM   17  C   UNL     1     -39.525  50.883 -51.669  1.00  0.00     0.001 A 
HETATM   18  C   UNL     1     -39.879  52.104 -52.244  1.00  0.00     0.009 A 
ENDBRANCH  12  13
ENDBRANCH  11  12
ENDBRANCH   8  11
ENDBRANCH   1   7
BRANCH   4  19
HETATM   19  C   UNL     1     -44.197  58.385 -59.505  1.00  0.00     0.010 A 
HETATM   20  C   UNL     1     -45.485  58.965 -59.589  1.00  0.00     0.152 A 
HETATM   21  N   UNL     1     -45.644  59.723 -60.678  1.00  0.00    -0.187 NA
HETATM   22  N   UNL     1     -44.457  59.631 -61.298  1.00  0.00    -0.289 N 
HETATM   23  H   UNL     1     -44.331  60.133 -62.171  1.00  0.00     0.188 HD
HETATM   24  C   UNL     1     -43.557  58.845 -60.638  1.00  0.00     0.123 A 
ENDBRANCH   4  19
TORSDOF 5
ENDMDL
MODEL 8
REMARK VINA RESULT:      -6.8      3.138      5.061
REMARK  5 active torsions:
REMARK  status: ('A' for Active; 'I' for Inactive)
REMARK       I    between atoms: C_2  and  N_3 
REMARK    1  A    between atoms: C_2  and  O_16 
REMARK    2  A    between atoms: N_3  and  C_4 
REMARK    3  A    between atoms: C_7  and  C_10 
REMARK    4  A    between atoms: O_16  and  C_17 
REMARK    5  A    between atoms: C_17  and  C_18 
ROOT
HETATM    1  C   UNL     1     -41.281  55.661 -53.524  1.00  0.00     0.036 A 
HETATM    2  C   UNL     1     -40.835  55.007 -54.672  1.00  0.00     0.030 A 
HETATM    3  C   UNL     1     -40.439  53.664 -54.616  1.00  0.00     0.014 A 
HETATM    4  C   UNL     1     -40.480  52.950 -53.413  1.00  0.00    -0.023 A 
HETATM    5  C   UNL     1     -40.941  53.606 -52.266  1.00  0.00     0.014 A 
HETATM    6  C   UNL     1     -41.341  54.947 -52.323  1.00  0.00     0.030 A 
ENDROOT
BRANCH   1   7
HETATM    7  N   UNL     1     -41.658  57.014 -53.489  1.00  0.00    -0.303 N 
HETATM    8  C   UNL     1     -40.864  58.114 -53.316  1.00  0.00     0.365 C 
HETATM    9  O   UNL     1     -39.648  58.150 -53.212  1.00  0.00    -0.238 OA
HETATM   10  H   UNL     1     -42.641  57.237 -53.551  1.00  0.00     0.171 HD
BRANCH   8  11
HETATM   11  O   UNL     1     -41.673  59.202 -53.243  1.00  0.00    -0.299 OA
BRANCH  11  12
HETATM   12  C   UNL     1     -43.082  58.949 -53.329  1.00  0.00     0.219 C 
BRANCH  12  13
HETATM   13  C   UNL     1     -43.779  59.578 -52.152  1.00  0.00    -0.034 A 
HETATM   14  C   UNL     1     -45.165  59.447 -51.987  1.00  0.00     0.009 A 
HETATM   15  C   UNL     1     -45.804  60.027 -50.890  1.00  0.00     0.001 A 
HETATM   16  C   UNL     1     -45.066  60.750 -49.954  1.00  0.00     0.000 A 
HETATM   17  C   UNL     1     -43.690  60.900 -50.118  1.00  0.00     0.001 A 
HETATM   18  C   UNL     1     -43.050  60.320 -51.214  1.00  0.00     0.009 A 
ENDBRANCH  12  13
ENDBRANCH  11  12
ENDBRANCH   8  11
ENDBRANCH   1   7
BRANCH   4  19
HETATM   19  C   UNL     1     -40.037  51.569 -53.339  1.00  0.00     0.010 A 
HETATM   20  C   UNL     1     -39.955  50.569 -54.338  1.00  0.00     0.152 A 
HETATM   21  N   UNL     1     -39.487  49.408 -53.873  1.00  0.00    -0.187 NA
HETATM   22  N   UNL     1     -39.268  49.657 -52.573  1.00  0.00    -0.289 N 
HETATM   23  H   UNL     1     -38.903  48.907 -51.995  1.00  0.00     0.188 HD
HETATM   24  C   UNL     1     -39.579  50.934 -52.203  1.00  0.00     0.123 A 
ENDBRANCH   4  19
TORSDOF 5
ENDMDL
MODEL 9
REMARK VINA RESULT:      -6.7      5.154      6.830
REMARK  5 active torsions:
REMARK  status: ('A' for Active; 'I' for Inactive)
REMARK       I    between atoms: C_2  and  N_3 
REMARK    1  A    between atoms: C_2  and  O_16 
REMARK    2  A    between atoms: N_3  and  C_4 
REMARK    3  A    between atoms: C_7  and  C_10 
REMARK    4  A    between atoms: O_16  and  C_17 
REMARK    5  A    between atoms: C_17  and  C_18 
ROOT
HETATM    1  C   UNL     1     -41.308  56.677 -51.015  1.00  0.00     0.036 A 
HETATM    2  C   UNL     1     -40.785  55.704 -50.164  1.00  0.00     0.030 A 
HETATM    3  C   UNL     1     -40.438  54.439 -50.657  1.00  0.00     0.014 A 
HETATM    4  C   UNL     1     -40.610  54.122 -52.010  1.00  0.00    -0.023 A 
HETATM    5  C   UNL     1     -41.122  55.105 -52.863  1.00  0.00     0.014 A 
HETATM    6  C   UNL     1     -41.463  56.371 -52.371  1.00  0.00     0.030 A 
ENDROOT
BRANCH   1   7
HETATM    7  N   UNL     1     -41.714  57.954 -50.591  1.00  0.00    -0.303 N 
HETATM    8  C   UNL     1     -41.128  59.161 -50.848  1.00  0.00     0.365 C 
HETATM    9  O   UNL     1     -40.155  59.387 -51.551  1.00  0.00    -0.238 OA
HETATM   10  H   UNL     1     -42.514  58.020 -49.977  1.00  0.00     0.171 HD
BRANCH   8  11
HETATM   11  O   UNL     1     -41.803  60.108 -50.147  1.00  0.00    -0.299 OA
BRANCH  11  12
HETATM   12  C   UNL     1     -42.850  60.789 -50.851  1.00  0.00     0.219 C 
BRANCH  12  13
HETATM   13  C   UNL     1     -43.293  61.989 -50.056  1.00  0.00    -0.034 A 
HETATM   14  C   UNL     1     -44.323  61.882 -49.111  1.00  0.00     0.009 A 
HETATM   15  C   UNL     1     -44.724  62.997 -48.373  1.00  0.00     0.001 A 
HETATM   16  C   UNL     1     -44.105  64.229 -48.578  1.00  0.00     0.000 A 
HETATM   17  C   UNL     1     -43.091  64.349 -49.527  1.00  0.00     0.001 A 
HETATM   18  C   UNL     1     -42.689  63.236 -50.266  1.00  0.00     0.009 A 
ENDBRANCH  12  13
ENDBRANCH  11  12
ENDBRANCH   8  11
ENDBRANCH   1   7
BRANCH   4  19
HETATM   19  C   UNL     1     -40.287  52.802 -52.522  1.00  0.00     0.010 A 
HETATM   20  C   UNL     1     -40.445  52.249 -53.816  1.00  0.00     0.152 A 
HETATM   21  N   UNL     1     -40.019  50.985 -53.896  1.00  0.00    -0.187 NA
HETATM   22  N   UNL     1     -39.587  50.723 -52.652  1.00  0.00    -0.289 N 
HETATM   23  H   UNL     1     -39.208  49.801 -52.460  1.00  0.00     0.188 HD
HETATM   24  C   UNL     1     -39.723  51.775 -51.794  1.00  0.00     0.123 A 
ENDBRANCH   4  19
TORSDOF 5
ENDMDL
MODEL 10
REMARK VINA RESULT:      -6.6      1.048      1.922
REMARK  5 active torsions:
REMARK  status: ('A' for Active; 'I' for Inactive)
REMARK       I    between atoms: C_2  and  N_3 
REMARK    1  A    between atoms: C_2  and  O_16 
REMARK    2  A    between atoms: N_3  and  C_4 
REMARK    3  A    between atoms: C_7  and  C_10 
REMARK    4  A    between atoms: O_16  and  C_17 
REMARK    5  A    between atoms: C_17  and  C_18 
ROOT
HETATM    1  C   UNL     1     -41.551  55.056 -54.346  1.00  0.00     0.036 A 
HETATM    2  C   UNL     1     -40.867  54.139 -55.143  1.00  0.00     0.030 A 
HETATM    3  C   UNL     1     -40.372  52.948 -54.593  1.00  0.00     0.014 A 
HETATM    4  C   UNL     1     -40.551  52.654 -53.236  1.00  0.00    -0.023 A 
HETATM    5  C   UNL     1     -41.250  53.570 -52.443  1.00  0.00     0.014 A 
HETATM    6  C   UNL     1     -41.749  54.757 -52.994  1.00  0.00     0.030 A 
ENDROOT
BRANCH   1   7
HETATM    7  N   UNL     1     -42.043  56.287 -54.813  1.00  0.00    -0.303 N 
HETATM    8  C   UNL     1     -43.338  56.723 -54.855  1.00  0.00     0.365 C 
HETATM    9  O   UNL     1     -44.334  56.153 -54.440  1.00  0.00    -0.238 OA
HETATM   10  H   UNL     1     -41.388  56.939 -55.219  1.00  0.00     0.171 HD
BRANCH   8  11
HETATM   11  O   UNL     1     -43.349  57.927 -55.483  1.00  0.00    -0.299 OA
BRANCH  11  12
HETATM   12  C   UNL     1     -42.068  58.482 -55.807  1.00  0.00     0.219 C 
BRANCH  12  13
HETATM   13  C   UNL     1     -42.067  58.943 -57.242  1.00  0.00    -0.034 A 
HETATM   14  C   UNL     1     -41.847  60.290 -57.561  1.00  0.00     0.009 A 
HETATM   15  C   UNL     1     -41.841  60.709 -58.893  1.00  0.00     0.001 A 
HETATM   16  C   UNL     1     -42.063  59.788 -59.915  1.00  0.00     0.000 A 
HETATM   17  C   UNL     1     -42.298  58.448 -59.607  1.00  0.00     0.001 A 
HETATM   18  C   UNL     1     -42.304  58.028 -58.276  1.00  0.00     0.009 A 
ENDBRANCH  12  13
ENDBRANCH  11  12
ENDBRANCH   8  11
ENDBRANCH   1   7
BRANCH   4  19
HETATM   19  C   UNL     1     -40.011  51.440 -52.650  1.00  0.00     0.010 A 
HETATM   20  C   UNL     1     -39.648  51.139 -51.315  1.00  0.00     0.152 A 
HETATM   21  N   UNL     1     -39.187  49.894 -51.170  1.00  0.00    -0.187 NA
HETATM   22  N   UNL     1     -39.251  49.390 -52.412  1.00  0.00    -0.289 N 
HETATM   23  H   UNL     1     -38.947  48.433 -52.559  1.00  0.00     0.188 HD
HETATM   24  C   UNL     1     -39.738  50.272 -53.333  1.00  0.00     0.123 A 
ENDBRANCH   4  19
TORSDOF 5
ENDMDL
