MODEL 1
REMARK VINA RESULT:      -7.6      0.000      0.000
REMARK  8 active torsions:
REMARK  status: ('A' for Active; 'I' for Inactive)
REMARK    1  A    between atoms: C_2  and  C_4 
REMARK    2  A    between atoms: C_2  and  C_29 
REMARK    3  A    between atoms: C_2  and  O_3 
REMARK    4  A    between atoms: N_11  and  C_13 
REMARK    5  A    between atoms: C_13  and  C_14 
REMARK    6  A    between atoms: C_16  and  S_17 
REMARK    7  A    between atoms: S_17  and  C_18 
REMARK    8  A    between atoms: C_29  and  N_30 
ROOT
HETATM    1  C   UNL     1     -41.798  54.267 -54.013  1.00  0.00    -0.022 A 
HETATM    2  C   UNL     1     -42.391  54.830 -52.863  1.00  0.00     0.022 A 
HETATM    3  C   UNL     1     -42.029  54.426 -51.566  1.00  0.00     0.002 A 
HETATM    4  C   UNL     1     -41.077  53.421 -51.420  1.00  0.00     0.076 A 
HETATM    5  O   UNL     1     -40.731  52.952 -50.184  1.00  0.00    -0.349 OA
HETATM    6  C   UNL     1     -39.958  53.903 -49.439  1.00  0.00     0.203 C 
HETATM    7  C   UNL     1     -40.843  54.858 -48.624  1.00  0.00     0.262 C 
HETATM    8  N   UNL     1     -41.630  55.824 -49.492  1.00  0.00    -0.059 N 
HETATM    9  H   UNL     1     -42.218  56.381 -48.858  1.00  0.00     0.280 HD
HETATM   10  C   UNL     1     -42.633  55.091 -50.364  1.00  0.00     0.276 C 
HETATM   11  C   UNL     1     -40.492  52.830 -52.535  1.00  0.00     0.038 A 
HETATM   12  C   UNL     1     -40.826  53.270 -53.821  1.00  0.00     0.013 A 
ENDROOT
BRANCH   8  13
HETATM   13  C   UNL     1     -40.750  56.837 -50.206  1.00  0.00     0.299 C 
BRANCH  13  14
HETATM   14  C   UNL     1     -41.358  58.173 -50.433  1.00  0.00     0.080 A 
HETATM   15  O   UNL     1     -42.562  58.200 -51.061  1.00  0.00    -0.306 OA
HETATM   16  C   UNL     1     -42.987  59.497 -51.115  1.00  0.00     0.120 A 
HETATM   17  C   UNL     1     -41.993  60.312 -50.615  1.00  0.00     0.047 A 
HETATM   18  C   UNL     1     -40.948  59.462 -50.166  1.00  0.00     0.038 A 
BRANCH  16  19
HETATM   19  S   UNL     1     -44.559  59.939 -51.724  1.00  0.00    -0.025 SA
BRANCH  19  20
HETATM   20  C   UNL     1     -45.219  60.508 -50.226  1.00  0.00     0.197 A 
HETATM   21  N   UNL     1     -45.208  61.818 -49.839  1.00  0.00    -0.322 N 
HETATM   22  C   UNL     1     -44.694  62.960 -50.550  1.00  0.00     0.159 C 
HETATM   23  C   UNL     1     -45.790  61.840 -48.604  1.00  0.00     0.235 A 
HETATM   24  N   UNL     1     -46.164  60.624 -48.271  1.00  0.00    -0.143 NA
HETATM   25  N   UNL     1     -45.808  59.786 -49.297  1.00  0.00    -0.123 NA
ENDBRANCH  19  20
ENDBRANCH  16  19
ENDBRANCH  13  14
ENDBRANCH   8  13
BRANCH   1  26
HETATM   26  C   UNL     1     -42.157  54.808 -55.401  1.00  0.00     0.105 C 
HETATM   27  C   UNL     1     -43.350  54.007 -55.949  1.00  0.00     0.053 C 
BRANCH  26  28
HETATM   28  C   UNL     1     -42.509  56.334 -55.446  1.00  0.00     0.276 C 
BRANCH  28  29
HETATM   29  N   UNL     1     -43.977  56.639 -55.759  1.00  0.00    -0.076 N 
HETATM   30  H   UNL     1     -44.443  55.752 -55.988  1.00  0.00     0.279 HD
HETATM   31  C   UNL     1     -44.742  57.218 -54.596  1.00  0.00     0.269 C 
HETATM   32  C   UNL     1     -44.093  57.526 -56.970  1.00  0.00     0.269 C 
ENDBRANCH  28  29
ENDBRANCH  26  28
BRANCH  26  33
HETATM   33  O   UNL     1     -41.035  54.614 -56.282  1.00  0.00    -0.384 OA
HETATM   34  H   UNL     1     -40.768  55.472 -56.659  1.00  0.00     0.211 HD
ENDBRANCH  26  33
ENDBRANCH   1  26
TORSDOF 8
ENDMDL
MODEL 2
REMARK VINA RESULT:      -7.5      1.740      2.332
REMARK  8 active torsions:
REMARK  status: ('A' for Active; 'I' for Inactive)
REMARK    1  A    between atoms: C_2  and  C_4 
REMARK    2  A    between atoms: C_2  and  C_29 
REMARK    3  A    between atoms: C_2  and  O_3 
REMARK    4  A    between atoms: N_11  and  C_13 
REMARK    5  A    between atoms: C_13  and  C_14 
REMARK    6  A    between atoms: C_16  and  S_17 
REMARK    7  A    between atoms: S_17  and  C_18 
REMARK    8  A    between atoms: C_29  and  N_30 
ROOT
HETATM    1  C   UNL     1     -42.743  55.640 -55.580  1.00  0.00    -0.022 A 
HETATM    2  C   UNL     1     -43.219  55.909 -54.279  1.00  0.00     0.022 A 
HETATM    3  C   UNL     1     -42.777  55.181 -53.160  1.00  0.00     0.002 A 
HETATM    4  C   UNL     1     -41.863  54.148 -53.353  1.00  0.00     0.076 A 
HETATM    5  O   UNL     1     -41.445  53.373 -52.307  1.00  0.00    -0.349 OA
HETATM    6  C   UNL     1     -40.574  54.086 -51.418  1.00  0.00     0.203 C 
HETATM    7  C   UNL     1     -41.349  54.826 -50.317  1.00  0.00     0.262 C 
HETATM    8  N   UNL     1     -42.156  55.999 -50.844  1.00  0.00    -0.059 N 
HETATM    9  H   UNL     1     -42.666  56.392 -50.043  1.00  0.00     0.280 HD
HETATM   10  C   UNL     1     -43.255  55.535 -51.782  1.00  0.00     0.276 C 
HETATM   11  C   UNL     1     -41.394  53.844 -54.626  1.00  0.00     0.038 A 
HETATM   12  C   UNL     1     -41.806  54.603 -55.727  1.00  0.00     0.013 A 
ENDROOT
BRANCH   8  13
HETATM   13  C   UNL     1     -41.287  57.138 -51.357  1.00  0.00     0.299 C 
BRANCH  13  14
HETATM   14  C   UNL     1     -41.733  58.505 -50.985  1.00  0.00     0.080 A 
HETATM   15  O   UNL     1     -42.983  58.868 -51.371  1.00  0.00    -0.306 OA
HETATM   16  C   UNL     1     -43.235  60.119 -50.883  1.00  0.00     0.120 A 
HETATM   17  C   UNL     1     -42.093  60.597 -50.276  1.00  0.00     0.047 A 
HETATM   18  C   UNL     1     -41.128  59.558 -50.332  1.00  0.00     0.038 A 
BRANCH  16  19
HETATM   19  S   UNL     1     -44.791  60.888 -51.044  1.00  0.00    -0.025 SA
BRANCH  19  20
HETATM   20  C   UNL     1     -45.343  60.598 -49.427  1.00  0.00     0.197 A 
HETATM   21  N   UNL     1     -45.229  61.503 -48.410  1.00  0.00    -0.322 N 
HETATM   22  C   UNL     1     -44.674  62.830 -48.449  1.00  0.00     0.159 C 
HETATM   23  C   UNL     1     -45.752  60.885 -47.311  1.00  0.00     0.235 A 
HETATM   24  N   UNL     1     -46.190  59.690 -47.641  1.00  0.00    -0.143 NA
HETATM   25  N   UNL     1     -45.936  59.512 -48.978  1.00  0.00    -0.123 NA
ENDBRANCH  19  20
ENDBRANCH  16  19
ENDBRANCH  13  14
ENDBRANCH   8  13
BRANCH   1  26
HETATM   26  C   UNL     1     -43.183  56.524 -56.752  1.00  0.00     0.105 C 
HETATM   27  C   UNL     1     -42.350  57.817 -56.733  1.00  0.00     0.053 C 
BRANCH  26  28
HETATM   28  C   UNL     1     -43.053  55.860 -58.165  1.00  0.00     0.276 C 
BRANCH  28  29
HETATM   29  N   UNL     1     -44.366  55.775 -58.951  1.00  0.00    -0.076 N 
HETATM   30  H   UNL     1     -45.141  55.908 -58.289  1.00  0.00     0.279 HD
HETATM   31  C   UNL     1     -44.526  56.854 -59.992  1.00  0.00     0.269 C 
HETATM   32  C   UNL     1     -44.536  54.410 -59.564  1.00  0.00     0.269 C 
ENDBRANCH  28  29
ENDBRANCH  26  28
BRANCH  26  33
HETATM   33  O   UNL     1     -44.568  56.873 -56.581  1.00  0.00    -0.384 OA
HETATM   34  H   UNL     1     -44.635  57.807 -56.310  1.00  0.00     0.211 HD
ENDBRANCH  26  33
ENDBRANCH   1  26
TORSDOF 8
ENDMDL
MODEL 3
REMARK VINA RESULT:      -7.4      3.129      7.343
REMARK  8 active torsions:
REMARK  status: ('A' for Active; 'I' for Inactive)
REMARK    1  A    between atoms: C_2  and  C_4 
REMARK    2  A    between atoms: C_2  and  C_29 
REMARK    3  A    between atoms: C_2  and  O_3 
REMARK    4  A    between atoms: N_11  and  C_13 
REMARK    5  A    between atoms: C_13  and  C_14 
REMARK    6  A    between atoms: C_16  and  S_17 
REMARK    7  A    between atoms: S_17  and  C_18 
REMARK    8  A    between atoms: C_29  and  N_30 
ROOT
HETATM    1  C   UNL     1     -43.150  56.940 -51.666  1.00  0.00    -0.022 A 
HETATM    2  C   UNL     1     -42.277  56.973 -52.773  1.00  0.00     0.022 A 
HETATM    3  C   UNL     1     -41.460  55.879 -53.110  1.00  0.00     0.002 A 
HETATM    4  C   UNL     1     -41.499  54.743 -52.306  1.00  0.00     0.076 A 
HETATM    5  O   UNL     1     -40.685  53.675 -52.555  1.00  0.00    -0.349 OA
HETATM    6  C   UNL     1     -41.079  52.955 -53.732  1.00  0.00     0.203 C 
HETATM    7  C   UNL     1     -40.422  53.515 -55.002  1.00  0.00     0.262 C 
HETATM    8  N   UNL     1     -40.944  54.889 -55.384  1.00  0.00    -0.059 N 
HETATM    9  H   UNL     1     -40.412  55.189 -56.211  1.00  0.00     0.280 HD
HETATM   10  C   UNL     1     -40.590  55.925 -54.332  1.00  0.00     0.276 C 
HETATM   11  C   UNL     1     -42.332  54.689 -51.194  1.00  0.00     0.038 A 
HETATM   12  C   UNL     1     -43.174  55.766 -50.893  1.00  0.00     0.013 A 
ENDROOT
BRANCH   8  13
HETATM   13  C   UNL     1     -42.397  54.872 -55.831  1.00  0.00     0.299 C 
BRANCH  13  14
HETATM   14  C   UNL     1     -42.893  56.126 -56.455  1.00  0.00     0.080 A 
HETATM   15  O   UNL     1     -42.631  56.298 -57.776  1.00  0.00    -0.306 OA
HETATM   16  C   UNL     1     -43.219  57.463 -58.181  1.00  0.00     0.120 A 
HETATM   17  C   UNL     1     -43.767  58.089 -57.081  1.00  0.00     0.047 A 
HETATM   18  C   UNL     1     -43.567  57.227 -55.971  1.00  0.00     0.038 A 
BRANCH  16  19
HETATM   19  S   UNL     1     -43.232  57.973 -59.847  1.00  0.00    -0.025 SA
BRANCH  19  20
HETATM   20  C   UNL     1     -44.403  56.828 -60.415  1.00  0.00     0.197 A 
HETATM   21  N   UNL     1     -45.753  57.016 -60.333  1.00  0.00    -0.322 N 
HETATM   22  C   UNL     1     -46.471  58.147 -59.805  1.00  0.00     0.159 C 
HETATM   23  C   UNL     1     -46.312  55.887 -60.858  1.00  0.00     0.235 A 
HETATM   24  N   UNL     1     -45.365  55.073 -61.266  1.00  0.00    -0.143 NA
HETATM   25  N   UNL     1     -44.160  55.670 -60.991  1.00  0.00    -0.123 NA
ENDBRANCH  19  20
ENDBRANCH  16  19
ENDBRANCH  13  14
ENDBRANCH   8  13
BRANCH   1  26
HETATM   26  C   UNL     1     -44.090  58.120 -51.397  1.00  0.00     0.105 C 
HETATM   27  C   UNL     1     -43.241  59.362 -51.077  1.00  0.00     0.053 C 
BRANCH  26  28
HETATM   28  C   UNL     1     -45.070  58.466 -52.569  1.00  0.00     0.276 C 
BRANCH  28  29
HETATM   29  N   UNL     1     -45.239  59.965 -52.837  1.00  0.00    -0.076 N 
HETATM   30  H   UNL     1     -44.451  60.456 -52.396  1.00  0.00     0.279 HD
HETATM   31  C   UNL     1     -45.187  60.333 -54.299  1.00  0.00     0.269 C 
HETATM   32  C   UNL     1     -46.499  60.485 -52.199  1.00  0.00     0.269 C 
ENDBRANCH  28  29
ENDBRANCH  26  28
BRANCH  26  33
HETATM   33  O   UNL     1     -44.903  57.817 -50.249  1.00  0.00    -0.384 OA
HETATM   34  H   UNL     1     -45.361  56.969 -50.393  1.00  0.00     0.211 HD
ENDBRANCH  26  33
ENDBRANCH   1  26
TORSDOF 8
ENDMDL
MODEL 4
REMARK VINA RESULT:      -7.4      2.632      3.264
REMARK  8 active torsions:
REMARK  status: ('A' for Active; 'I' for Inactive)
REMARK    1  A    between atoms: C_2  and  C_4 
REMARK    2  A    between atoms: C_2  and  C_29 
REMARK    3  A    between atoms: C_2  and  O_3 
REMARK    4  A    between atoms: N_11  and  C_13 
REMARK    5  A    between atoms: C_13  and  C_14 
REMARK    6  A    between atoms: C_16  and  S_17 
REMARK    7  A    between atoms: S_17  and  C_18 
REMARK    8  A    between atoms: C_29  and  N_30 
ROOT
HETATM    1  C   UNL     1     -42.114  54.980 -55.131  1.00  0.00    -0.022 A 
HETATM    2  C   UNL     1     -42.689  54.810 -53.854  1.00  0.00     0.022 A 
HETATM    3  C   UNL     1     -42.099  53.990 -52.876  1.00  0.00     0.002 A 
HETATM    4  C   UNL     1     -40.927  53.309 -53.193  1.00  0.00     0.076 A 
HETATM    5  O   UNL     1     -40.343  52.456 -52.298  1.00  0.00    -0.349 OA
HETATM    6  C   UNL     1     -39.737  53.152 -51.201  1.00  0.00     0.203 C 
HETATM    7  C   UNL     1     -40.724  53.389 -50.048  1.00  0.00     0.262 C 
HETATM    8  N   UNL     1     -41.809  54.395 -50.392  1.00  0.00    -0.059 N 
HETATM    9  H   UNL     1     -42.435  54.445 -49.578  1.00  0.00     0.280 HD
HETATM   10  C   UNL     1     -42.703  53.882 -51.506  1.00  0.00     0.276 C 
HETATM   11  C   UNL     1     -40.349  53.438 -54.451  1.00  0.00     0.038 A 
HETATM   12  C   UNL     1     -40.920  54.291 -55.403  1.00  0.00     0.013 A 
ENDROOT
BRANCH   8  13
HETATM   13  C   UNL     1     -41.277  55.808 -50.569  1.00  0.00     0.299 C 
BRANCH  13  14
HETATM   14  C   UNL     1     -42.293  56.844 -50.885  1.00  0.00     0.080 A 
HETATM   15  O   UNL     1     -41.853  58.126 -50.980  1.00  0.00    -0.306 OA
HETATM   16  C   UNL     1     -42.908  58.914 -51.341  1.00  0.00     0.120 A 
HETATM   17  C   UNL     1     -44.051  58.143 -51.368  1.00  0.00     0.047 A 
HETATM   18  C   UNL     1     -43.657  56.809 -51.085  1.00  0.00     0.038 A 
BRANCH  16  19
HETATM   19  S   UNL     1     -42.726  60.610 -51.702  1.00  0.00    -0.025 SA
BRANCH  19  20
HETATM   20  C   UNL     1     -42.390  60.436 -53.393  1.00  0.00     0.197 A 
HETATM   21  N   UNL     1     -42.786  61.333 -54.344  1.00  0.00    -0.322 N 
HETATM   22  C   UNL     1     -43.512  62.564 -54.168  1.00  0.00     0.159 C 
HETATM   23  C   UNL     1     -42.354  60.821 -55.533  1.00  0.00     0.235 A 
HETATM   24  N   UNL     1     -41.705  59.698 -55.320  1.00  0.00    -0.143 NA
HETATM   25  N   UNL     1     -41.724  59.458 -53.969  1.00  0.00    -0.123 NA
ENDBRANCH  19  20
ENDBRANCH  16  19
ENDBRANCH  13  14
ENDBRANCH   8  13
BRANCH   1  26
HETATM   26  C   UNL     1     -42.744  55.959 -56.129  1.00  0.00     0.105 C 
HETATM   27  C   UNL     1     -42.906  55.245 -57.482  1.00  0.00     0.053 C 
BRANCH  26  28
HETATM   28  C   UNL     1     -44.131  56.544 -55.696  1.00  0.00     0.276 C 
BRANCH  28  29
HETATM   29  N   UNL     1     -44.327  58.027 -56.024  1.00  0.00    -0.076 N 
HETATM   30  H   UNL     1     -43.408  58.486 -55.974  1.00  0.00     0.279 HD
HETATM   31  C   UNL     1     -44.838  58.281 -57.420  1.00  0.00     0.269 C 
HETATM   32  C   UNL     1     -45.210  58.690 -55.001  1.00  0.00     0.269 C 
ENDBRANCH  28  29
ENDBRANCH  26  28
BRANCH  26  33
HETATM   33  O   UNL     1     -41.857  57.077 -56.308  1.00  0.00    -0.384 OA
HETATM   34  H   UNL     1     -42.242  57.866 -55.882  1.00  0.00     0.211 HD
ENDBRANCH  26  33
ENDBRANCH   1  26
TORSDOF 8
ENDMDL
MODEL 5
REMARK VINA RESULT:      -7.2      2.906      7.531
REMARK  8 active torsions:
REMARK  status: ('A' for Active; 'I' for Inactive)
REMARK    1  A    between atoms: C_2  and  C_4 
REMARK    2  A    between atoms: C_2  and  C_29 
REMARK    3  A    between atoms: C_2  and  O_3 
REMARK    4  A    between atoms: N_11  and  C_13 
REMARK    5  A    between atoms: C_13  and  C_14 
REMARK    6  A    between atoms: C_16  and  S_17 
REMARK    7  A    between atoms: S_17  and  C_18 
REMARK    8  A    between atoms: C_29  and  N_30 
ROOT
HETATM    1  C   UNL     1     -41.010  57.743 -51.043  1.00  0.00    -0.022 A 
HETATM    2  C   UNL     1     -40.960  57.610 -52.446  1.00  0.00     0.022 A 
HETATM    3  C   UNL     1     -41.172  56.375 -53.085  1.00  0.00     0.002 A 
HETATM    4  C   UNL     1     -41.411  55.250 -52.301  1.00  0.00     0.076 A 
HETATM    5  O   UNL     1     -41.568  54.016 -52.867  1.00  0.00    -0.349 OA
HETATM    6  C   UNL     1     -42.815  53.893 -53.565  1.00  0.00     0.203 C 
HETATM    7  C   UNL     1     -42.707  54.346 -55.028  1.00  0.00     0.262 C 
HETATM    8  N   UNL     1     -42.504  55.845 -55.173  1.00  0.00    -0.059 N 
HETATM    9  H   UNL     1     -42.399  56.034 -56.178  1.00  0.00     0.280 HD
HETATM   10  C   UNL     1     -41.176  56.281 -54.583  1.00  0.00     0.276 C 
HETATM   11  C   UNL     1     -41.443  55.345 -50.913  1.00  0.00     0.038 A 
HETATM   12  C   UNL     1     -41.275  56.587 -50.290  1.00  0.00     0.013 A 
ENDROOT
BRANCH   8  13
HETATM   13  C   UNL     1     -43.717  56.655 -54.742  1.00  0.00     0.299 C 
BRANCH  13  14
HETATM   14  C   UNL     1     -44.302  57.540 -55.781  1.00  0.00     0.080 A 
HETATM   15  O   UNL     1     -43.613  57.656 -56.946  1.00  0.00    -0.306 OA
HETATM   16  C   UNL     1     -44.335  58.449 -57.793  1.00  0.00     0.120 A 
HETATM   17  C   UNL     1     -45.440  58.928 -57.119  1.00  0.00     0.047 A 
HETATM   18  C   UNL     1     -45.426  58.337 -55.829  1.00  0.00     0.038 A 
BRANCH  16  19
HETATM   19  S   UNL     1     -43.857  58.729 -59.445  1.00  0.00    -0.025 SA
BRANCH  19  20
HETATM   20  C   UNL     1     -44.312  57.178 -60.069  1.00  0.00     0.197 A 
HETATM   21  N   UNL     1     -45.596  56.830 -60.380  1.00  0.00    -0.322 N 
HETATM   22  C   UNL     1     -46.790  57.629 -60.284  1.00  0.00     0.159 C 
HETATM   23  C   UNL     1     -45.531  55.535 -60.806  1.00  0.00     0.235 A 
HETATM   24  N   UNL     1     -44.282  55.126 -60.789  1.00  0.00    -0.143 NA
HETATM   25  N   UNL     1     -43.513  56.165 -60.329  1.00  0.00    -0.123 NA
ENDBRANCH  19  20
ENDBRANCH  16  19
ENDBRANCH  13  14
ENDBRANCH   8  13
BRANCH   1  26
HETATM   26  C   UNL     1     -40.867  59.128 -50.401  1.00  0.00     0.105 C 
HETATM   27  C   UNL     1     -39.433  59.633 -50.634  1.00  0.00     0.053 C 
BRANCH  26  28
HETATM   28  C   UNL     1     -41.876  60.206 -50.924  1.00  0.00     0.276 C 
BRANCH  28  29
HETATM   29  N   UNL     1     -43.343  59.921 -50.589  1.00  0.00    -0.076 N 
HETATM   30  H   UNL     1     -43.373  59.102 -49.970  1.00  0.00     0.279 HD
HETATM   31  C   UNL     1     -44.024  61.034 -49.832  1.00  0.00     0.269 C 
HETATM   32  C   UNL     1     -44.117  59.568 -51.831  1.00  0.00     0.269 C 
ENDBRANCH  28  29
ENDBRANCH  26  28
BRANCH  26  33
HETATM   33  O   UNL     1     -41.082  59.009 -48.984  1.00  0.00    -0.384 OA
HETATM   34  H   UNL     1     -41.847  59.557 -48.726  1.00  0.00     0.211 HD
ENDBRANCH  26  33
ENDBRANCH   1  26
TORSDOF 8
ENDMDL
MODEL 6
REMARK VINA RESULT:      -7.1      2.211      2.809
REMARK  8 active torsions:
REMARK  status: ('A' for Active; 'I' for Inactive)
REMARK    1  A    between atoms: C_2  and  C_4 
REMARK    2  A    between atoms: C_2  and  C_29 
REMARK    3  A    between atoms: C_2  and  O_3 
REMARK    4  A    between atoms: N_11  and  C_13 
REMARK    5  A    between atoms: C_13  and  C_14 
REMARK    6  A    between atoms: C_16  and  S_17 
REMARK    7  A    between atoms: S_17  and  C_18 
REMARK    8  A    between atoms: C_29  and  N_30 
ROOT
HETATM    1  C   UNL     1     -42.588  55.214 -54.641  1.00  0.00    -0.022 A 
HETATM    2  C   UNL     1     -43.005  55.641 -53.363  1.00  0.00     0.022 A 
HETATM    3  C   UNL     1     -42.594  54.985 -52.189  1.00  0.00     0.002 A 
HETATM    4  C   UNL     1     -41.773  53.866 -52.301  1.00  0.00     0.076 A 
HETATM    5  O   UNL     1     -41.392  53.158 -51.195  1.00  0.00    -0.349 OA
HETATM    6  C   UNL     1     -40.442  53.875 -50.394  1.00  0.00     0.203 C 
HETATM    7  C   UNL     1     -41.124  54.775 -49.353  1.00  0.00     0.262 C 
HETATM    8  N   UNL     1     -41.845  55.959 -49.973  1.00  0.00    -0.059 N 
HETATM    9  H   UNL     1     -42.300  56.465 -49.203  1.00  0.00     0.280 HD
HETATM   10  C   UNL     1     -43.004  55.504 -50.842  1.00  0.00     0.276 C 
HETATM   11  C   UNL     1     -41.365  53.406 -53.548  1.00  0.00     0.038 A 
HETATM   12  C   UNL     1     -41.743  54.093 -54.708  1.00  0.00     0.013 A 
ENDROOT
BRANCH   8  13
HETATM   13  C   UNL     1     -40.901  56.968 -50.607  1.00  0.00     0.299 C 
BRANCH  13  14
HETATM   14  C   UNL     1     -41.359  58.381 -50.586  1.00  0.00     0.080 A 
HETATM   15  O   UNL     1     -42.615  58.624 -51.043  1.00  0.00    -0.306 OA
HETATM   16  C   UNL     1     -42.878  59.955 -50.882  1.00  0.00     0.120 A 
HETATM   17  C   UNL     1     -41.739  60.580 -50.421  1.00  0.00     0.047 A 
HETATM   18  C   UNL     1     -40.764  59.569 -50.220  1.00  0.00     0.038 A 
BRANCH  16  19
HETATM   19  S   UNL     1     -44.442  60.645 -51.220  1.00  0.00    -0.025 SA
BRANCH  19  20
HETATM   20  C   UNL     1     -44.532  60.172 -52.885  1.00  0.00     0.197 A 
HETATM   21  N   UNL     1     -43.983  60.889 -53.910  1.00  0.00    -0.322 N 
HETATM   22  C   UNL     1     -43.235  62.117 -53.847  1.00  0.00     0.159 C 
HETATM   23  C   UNL     1     -44.296  60.200 -55.047  1.00  0.00     0.235 A 
HETATM   24  N   UNL     1     -44.964  59.112 -54.734  1.00  0.00    -0.143 NA
HETATM   25  N   UNL     1     -45.108  59.092 -53.370  1.00  0.00    -0.123 NA
ENDBRANCH  19  20
ENDBRANCH  16  19
ENDBRANCH  13  14
ENDBRANCH   8  13
BRANCH   1  26
HETATM   26  C   UNL     1     -42.985  56.019 -55.884  1.00  0.00     0.105 C 
HETATM   27  C   UNL     1     -42.109  57.282 -55.952  1.00  0.00     0.053 C 
BRANCH  26  28
HETATM   28  C   UNL     1     -42.863  55.245 -57.240  1.00  0.00     0.276 C 
BRANCH  28  29
HETATM   29  N   UNL     1     -43.748  55.790 -58.366  1.00  0.00    -0.076 N 
HETATM   30  H   UNL     1     -44.553  56.262 -57.935  1.00  0.00     0.279 HD
HETATM   31  C   UNL     1     -43.073  56.831 -59.224  1.00  0.00     0.269 C 
HETATM   32  C   UNL     1     -44.291  54.669 -59.211  1.00  0.00     0.269 C 
ENDBRANCH  28  29
ENDBRANCH  26  28
BRANCH  26  33
HETATM   33  O   UNL     1     -44.359  56.425 -55.757  1.00  0.00    -0.384 OA
HETATM   34  H   UNL     1     -44.896  55.664 -55.468  1.00  0.00     0.211 HD
ENDBRANCH  26  33
ENDBRANCH   1  26
TORSDOF 8
ENDMDL
MODEL 7
REMARK VINA RESULT:      -7.1      3.291      7.831
REMARK  8 active torsions:
REMARK  status: ('A' for Active; 'I' for Inactive)
REMARK    1  A    between atoms: C_2  and  C_4 
REMARK    2  A    between atoms: C_2  and  C_29 
REMARK    3  A    between atoms: C_2  and  O_3 
REMARK    4  A    between atoms: N_11  and  C_13 
REMARK    5  A    between atoms: C_13  and  C_14 
REMARK    6  A    between atoms: C_16  and  S_17 
REMARK    7  A    between atoms: S_17  and  C_18 
REMARK    8  A    between atoms: C_29  and  N_30 
ROOT
HETATM    1  C   UNL     1     -41.227  56.053 -50.533  1.00  0.00    -0.022 A 
HETATM    2  C   UNL     1     -42.310  56.211 -51.422  1.00  0.00     0.022 A 
HETATM    3  C   UNL     1     -42.738  57.478 -51.856  1.00  0.00     0.002 A 
HETATM    4  C   UNL     1     -42.085  58.607 -51.368  1.00  0.00     0.076 A 
HETATM    5  O   UNL     1     -42.496  59.864 -51.714  1.00  0.00    -0.349 OA
HETATM    6  C   UNL     1     -42.192  60.178 -53.080  1.00  0.00     0.203 C 
HETATM    7  C   UNL     1     -43.313  59.749 -54.037  1.00  0.00     0.262 C 
HETATM    8  N   UNL     1     -43.438  58.241 -54.168  1.00  0.00    -0.059 N 
HETATM    9  H   UNL     1     -44.238  58.063 -54.788  1.00  0.00     0.280 HD
HETATM   10  C   UNL     1     -43.853  57.607 -52.852  1.00  0.00     0.276 C 
HETATM   11  C   UNL     1     -41.029  58.485 -50.472  1.00  0.00     0.038 A 
HETATM   12  C   UNL     1     -40.582  57.217 -50.081  1.00  0.00     0.013 A 
ENDROOT
BRANCH   8  13
HETATM   13  C   UNL     1     -42.247  57.602 -54.863  1.00  0.00     0.299 C 
BRANCH  13  14
HETATM   14  C   UNL     1     -42.551  56.870 -56.120  1.00  0.00     0.080 A 
HETATM   15  O   UNL     1     -42.573  57.602 -57.264  1.00  0.00    -0.306 OA
HETATM   16  C   UNL     1     -42.799  56.752 -58.310  1.00  0.00     0.120 A 
HETATM   17  C   UNL     1     -43.032  55.486 -57.812  1.00  0.00     0.047 A 
HETATM   18  C   UNL     1     -42.863  55.558 -56.405  1.00  0.00     0.038 A 
BRANCH  16  19
HETATM   19  S   UNL     1     -42.761  57.283 -59.969  1.00  0.00    -0.025 SA
BRANCH  19  20
HETATM   20  C   UNL     1     -44.254  56.554 -60.464  1.00  0.00     0.197 A 
HETATM   21  N   UNL     1     -45.485  57.070 -60.176  1.00  0.00    -0.322 N 
HETATM   22  C   UNL     1     -45.807  58.275 -59.456  1.00  0.00     0.159 C 
HETATM   23  C   UNL     1     -46.384  56.195 -60.713  1.00  0.00     0.235 A 
HETATM   24  N   UNL     1     -45.743  55.221 -61.321  1.00  0.00    -0.143 NA
HETATM   25  N   UNL     1     -44.399  55.451 -61.168  1.00  0.00    -0.123 NA
ENDBRANCH  19  20
ENDBRANCH  16  19
ENDBRANCH  13  14
ENDBRANCH   8  13
BRANCH   1  26
HETATM   26  C   UNL     1     -40.738  54.647 -50.165  1.00  0.00     0.105 C 
HETATM   27  C   UNL     1     -41.204  54.323 -48.735  1.00  0.00     0.053 C 
BRANCH  26  28
HETATM   28  C   UNL     1     -41.220  53.507 -51.125  1.00  0.00     0.276 C 
BRANCH  28  29
HETATM   29  N   UNL     1     -40.197  53.094 -52.187  1.00  0.00    -0.076 N 
HETATM   30  H   UNL     1     -39.387  53.723 -52.109  1.00  0.00     0.279 HD
HETATM   31  C   UNL     1     -39.653  51.700 -52.001  1.00  0.00     0.269 C 
HETATM   32  C   UNL     1     -40.761  53.268 -53.572  1.00  0.00     0.269 C 
ENDBRANCH  28  29
ENDBRANCH  26  28
BRANCH  26  33
HETATM   33  O   UNL     1     -39.300  54.632 -50.189  1.00  0.00    -0.384 OA
HETATM   34  H   UNL     1     -38.967  55.549 -50.196  1.00  0.00     0.211 HD
ENDBRANCH  26  33
ENDBRANCH   1  26
TORSDOF 8
ENDMDL
MODEL 8
REMARK VINA RESULT:      -7.1      3.105      6.483
REMARK  8 active torsions:
REMARK  status: ('A' for Active; 'I' for Inactive)
REMARK    1  A    between atoms: C_2  and  C_4 
REMARK    2  A    between atoms: C_2  and  C_29 
REMARK    3  A    between atoms: C_2  and  O_3 
REMARK    4  A    between atoms: N_11  and  C_13 
REMARK    5  A    between atoms: C_13  and  C_14 
REMARK    6  A    between atoms: C_16  and  S_17 
REMARK    7  A    between atoms: S_17  and  C_18 
REMARK    8  A    between atoms: C_29  and  N_30 
ROOT
HETATM    1  C   UNL     1     -42.393  55.716 -55.222  1.00  0.00    -0.022 A 
HETATM    2  C   UNL     1     -42.052  56.902 -55.906  1.00  0.00     0.022 A 
HETATM    3  C   UNL     1     -42.381  57.101 -57.259  1.00  0.00     0.002 A 
HETATM    4  C   UNL     1     -43.038  56.083 -57.944  1.00  0.00     0.076 A 
HETATM    5  O   UNL     1     -43.330  56.203 -59.274  1.00  0.00    -0.349 OA
HETATM    6  C   UNL     1     -44.378  57.152 -59.516  1.00  0.00     0.203 C 
HETATM    7  C   UNL     1     -43.838  58.578 -59.697  1.00  0.00     0.262 C 
HETATM    8  N   UNL     1     -43.279  59.169 -58.414  1.00  0.00    -0.059 N 
HETATM    9  H   UNL     1     -42.907  60.097 -58.653  1.00  0.00     0.280 HD
HETATM   10  C   UNL     1     -42.060  58.401 -57.938  1.00  0.00     0.276 C 
HETATM   11  C   UNL     1     -43.366  54.893 -57.304  1.00  0.00     0.038 A 
HETATM   12  C   UNL     1     -43.074  54.722 -55.945  1.00  0.00     0.013 A 
ENDROOT
BRANCH   8  13
HETATM   13  C   UNL     1     -44.348  59.430 -57.364  1.00  0.00     0.299 C 
BRANCH  13  14
HETATM   14  C   UNL     1     -43.921  60.251 -56.202  1.00  0.00     0.080 A 
HETATM   15  O   UNL     1     -44.013  59.672 -54.976  1.00  0.00    -0.306 OA
HETATM   16  C   UNL     1     -43.516  60.547 -54.052  1.00  0.00     0.120 A 
HETATM   17  C   UNL     1     -43.208  61.734 -54.684  1.00  0.00     0.047 A 
HETATM   18  C   UNL     1     -43.459  61.543 -56.068  1.00  0.00     0.038 A 
BRANCH  16  19
HETATM   19  S   UNL     1     -43.328  60.124 -52.372  1.00  0.00    -0.025 SA
BRANCH  19  20
HETATM   20  C   UNL     1     -41.666  59.641 -52.455  1.00  0.00     0.197 A 
HETATM   21  N   UNL     1     -40.870  59.464 -51.359  1.00  0.00    -0.322 N 
HETATM   22  C   UNL     1     -41.212  59.609 -49.968  1.00  0.00     0.159 C 
HETATM   23  C   UNL     1     -39.644  59.116 -51.850  1.00  0.00     0.235 A 
HETATM   24  N   UNL     1     -39.695  59.053 -53.162  1.00  0.00    -0.143 NA
HETATM   25  N   UNL     1     -40.973  59.379 -53.542  1.00  0.00    -0.123 NA
ENDBRANCH  19  20
ENDBRANCH  16  19
ENDBRANCH  13  14
ENDBRANCH   8  13
BRANCH   1  26
HETATM   26  C   UNL     1     -42.098  55.586 -53.724  1.00  0.00     0.105 C 
HETATM   27  C   UNL     1     -43.222  56.284 -52.939  1.00  0.00     0.053 C 
BRANCH  26  28
HETATM   28  C   UNL     1     -41.956  54.116 -53.203  1.00  0.00     0.276 C 
BRANCH  28  29
HETATM   29  N   UNL     1     -40.515  53.598 -53.145  1.00  0.00    -0.076 N 
HETATM   30  H   UNL     1     -39.885  54.396 -53.292  1.00  0.00     0.279 HD
HETATM   31  C   UNL     1     -40.131  53.011 -51.810  1.00  0.00     0.269 C 
HETATM   32  C   UNL     1     -40.253  52.616 -54.256  1.00  0.00     0.269 C 
ENDBRANCH  28  29
ENDBRANCH  26  28
BRANCH  26  33
HETATM   33  O   UNL     1     -40.858  56.254 -53.432  1.00  0.00    -0.384 OA
HETATM   34  H   UNL     1     -40.290  55.664 -52.902  1.00  0.00     0.211 HD
ENDBRANCH  26  33
ENDBRANCH   1  26
TORSDOF 8
ENDMDL
MODEL 9
REMARK VINA RESULT:      -7.0      2.820      6.442
REMARK  8 active torsions:
REMARK  status: ('A' for Active; 'I' for Inactive)
REMARK    1  A    between atoms: C_2  and  C_4 
REMARK    2  A    between atoms: C_2  and  C_29 
REMARK    3  A    between atoms: C_2  and  O_3 
REMARK    4  A    between atoms: N_11  and  C_13 
REMARK    5  A    between atoms: C_13  and  C_14 
REMARK    6  A    between atoms: C_16  and  S_17 
REMARK    7  A    between atoms: S_17  and  C_18 
REMARK    8  A    between atoms: C_29  and  N_30 
ROOT
HETATM    1  C   UNL     1     -42.290  57.328 -51.771  1.00  0.00    -0.022 A 
HETATM    2  C   UNL     1     -41.630  57.086 -52.994  1.00  0.00     0.022 A 
HETATM    3  C   UNL     1     -40.986  55.865 -53.263  1.00  0.00     0.002 A 
HETATM    4  C   UNL     1     -40.983  54.880 -52.279  1.00  0.00     0.076 A 
HETATM    5  O   UNL     1     -40.324  53.697 -52.468  1.00  0.00    -0.349 OA
HETATM    6  C   UNL     1     -40.984  52.855 -53.422  1.00  0.00     0.203 C 
HETATM    7  C   UNL     1     -40.518  53.130 -54.859  1.00  0.00     0.262 C 
HETATM    8  N   UNL     1     -40.974  54.480 -55.384  1.00  0.00    -0.059 N 
HETATM    9  H   UNL     1     -40.574  54.583 -56.325  1.00  0.00     0.280 HD
HETATM   10  C   UNL     1     -40.348  55.617 -54.599  1.00  0.00     0.276 C 
HETATM   11  C   UNL     1     -41.605  55.097 -51.055  1.00  0.00     0.038 A 
HETATM   12  C   UNL     1     -42.281  56.299 -50.813  1.00  0.00     0.013 A 
ENDROOT
BRANCH   8  13
HETATM   13  C   UNL     1     -42.480  54.564 -55.582  1.00  0.00     0.299 C 
BRANCH  13  14
HETATM   14  C   UNL     1     -42.949  55.626 -56.510  1.00  0.00     0.080 A 
HETATM   15  O   UNL     1     -43.415  56.769 -55.945  1.00  0.00    -0.306 OA
HETATM   16  C   UNL     1     -43.732  57.642 -56.947  1.00  0.00     0.120 A 
HETATM   17  C   UNL     1     -43.567  57.006 -58.160  1.00  0.00     0.047 A 
HETATM   18  C   UNL     1     -43.054  55.712 -57.881  1.00  0.00     0.038 A 
BRANCH  16  19
HETATM   19  S   UNL     1     -44.236  59.281 -56.633  1.00  0.00    -0.025 SA
BRANCH  19  20
HETATM   20  C   UNL     1     -42.869  60.069 -57.349  1.00  0.00     0.197 A 
HETATM   21  N   UNL     1     -42.863  60.580 -58.616  1.00  0.00    -0.322 N 
HETATM   22  C   UNL     1     -43.930  60.596 -59.582  1.00  0.00     0.159 C 
HETATM   23  C   UNL     1     -41.607  61.082 -58.802  1.00  0.00     0.235 A 
HETATM   24  N   UNL     1     -40.900  60.920 -57.706  1.00  0.00    -0.143 NA
HETATM   25  N   UNL     1     -41.698  60.285 -56.788  1.00  0.00    -0.123 NA
ENDBRANCH  19  20
ENDBRANCH  16  19
ENDBRANCH  13  14
ENDBRANCH   8  13
BRANCH   1  26
HETATM   26  C   UNL     1     -43.059  58.638 -51.563  1.00  0.00     0.105 C 
HETATM   27  C   UNL     1     -42.130  59.647 -50.866  1.00  0.00     0.053 C 
BRANCH  26  28
HETATM   28  C   UNL     1     -43.623  59.289 -52.872  1.00  0.00     0.276 C 
BRANCH  28  29
HETATM   29  N   UNL     1     -44.028  60.759 -52.727  1.00  0.00    -0.076 N 
HETATM   30  H   UNL     1     -43.757  61.072 -51.786  1.00  0.00     0.279 HD
HETATM   31  C   UNL     1     -43.323  61.684 -53.687  1.00  0.00     0.269 C 
HETATM   32  C   UNL     1     -45.522  60.916 -52.833  1.00  0.00     0.269 C 
ENDBRANCH  28  29
ENDBRANCH  26  28
BRANCH  26  33
HETATM   33  O   UNL     1     -44.184  58.387 -50.703  1.00  0.00    -0.384 OA
HETATM   34  H   UNL     1     -44.920  58.977 -50.953  1.00  0.00     0.211 HD
ENDBRANCH  26  33
ENDBRANCH   1  26
TORSDOF 8
ENDMDL
MODEL 10
REMARK VINA RESULT:      -6.9      3.333      6.933
REMARK  8 active torsions:
REMARK  status: ('A' for Active; 'I' for Inactive)
REMARK    1  A    between atoms: C_2  and  C_4 
REMARK    2  A    between atoms: C_2  and  C_29 
REMARK    3  A    between atoms: C_2  and  O_3 
REMARK    4  A    between atoms: N_11  and  C_13 
REMARK    5  A    between atoms: C_13  and  C_14 
REMARK    6  A    between atoms: C_16  and  S_17 
REMARK    7  A    between atoms: S_17  and  C_18 
REMARK    8  A    between atoms: C_29  and  N_30 
ROOT
HETATM    1  C   UNL     1     -40.456  53.091 -50.899  1.00  0.00    -0.022 A 
HETATM    2  C   UNL     1     -41.614  53.622 -51.504  1.00  0.00     0.022 A 
HETATM    3  C   UNL     1     -42.047  54.936 -51.255  1.00  0.00     0.002 A 
HETATM    4  C   UNL     1     -41.322  55.722 -50.364  1.00  0.00     0.076 A 
HETATM    5  O   UNL     1     -41.731  56.986 -50.044  1.00  0.00    -0.349 OA
HETATM    6  C   UNL     1     -41.549  57.906 -51.129  1.00  0.00     0.203 C 
HETATM    7  C   UNL     1     -42.766  57.949 -52.064  1.00  0.00     0.262 C 
HETATM    8  N   UNL     1     -42.943  56.673 -52.868  1.00  0.00    -0.059 N 
HETATM    9  H   UNL     1     -43.802  56.787 -53.420  1.00  0.00     0.280 HD
HETATM   10  C   UNL     1     -43.248  55.491 -51.966  1.00  0.00     0.276 C 
HETATM   11  C   UNL     1     -40.189  55.218 -49.733  1.00  0.00     0.038 A 
HETATM   12  C   UNL     1     -39.741  53.924 -50.021  1.00  0.00     0.013 A 
ENDROOT
BRANCH   8  13
HETATM   13  C   UNL     1     -41.840  56.455 -53.892  1.00  0.00     0.299 C 
BRANCH  13  14
HETATM   14  C   UNL     1     -42.294  56.128 -55.268  1.00  0.00     0.080 A 
HETATM   15  O   UNL     1     -42.498  57.173 -56.110  1.00  0.00    -0.306 OA
HETATM   16  C   UNL     1     -42.841  56.675 -57.335  1.00  0.00     0.120 A 
HETATM   17  C   UNL     1     -42.963  55.304 -57.238  1.00  0.00     0.047 A 
HETATM   18  C   UNL     1     -42.602  54.949 -55.912  1.00  0.00     0.038 A 
BRANCH  16  19
HETATM   19  S   UNL     1     -43.051  57.694 -58.733  1.00  0.00    -0.025 SA
BRANCH  19  20
HETATM   20  C   UNL     1     -44.759  57.464 -58.914  1.00  0.00     0.197 A 
HETATM   21  N   UNL     1     -45.319  56.578 -59.790  1.00  0.00    -0.322 N 
HETATM   22  C   UNL     1     -44.659  55.674 -60.696  1.00  0.00     0.159 C 
HETATM   23  C   UNL     1     -46.668  56.722 -59.644  1.00  0.00     0.235 A 
HETATM   24  N   UNL     1     -46.919  57.616 -58.713  1.00  0.00    -0.143 NA
HETATM   25  N   UNL     1     -45.714  58.079 -58.249  1.00  0.00    -0.123 NA
ENDBRANCH  19  20
ENDBRANCH  16  19
ENDBRANCH  13  14
ENDBRANCH   8  13
BRANCH   1  26
HETATM   26  C   UNL     1     -39.971  51.686 -51.275  1.00  0.00     0.105 C 
HETATM   27  C   UNL     1     -40.270  50.732 -50.106  1.00  0.00     0.053 C 
BRANCH  26  28
HETATM   28  C   UNL     1     -40.603  51.097 -52.583  1.00  0.00     0.276 C 
BRANCH  28  29
HETATM   29  N   UNL     1     -39.723  51.232 -53.830  1.00  0.00    -0.076 N 
HETATM   30  H   UNL     1     -38.756  51.390 -53.521  1.00  0.00     0.279 HD
HETATM   31  C   UNL     1     -39.683  49.990 -54.685  1.00  0.00     0.269 C 
HETATM   32  C   UNL     1     -40.130  52.430 -54.646  1.00  0.00     0.269 C 
ENDBRANCH  28  29
ENDBRANCH  26  28
BRANCH  26  33
HETATM   33  O   UNL     1     -38.548  51.723 -51.480  1.00  0.00    -0.384 OA
HETATM   34  H   UNL     1     -38.349  52.253 -52.273  1.00  0.00     0.211 HD
ENDBRANCH  26  33
ENDBRANCH   1  26
TORSDOF 8
ENDMDL
