MODEL 1
REMARK VINA RESULT:      -8.6      0.000      0.000
REMARK  9 active torsions:
REMARK  status: ('A' for Active; 'I' for Inactive)
REMARK    1  A    between atoms: O_2  and  C_3 
REMARK    2  A    between atoms: C_4  and  O_5 
REMARK    3  A    between atoms: C_8  and  C_9 
REMARK    4  A    between atoms: C_9  and  N_10 
REMARK    5  A    between atoms: C_14  and  O_15 
REMARK    6  A    between atoms: C_14  and  C_16 
REMARK    7  A    between atoms: C_21  and  C_22 
REMARK       I    between atoms: C_22  and  N_23 
REMARK    8  A    between atoms: N_23  and  C_24 
REMARK    9  A    between atoms: C_24  and  C_25 
ROOT
HETATM    1  N   UNL     1     -42.000  56.481 -53.160  1.00  0.00    -0.067 N 
HETATM    2  H   UNL     1     -41.895  55.981 -54.053  1.00  0.00     0.280 HD
HETATM    3  C   UNL     1     -43.463  56.844 -53.032  1.00  0.00     0.238 C 
HETATM    4  C   UNL     1     -43.846  57.913 -54.040  1.00  0.00     0.071 C 
HETATM    5  C   UNL     1     -42.995  59.185 -53.867  1.00  0.00     0.088 C 
HETATM    6  C   UNL     1     -41.549  58.740 -54.154  1.00  0.00     0.071 C 
HETATM    7  C   UNL     1     -41.072  57.673 -53.181  1.00  0.00     0.238 C 
ENDROOT
BRANCH   5   8
HETATM    8  O   UNL     1     -43.365  60.081 -54.915  1.00  0.00    -0.385 OA
HETATM    9  H   UNL     1     -43.965  59.630 -55.537  1.00  0.00     0.211 HD
ENDBRANCH   5   8
BRANCH   5  10
HETATM   10  C   UNL     1     -43.210  59.896 -52.522  1.00  0.00    -0.023 A 
HETATM   11  C   UNL     1     -44.512  60.265 -52.106  1.00  0.00     0.024 A 
HETATM   12  C   UNL     1     -44.724  60.787 -50.816  1.00  0.00     0.001 A 
HETATM   13  C   UNL     1     -43.627  60.981 -49.994  1.00  0.00     0.086 A 
HETATM   14  C   UNL     1     -45.850  61.197 -50.058  1.00  0.00     0.057 A 
HETATM   15  O   UNL     1     -44.018  61.434 -48.773  1.00  0.00    -0.304 OA
HETATM   16  C   UNL     1     -42.317  60.741 -50.385  1.00  0.00     0.039 A 
HETATM   17  C   UNL     1     -45.383  61.560 -48.808  1.00  0.00     0.144 A 
HETATM   18  C   UNL     1     -42.132  60.210 -51.670  1.00  0.00     0.013 A 
BRANCH  17  19
HETATM   19  C   UNL     1     -46.093  62.010 -47.628  1.00  0.00     0.275 C 
HETATM   20  N   UNL     1     -45.285  62.563 -46.660  1.00  0.00    -0.353 N 
HETATM   21  H   UNL     1     -44.284  62.479 -46.787  1.00  0.00     0.162 HD
HETATM   22  O   UNL     1     -47.305  61.876 -47.483  1.00  0.00    -0.265 OA
BRANCH  20  23
HETATM   23  C   UNL     1     -45.784  62.920 -45.346  1.00  0.00     0.155 C 
BRANCH  23  24
HETATM   24  C   UNL     1     -44.676  63.388 -44.397  1.00  0.00     0.139 C 
HETATM   25  O   UNL     1     -45.207  64.271 -43.385  1.00  0.00    -0.384 OA
HETATM   26  C   UNL     1     -44.493  64.025 -42.161  1.00  0.00     0.168 C 
HETATM   27  C   UNL     1     -43.442  62.971 -42.451  1.00  0.00     0.029 C 
HETATM   28  C   UNL     1     -44.034  62.243 -43.631  1.00  0.00     0.035 C 
ENDBRANCH  23  24
ENDBRANCH  20  23
ENDBRANCH  17  19
ENDBRANCH   5  10
BRANCH   1  29
HETATM   29  C   UNL     1     -41.546  55.511 -52.075  1.00  0.00     0.273 C 
BRANCH  29  30
HETATM   30  C   UNL     1     -40.921  54.245 -52.587  1.00  0.00    -0.030 A 
HETATM   31  C   UNL     1     -40.409  53.300 -51.684  1.00  0.00     0.048 A 
HETATM   32  C   UNL     1     -39.851  52.107 -52.150  1.00  0.00     0.102 A 
HETATM   33  C   UNL     1     -39.735  51.863 -53.522  1.00  0.00     0.101 A 
HETATM   34  C   UNL     1     -40.252  52.797 -54.424  1.00  0.00     0.040 A 
HETATM   35  C   UNL     1     -40.847  53.977 -53.960  1.00  0.00     0.012 A 
BRANCH  32  36
HETATM   36  O   UNL     1     -39.321  51.212 -51.258  1.00  0.00    -0.353 OA
HETATM   37  C   UNL     1     -40.282  50.803 -50.287  1.00  0.00     0.210 C 
ENDBRANCH  32  36
BRANCH  33  38
HETATM   38  O   UNL     1     -39.164  50.677 -53.893  1.00  0.00    -0.353 OA
HETATM   39  C   UNL     1     -40.026  49.755 -54.554  1.00  0.00     0.210 C 
ENDBRANCH  33  38
ENDBRANCH  29  30
ENDBRANCH   1  29
TORSDOF 9
ENDMDL
MODEL 2
REMARK VINA RESULT:      -8.4      5.233      9.251
REMARK  9 active torsions:
REMARK  status: ('A' for Active; 'I' for Inactive)
REMARK    1  A    between atoms: O_2  and  C_3 
REMARK    2  A    between atoms: C_4  and  O_5 
REMARK    3  A    between atoms: C_8  and  C_9 
REMARK    4  A    between atoms: C_9  and  N_10 
REMARK    5  A    between atoms: C_14  and  O_15 
REMARK    6  A    between atoms: C_14  and  C_16 
REMARK    7  A    between atoms: C_21  and  C_22 
REMARK       I    between atoms: C_22  and  N_23 
REMARK    8  A    between atoms: N_23  and  C_24 
REMARK    9  A    between atoms: C_24  and  C_25 
ROOT
HETATM    1  N   UNL     1     -41.357  55.244 -49.997  1.00  0.00    -0.067 N 
HETATM    2  H   UNL     1     -41.392  55.543 -49.012  1.00  0.00     0.280 HD
HETATM    3  C   UNL     1     -41.367  56.503 -50.835  1.00  0.00     0.238 C 
HETATM    4  C   UNL     1     -42.719  57.192 -50.762  1.00  0.00     0.071 C 
HETATM    5  C   UNL     1     -43.854  56.263 -51.233  1.00  0.00     0.088 C 
HETATM    6  C   UNL     1     -43.849  55.089 -50.236  1.00  0.00     0.071 C 
HETATM    7  C   UNL     1     -42.533  54.329 -50.250  1.00  0.00     0.238 C 
ENDROOT
BRANCH   5   8
HETATM    8  O   UNL     1     -45.079  56.967 -51.034  1.00  0.00    -0.385 OA
HETATM    9  H   UNL     1     -45.294  57.487 -51.831  1.00  0.00     0.211 HD
ENDBRANCH   5   8
BRANCH   5  10
HETATM   10  C   UNL     1     -43.756  55.868 -52.715  1.00  0.00    -0.023 A 
HETATM   11  C   UNL     1     -43.762  56.863 -53.723  1.00  0.00     0.024 A 
HETATM   12  C   UNL     1     -43.530  56.512 -55.068  1.00  0.00     0.001 A 
HETATM   13  C   UNL     1     -43.355  55.175 -55.380  1.00  0.00     0.086 A 
HETATM   14  C   UNL     1     -43.410  57.213 -56.294  1.00  0.00     0.057 A 
HETATM   15  O   UNL     1     -43.087  55.024 -56.705  1.00  0.00    -0.304 OA
HETATM   16  C   UNL     1     -43.447  54.146 -54.452  1.00  0.00     0.039 A 
HETATM   17  C   UNL     1     -43.113  56.275 -57.266  1.00  0.00     0.144 A 
HETATM   18  C   UNL     1     -43.666  54.521 -53.118  1.00  0.00     0.013 A 
BRANCH  17  19
HETATM   19  C   UNL     1     -42.840  56.433 -58.679  1.00  0.00     0.275 C 
HETATM   20  N   UNL     1     -41.954  57.444 -58.973  1.00  0.00    -0.353 N 
HETATM   21  H   UNL     1     -41.689  58.064 -58.217  1.00  0.00     0.162 HD
HETATM   22  O   UNL     1     -43.380  55.751 -59.547  1.00  0.00    -0.265 OA
BRANCH  20  23
HETATM   23  C   UNL     1     -41.680  57.863 -60.335  1.00  0.00     0.155 C 
BRANCH  23  24
HETATM   24  C   UNL     1     -42.081  59.318 -60.601  1.00  0.00     0.139 C 
HETATM   25  O   UNL     1     -43.445  59.396 -61.069  1.00  0.00    -0.384 OA
HETATM   26  C   UNL     1     -44.031  60.595 -60.534  1.00  0.00     0.168 C 
HETATM   27  C   UNL     1     -42.957  61.310 -59.737  1.00  0.00     0.029 C 
HETATM   28  C   UNL     1     -42.037  60.179 -59.350  1.00  0.00     0.035 C 
ENDBRANCH  23  24
ENDBRANCH  20  23
ENDBRANCH  17  19
ENDBRANCH   5  10
BRANCH   1  29
HETATM   29  C   UNL     1     -40.063  54.453 -50.154  1.00  0.00     0.273 C 
BRANCH  29  30
HETATM   30  C   UNL     1     -40.065  53.467 -51.287  1.00  0.00    -0.030 A 
HETATM   31  C   UNL     1     -40.190  53.917 -52.610  1.00  0.00     0.048 A 
HETATM   32  C   UNL     1     -40.165  53.009 -53.671  1.00  0.00     0.102 A 
HETATM   33  C   UNL     1     -40.082  51.634 -53.431  1.00  0.00     0.101 A 
HETATM   34  C   UNL     1     -39.948  51.182 -52.115  1.00  0.00     0.040 A 
HETATM   35  C   UNL     1     -39.934  52.092 -51.050  1.00  0.00     0.012 A 
BRANCH  32  36
HETATM   36  O   UNL     1     -40.326  53.461 -54.955  1.00  0.00    -0.353 OA
HETATM   37  C   UNL     1     -39.906  54.817 -55.093  1.00  0.00     0.210 C 
ENDBRANCH  32  36
BRANCH  33  38
HETATM   38  O   UNL     1     -40.078  50.813 -54.525  1.00  0.00    -0.353 OA
HETATM   39  C   UNL     1     -39.437  49.553 -54.352  1.00  0.00     0.210 C 
ENDBRANCH  33  38
ENDBRANCH  29  30
ENDBRANCH   1  29
TORSDOF 9
ENDMDL
MODEL 3
REMARK VINA RESULT:      -8.2      5.190      9.241
REMARK  9 active torsions:
REMARK  status: ('A' for Active; 'I' for Inactive)
REMARK    1  A    between atoms: O_2  and  C_3 
REMARK    2  A    between atoms: C_4  and  O_5 
REMARK    3  A    between atoms: C_8  and  C_9 
REMARK    4  A    between atoms: C_9  and  N_10 
REMARK    5  A    between atoms: C_14  and  O_15 
REMARK    6  A    between atoms: C_14  and  C_16 
REMARK    7  A    between atoms: C_21  and  C_22 
REMARK       I    between atoms: C_22  and  N_23 
REMARK    8  A    between atoms: N_23  and  C_24 
REMARK    9  A    between atoms: C_24  and  C_25 
ROOT
HETATM    1  N   UNL     1     -41.425  55.348 -50.132  1.00  0.00    -0.067 N 
HETATM    2  H   UNL     1     -41.516  55.595 -49.137  1.00  0.00     0.280 HD
HETATM    3  C   UNL     1     -41.470  56.645 -50.909  1.00  0.00     0.238 C 
HETATM    4  C   UNL     1     -42.858  57.258 -50.861  1.00  0.00     0.071 C 
HETATM    5  C   UNL     1     -43.922  56.297 -51.424  1.00  0.00     0.088 C 
HETATM    6  C   UNL     1     -43.894  55.076 -50.485  1.00  0.00     0.071 C 
HETATM    7  C   UNL     1     -42.539  54.387 -50.478  1.00  0.00     0.238 C 
ENDROOT
BRANCH   5   8
HETATM    8  O   UNL     1     -45.190  56.926 -51.244  1.00  0.00    -0.385 OA
HETATM    9  H   UNL     1     -45.902  56.311 -51.497  1.00  0.00     0.211 HD
ENDBRANCH   5   8
BRANCH   5  10
HETATM   10  C   UNL     1     -43.743  55.982 -52.918  1.00  0.00    -0.023 A 
HETATM   11  C   UNL     1     -43.726  57.028 -53.873  1.00  0.00     0.024 A 
HETATM   12  C   UNL     1     -43.422  56.753 -55.220  1.00  0.00     0.001 A 
HETATM   13  C   UNL     1     -43.198  55.438 -55.592  1.00  0.00     0.086 A 
HETATM   14  C   UNL     1     -43.261  57.519 -56.402  1.00  0.00     0.057 A 
HETATM   15  O   UNL     1     -42.863  55.363 -56.907  1.00  0.00    -0.304 OA
HETATM   16  C   UNL     1     -43.307  54.361 -54.723  1.00  0.00     0.039 A 
HETATM   17  C   UNL     1     -42.894  56.640 -57.405  1.00  0.00     0.144 A 
HETATM   18  C   UNL     1     -43.599  54.660 -53.384  1.00  0.00     0.013 A 
BRANCH  17  19
HETATM   19  C   UNL     1     -42.558  56.878 -58.793  1.00  0.00     0.275 C 
HETATM   20  N   UNL     1     -42.223  58.182 -59.077  1.00  0.00    -0.353 N 
HETATM   21  H   UNL     1     -42.376  58.870 -58.350  1.00  0.00     0.162 HD
HETATM   22  O   UNL     1     -42.604  56.003 -59.654  1.00  0.00    -0.265 OA
BRANCH  20  23
HETATM   23  C   UNL     1     -42.016  58.651 -60.435  1.00  0.00     0.155 C 
BRANCH  23  24
HETATM   24  C   UNL     1     -42.263  60.155 -60.588  1.00  0.00     0.139 C 
HETATM   25  O   UNL     1     -41.494  60.902 -59.619  1.00  0.00    -0.384 OA
HETATM   26  C   UNL     1     -41.073  62.130 -60.238  1.00  0.00     0.168 C 
HETATM   27  C   UNL     1     -41.652  62.157 -61.639  1.00  0.00     0.029 C 
HETATM   28  C   UNL     1     -41.828  60.690 -61.942  1.00  0.00     0.035 C 
ENDBRANCH  23  24
ENDBRANCH  20  23
ENDBRANCH  17  19
ENDBRANCH   5  10
BRANCH   1  29
HETATM   29  C   UNL     1     -40.085  54.634 -50.271  1.00  0.00     0.273 C 
BRANCH  29  30
HETATM   30  C   UNL     1     -40.028  53.620 -51.378  1.00  0.00    -0.030 A 
HETATM   31  C   UNL     1     -39.722  52.281 -51.088  1.00  0.00     0.048 A 
HETATM   32  C   UNL     1     -39.694  51.326 -52.106  1.00  0.00     0.102 A 
HETATM   33  C   UNL     1     -39.906  51.697 -53.438  1.00  0.00     0.101 A 
HETATM   34  C   UNL     1     -40.219  53.027 -53.730  1.00  0.00     0.040 A 
HETATM   35  C   UNL     1     -40.287  53.981 -52.706  1.00  0.00     0.012 A 
BRANCH  32  36
HETATM   36  O   UNL     1     -39.357  50.031 -51.813  1.00  0.00    -0.353 OA
HETATM   37  C   UNL     1     -39.831  49.641 -50.526  1.00  0.00     0.210 C 
ENDBRANCH  32  36
BRANCH  33  38
HETATM   38  O   UNL     1     -39.847  50.702 -54.375  1.00  0.00    -0.353 OA
HETATM   39  C   UNL     1     -41.068  50.012 -54.621  1.00  0.00     0.210 C 
ENDBRANCH  33  38
ENDBRANCH  29  30
ENDBRANCH   1  29
TORSDOF 9
ENDMDL
MODEL 4
REMARK VINA RESULT:      -8.2      5.273      9.828
REMARK  9 active torsions:
REMARK  status: ('A' for Active; 'I' for Inactive)
REMARK    1  A    between atoms: O_2  and  C_3 
REMARK    2  A    between atoms: C_4  and  O_5 
REMARK    3  A    between atoms: C_8  and  C_9 
REMARK    4  A    between atoms: C_9  and  N_10 
REMARK    5  A    between atoms: C_14  and  O_15 
REMARK    6  A    between atoms: C_14  and  C_16 
REMARK    7  A    between atoms: C_21  and  C_22 
REMARK       I    between atoms: C_22  and  N_23 
REMARK    8  A    between atoms: N_23  and  C_24 
REMARK    9  A    between atoms: C_24  and  C_25 
ROOT
HETATM    1  N   UNL     1     -43.529  61.330 -57.025  1.00  0.00    -0.067 N 
HETATM    2  H   UNL     1     -43.538  62.216 -57.549  1.00  0.00     0.280 HD
HETATM    3  C   UNL     1     -42.129  60.770 -57.140  1.00  0.00     0.238 C 
HETATM    4  C   UNL     1     -41.847  60.302 -58.558  1.00  0.00     0.071 C 
HETATM    5  C   UNL     1     -42.857  59.231 -59.012  1.00  0.00     0.088 C 
HETATM    6  C   UNL     1     -44.225  59.940 -58.995  1.00  0.00     0.071 C 
HETATM    7  C   UNL     1     -44.598  60.433 -57.606  1.00  0.00     0.238 C 
ENDROOT
BRANCH   5   8
HETATM    8  O   UNL     1     -42.565  58.934 -60.377  1.00  0.00    -0.385 OA
HETATM    9  H   UNL     1     -41.638  59.164 -60.573  1.00  0.00     0.211 HD
ENDBRANCH   5   8
BRANCH   5  10
HETATM   10  C   UNL     1     -42.781  57.926 -58.204  1.00  0.00    -0.023 A 
HETATM   11  C   UNL     1     -42.116  57.895 -56.954  1.00  0.00     0.024 A 
HETATM   12  C   UNL     1     -42.168  56.740 -56.151  1.00  0.00     0.001 A 
HETATM   13  C   UNL     1     -42.833  55.627 -56.638  1.00  0.00     0.086 A 
HETATM   14  C   UNL     1     -41.692  56.372 -54.867  1.00  0.00     0.057 A 
HETATM   15  O   UNL     1     -42.834  54.628 -55.715  1.00  0.00    -0.304 OA
HETATM   16  C   UNL     1     -43.410  55.562 -57.899  1.00  0.00     0.039 A 
HETATM   17  C   UNL     1     -42.141  55.087 -54.624  1.00  0.00     0.144 A 
HETATM   18  C   UNL     1     -43.356  56.729 -58.675  1.00  0.00     0.013 A 
BRANCH  17  19
HETATM   19  C   UNL     1     -41.992  54.239 -53.460  1.00  0.00     0.275 C 
HETATM   20  N   UNL     1     -40.695  53.857 -53.202  1.00  0.00    -0.353 N 
HETATM   21  H   UNL     1     -39.998  54.072 -53.905  1.00  0.00     0.162 HD
HETATM   22  O   UNL     1     -42.942  53.858 -52.781  1.00  0.00    -0.265 OA
BRANCH  20  23
HETATM   23  C   UNL     1     -40.363  52.880 -52.182  1.00  0.00     0.155 C 
BRANCH  23  24
HETATM   24  C   UNL     1     -39.545  51.705 -52.728  1.00  0.00     0.139 C 
HETATM   25  O   UNL     1     -39.581  50.587 -51.815  1.00  0.00    -0.384 OA
HETATM   26  C   UNL     1     -39.592  49.377 -52.593  1.00  0.00     0.168 C 
HETATM   27  C   UNL     1     -39.510  49.775 -54.054  1.00  0.00     0.029 C 
HETATM   28  C   UNL     1     -40.090  51.168 -54.041  1.00  0.00     0.035 C 
ENDBRANCH  23  24
ENDBRANCH  20  23
ENDBRANCH  17  19
ENDBRANCH   5  10
BRANCH   1  29
HETATM   29  C   UNL     1     -43.896  61.683 -55.588  1.00  0.00     0.273 C 
BRANCH  29  30
HETATM   30  C   UNL     1     -43.673  60.578 -54.596  1.00  0.00    -0.030 A 
HETATM   31  C   UNL     1     -42.516  60.571 -53.801  1.00  0.00     0.048 A 
HETATM   32  C   UNL     1     -42.314  59.564 -52.855  1.00  0.00     0.102 A 
HETATM   33  C   UNL     1     -43.226  58.511 -52.729  1.00  0.00     0.101 A 
HETATM   34  C   UNL     1     -44.384  58.519 -53.512  1.00  0.00     0.040 A 
HETATM   35  C   UNL     1     -44.609  59.549 -54.434  1.00  0.00     0.012 A 
BRANCH  32  36
HETATM   36  O   UNL     1     -41.161  59.551 -52.114  1.00  0.00    -0.353 OA
HETATM   37  C   UNL     1     -40.093  58.915 -52.812  1.00  0.00     0.210 C 
ENDBRANCH  32  36
BRANCH  33  38
HETATM   38  O   UNL     1     -42.945  57.559 -51.788  1.00  0.00    -0.353 OA
HETATM   39  C   UNL     1     -44.066  56.840 -51.281  1.00  0.00     0.210 C 
ENDBRANCH  33  38
ENDBRANCH  29  30
ENDBRANCH   1  29
TORSDOF 9
ENDMDL
MODEL 5
REMARK VINA RESULT:      -8.2      5.035     10.433
REMARK  9 active torsions:
REMARK  status: ('A' for Active; 'I' for Inactive)
REMARK    1  A    between atoms: O_2  and  C_3 
REMARK    2  A    between atoms: C_4  and  O_5 
REMARK    3  A    between atoms: C_8  and  C_9 
REMARK    4  A    between atoms: C_9  and  N_10 
REMARK    5  A    between atoms: C_14  and  O_15 
REMARK    6  A    between atoms: C_14  and  C_16 
REMARK    7  A    between atoms: C_21  and  C_22 
REMARK       I    between atoms: C_22  and  N_23 
REMARK    8  A    between atoms: N_23  and  C_24 
REMARK    9  A    between atoms: C_24  and  C_25 
ROOT
HETATM    1  N   UNL     1     -42.068  57.693 -50.560  1.00  0.00    -0.067 N 
HETATM    2  H   UNL     1     -42.208  57.774 -49.543  1.00  0.00     0.280 HD
HETATM    3  C   UNL     1     -43.443  57.659 -51.189  1.00  0.00     0.238 C 
HETATM    4  C   UNL     1     -44.156  56.358 -50.864  1.00  0.00     0.071 C 
HETATM    5  C   UNL     1     -43.351  55.136 -51.346  1.00  0.00     0.088 C 
HETATM    6  C   UNL     1     -42.035  55.184 -50.547  1.00  0.00     0.071 C 
HETATM    7  C   UNL     1     -41.244  56.453 -50.820  1.00  0.00     0.238 C 
ENDROOT
BRANCH   5   8
HETATM    8  O   UNL     1     -44.055  53.974 -50.908  1.00  0.00    -0.385 OA
HETATM    9  H   UNL     1     -43.556  53.174 -51.154  1.00  0.00     0.211 HD
ENDBRANCH   5   8
BRANCH   5  10
HETATM   10  C   UNL     1     -43.192  55.062 -52.872  1.00  0.00    -0.023 A 
HETATM   11  C   UNL     1     -43.776  56.050 -53.702  1.00  0.00     0.024 A 
HETATM   12  C   UNL     1     -43.513  56.061 -55.085  1.00  0.00     0.001 A 
HETATM   13  C   UNL     1     -42.721  55.056 -55.615  1.00  0.00     0.086 A 
HETATM   14  C   UNL     1     -43.859  56.894 -56.179  1.00  0.00     0.057 A 
HETATM   15  O   UNL     1     -42.524  55.252 -56.946  1.00  0.00    -0.304 OA
HETATM   16  C   UNL     1     -42.212  54.001 -54.870  1.00  0.00     0.039 A 
HETATM   17  C   UNL     1     -43.216  56.385 -57.293  1.00  0.00     0.144 A 
HETATM   18  C   UNL     1     -42.477  54.018 -53.493  1.00  0.00     0.013 A 
BRANCH  17  19
HETATM   19  C   UNL     1     -43.176  56.860 -58.660  1.00  0.00     0.275 C 
HETATM   20  N   UNL     1     -41.988  57.458 -59.014  1.00  0.00    -0.353 N 
HETATM   21  H   UNL     1     -41.320  57.641 -58.275  1.00  0.00     0.162 HD
HETATM   22  O   UNL     1     -44.129  56.773 -59.429  1.00  0.00    -0.265 OA
BRANCH  20  23
HETATM   23  C   UNL     1     -41.812  58.140 -60.283  1.00  0.00     0.155 C 
BRANCH  23  24
HETATM   24  C   UNL     1     -42.259  59.605 -60.237  1.00  0.00     0.139 C 
HETATM   25  O   UNL     1     -41.649  60.292 -59.123  1.00  0.00    -0.384 OA
HETATM   26  C   UNL     1     -41.374  61.644 -59.531  1.00  0.00     0.168 C 
HETATM   27  C   UNL     1     -41.884  61.804 -60.950  1.00  0.00     0.029 C 
HETATM   28  C   UNL     1     -41.839  60.388 -61.469  1.00  0.00     0.035 C 
ENDBRANCH  23  24
ENDBRANCH  20  23
ENDBRANCH  17  19
ENDBRANCH   5  10
BRANCH   1  29
HETATM   29  C   UNL     1     -41.269  58.923 -50.977  1.00  0.00     0.273 C 
BRANCH  29  30
HETATM   30  C   UNL     1     -41.677  59.518 -52.294  1.00  0.00    -0.030 A 
HETATM   31  C   UNL     1     -42.433  60.700 -52.327  1.00  0.00     0.048 A 
HETATM   32  C   UNL     1     -42.793  61.275 -53.547  1.00  0.00     0.102 A 
HETATM   33  C   UNL     1     -42.464  60.651 -54.755  1.00  0.00     0.101 A 
HETATM   34  C   UNL     1     -41.704  59.479 -54.727  1.00  0.00     0.040 A 
HETATM   35  C   UNL     1     -41.307  58.919 -53.506  1.00  0.00     0.012 A 
BRANCH  32  36
HETATM   36  O   UNL     1     -43.564  62.409 -53.562  1.00  0.00    -0.353 OA
HETATM   37  C   UNL     1     -44.821  62.200 -52.923  1.00  0.00     0.210 C 
ENDBRANCH  32  36
BRANCH  33  38
HETATM   38  O   UNL     1     -42.867  61.274 -55.904  1.00  0.00    -0.353 OA
HETATM   39  C   UNL     1     -43.971  60.678 -56.577  1.00  0.00     0.210 C 
ENDBRANCH  33  38
ENDBRANCH  29  30
ENDBRANCH   1  29
TORSDOF 9
ENDMDL
MODEL 6
REMARK VINA RESULT:      -8.1      4.783      8.983
REMARK  9 active torsions:
REMARK  status: ('A' for Active; 'I' for Inactive)
REMARK    1  A    between atoms: O_2  and  C_3 
REMARK    2  A    between atoms: C_4  and  O_5 
REMARK    3  A    between atoms: C_8  and  C_9 
REMARK    4  A    between atoms: C_9  and  N_10 
REMARK    5  A    between atoms: C_14  and  O_15 
REMARK    6  A    between atoms: C_14  and  C_16 
REMARK    7  A    between atoms: C_21  and  C_22 
REMARK       I    between atoms: C_22  and  N_23 
REMARK    8  A    between atoms: N_23  and  C_24 
REMARK    9  A    between atoms: C_24  and  C_25 
ROOT
HETATM    1  N   UNL     1     -43.939  61.249 -57.682  1.00  0.00    -0.067 N 
HETATM    2  H   UNL     1     -43.899  62.147 -58.182  1.00  0.00     0.280 HD
HETATM    3  C   UNL     1     -42.511  60.780 -57.512  1.00  0.00     0.238 C 
HETATM    4  C   UNL     1     -41.912  60.372 -58.847  1.00  0.00     0.071 C 
HETATM    5  C   UNL     1     -42.732  59.255 -59.518  1.00  0.00     0.088 C 
HETATM    6  C   UNL     1     -44.118  59.876 -59.774  1.00  0.00     0.071 C 
HETATM    7  C   UNL     1     -44.802  60.305 -58.486  1.00  0.00     0.238 C 
ENDROOT
BRANCH   5   8
HETATM    8  O   UNL     1     -42.145  59.017 -60.797  1.00  0.00    -0.385 OA
HETATM    9  H   UNL     1     -42.388  59.735 -61.410  1.00  0.00     0.211 HD
ENDBRANCH   5   8
BRANCH   5  10
HETATM   10  C   UNL     1     -42.738  57.934 -58.732  1.00  0.00    -0.023 A 
HETATM   11  C   UNL     1     -42.173  57.869 -57.435  1.00  0.00     0.024 A 
HETATM   12  C   UNL     1     -42.303  56.700 -56.662  1.00  0.00     0.001 A 
HETATM   13  C   UNL     1     -42.943  55.607 -57.221  1.00  0.00     0.086 A 
HETATM   14  C   UNL     1     -41.934  56.302 -55.352  1.00  0.00     0.057 A 
HETATM   15  O   UNL     1     -43.031  54.591 -56.321  1.00  0.00    -0.304 OA
HETATM   16  C   UNL     1     -43.421  55.574 -58.524  1.00  0.00     0.039 A 
HETATM   17  C   UNL     1     -42.418  55.019 -55.170  1.00  0.00     0.144 A 
HETATM   18  C   UNL     1     -43.290  56.755 -59.271  1.00  0.00     0.013 A 
BRANCH  17  19
HETATM   19  C   UNL     1     -42.373  54.147 -54.015  1.00  0.00     0.275 C 
HETATM   20  N   UNL     1     -42.923  54.689 -52.877  1.00  0.00    -0.353 N 
HETATM   21  H   UNL     1     -43.173  55.671 -52.903  1.00  0.00     0.162 HD
HETATM   22  O   UNL     1     -41.854  53.034 -54.035  1.00  0.00    -0.265 OA
BRANCH  20  23
HETATM   23  C   UNL     1     -42.827  54.040 -51.583  1.00  0.00     0.155 C 
BRANCH  23  24
HETATM   24  C   UNL     1     -41.722  54.631 -50.702  1.00  0.00     0.139 C 
HETATM   25  O   UNL     1     -42.031  54.452 -49.302  1.00  0.00    -0.384 OA
HETATM   26  C   UNL     1     -40.799  54.212 -48.602  1.00  0.00     0.168 C 
HETATM   27  C   UNL     1     -39.675  54.295 -49.616  1.00  0.00     0.029 C 
HETATM   28  C   UNL     1     -40.378  53.951 -50.905  1.00  0.00     0.035 C 
ENDBRANCH  23  24
ENDBRANCH  20  23
ENDBRANCH  17  19
ENDBRANCH   5  10
BRANCH   1  29
HETATM   29  C   UNL     1     -44.618  61.536 -56.347  1.00  0.00     0.273 C 
BRANCH  29  30
HETATM   30  C   UNL     1     -44.384  60.496 -55.289  1.00  0.00    -0.030 A 
HETATM   31  C   UNL     1     -43.432  60.721 -54.282  1.00  0.00     0.048 A 
HETATM   32  C   UNL     1     -43.227  59.772 -53.278  1.00  0.00     0.102 A 
HETATM   33  C   UNL     1     -43.919  58.557 -53.294  1.00  0.00     0.101 A 
HETATM   34  C   UNL     1     -44.874  58.333 -54.289  1.00  0.00     0.040 A 
HETATM   35  C   UNL     1     -45.110  59.298 -55.276  1.00  0.00     0.012 A 
BRANCH  32  36
HETATM   36  O   UNL     1     -42.267  59.990 -52.324  1.00  0.00    -0.353 OA
HETATM   37  C   UNL     1     -42.728  60.875 -51.305  1.00  0.00     0.210 C 
ENDBRANCH  32  36
BRANCH  33  38
HETATM   38  O   UNL     1     -43.649  57.678 -52.281  1.00  0.00    -0.353 OA
HETATM   39  C   UNL     1     -44.678  57.519 -51.309  1.00  0.00     0.210 C 
ENDBRANCH  33  38
ENDBRANCH  29  30
ENDBRANCH   1  29
TORSDOF 9
ENDMDL
MODEL 7
REMARK VINA RESULT:      -8.0      5.372     10.541
REMARK  9 active torsions:
REMARK  status: ('A' for Active; 'I' for Inactive)
REMARK    1  A    between atoms: O_2  and  C_3 
REMARK    2  A    between atoms: C_4  and  O_5 
REMARK    3  A    between atoms: C_8  and  C_9 
REMARK    4  A    between atoms: C_9  and  N_10 
REMARK    5  A    between atoms: C_14  and  O_15 
REMARK    6  A    between atoms: C_14  and  C_16 
REMARK    7  A    between atoms: C_21  and  C_22 
REMARK       I    between atoms: C_22  and  N_23 
REMARK    8  A    between atoms: N_23  and  C_24 
REMARK    9  A    between atoms: C_24  and  C_25 
ROOT
HETATM    1  N   UNL     1     -43.016  60.336 -59.821  1.00  0.00    -0.067 N 
HETATM    2  H   UNL     1     -42.921  60.617 -60.807  1.00  0.00     0.280 HD
HETATM    3  C   UNL     1     -41.922  59.329 -59.547  1.00  0.00     0.238 C 
HETATM    4  C   UNL     1     -42.191  58.024 -60.275  1.00  0.00     0.071 C 
HETATM    5  C   UNL     1     -43.547  57.417 -59.867  1.00  0.00     0.088 C 
HETATM    6  C   UNL     1     -44.597  58.451 -60.314  1.00  0.00     0.071 C 
HETATM    7  C   UNL     1     -44.413  59.793 -59.623  1.00  0.00     0.238 C 
ENDROOT
BRANCH   5   8
HETATM    8  O   UNL     1     -43.744  56.256 -60.673  1.00  0.00    -0.385 OA
HETATM    9  H   UNL     1     -44.282  56.483 -61.453  1.00  0.00     0.211 HD
ENDBRANCH   5   8
BRANCH   5  10
HETATM   10  C   UNL     1     -43.620  57.001 -58.390  1.00  0.00    -0.023 A 
HETATM   11  C   UNL     1     -42.928  55.853 -57.933  1.00  0.00     0.024 A 
HETATM   12  C   UNL     1     -42.880  55.553 -56.558  1.00  0.00     0.001 A 
HETATM   13  C   UNL     1     -43.569  56.372 -55.679  1.00  0.00     0.086 A 
HETATM   14  C   UNL     1     -42.261  54.562 -55.756  1.00  0.00     0.057 A 
HETATM   15  O   UNL     1     -43.368  55.973 -54.396  1.00  0.00    -0.304 OA
HETATM   16  C   UNL     1     -44.352  57.446 -56.078  1.00  0.00     0.039 A 
HETATM   17  C   UNL     1     -42.559  54.866 -54.439  1.00  0.00     0.144 A 
HETATM   18  C   UNL     1     -44.375  57.733 -57.451  1.00  0.00     0.013 A 
BRANCH  17  19
HETATM   19  C   UNL     1     -42.153  54.224 -53.207  1.00  0.00     0.275 C 
HETATM   20  N   UNL     1     -40.878  53.706 -53.234  1.00  0.00    -0.353 N 
HETATM   21  H   UNL     1     -40.403  53.688 -54.128  1.00  0.00     0.162 HD
HETATM   22  O   UNL     1     -42.892  54.115 -52.232  1.00  0.00    -0.265 OA
BRANCH  20  23
HETATM   23  C   UNL     1     -40.351  52.886 -52.158  1.00  0.00     0.155 C 
BRANCH  23  24
HETATM   24  C   UNL     1     -39.535  51.693 -52.666  1.00  0.00     0.139 C 
HETATM   25  O   UNL     1     -39.621  50.584 -51.744  1.00  0.00    -0.384 OA
HETATM   26  C   UNL     1     -39.624  49.368 -52.512  1.00  0.00     0.168 C 
HETATM   27  C   UNL     1     -39.486  49.751 -53.972  1.00  0.00     0.029 C 
HETATM   28  C   UNL     1     -40.043  51.152 -53.992  1.00  0.00     0.035 C 
ENDBRANCH  23  24
ENDBRANCH  20  23
ENDBRANCH  17  19
ENDBRANCH   5  10
BRANCH   1  29
HETATM   29  C   UNL     1     -42.853  61.609 -58.999  1.00  0.00     0.273 C 
BRANCH  29  30
HETATM   30  C   UNL     1     -43.397  61.528 -57.602  1.00  0.00    -0.030 A 
HETATM   31  C   UNL     1     -42.571  61.106 -56.549  1.00  0.00     0.048 A 
HETATM   32  C   UNL     1     -43.060  61.054 -55.243  1.00  0.00     0.102 A 
HETATM   33  C   UNL     1     -44.398  61.358 -54.970  1.00  0.00     0.101 A 
HETATM   34  C   UNL     1     -45.223  61.786 -56.014  1.00  0.00     0.040 A 
HETATM   35  C   UNL     1     -44.724  61.877 -57.320  1.00  0.00     0.012 A 
BRANCH  32  36
HETATM   36  O   UNL     1     -42.251  60.604 -54.232  1.00  0.00    -0.353 OA
HETATM   37  C   UNL     1     -41.629  59.366 -54.567  1.00  0.00     0.210 C 
ENDBRANCH  32  36
BRANCH  33  38
HETATM   38  O   UNL     1     -44.800  61.268 -53.666  1.00  0.00    -0.353 OA
HETATM   39  C   UNL     1     -45.329  60.008 -53.266  1.00  0.00     0.210 C 
ENDBRANCH  33  38
ENDBRANCH  29  30
ENDBRANCH   1  29
TORSDOF 9
ENDMDL
MODEL 8
REMARK VINA RESULT:      -8.0      4.587      8.802
REMARK  9 active torsions:
REMARK  status: ('A' for Active; 'I' for Inactive)
REMARK    1  A    between atoms: O_2  and  C_3 
REMARK    2  A    between atoms: C_4  and  O_5 
REMARK    3  A    between atoms: C_8  and  C_9 
REMARK    4  A    between atoms: C_9  and  N_10 
REMARK    5  A    between atoms: C_14  and  O_15 
REMARK    6  A    between atoms: C_14  and  C_16 
REMARK    7  A    between atoms: C_21  and  C_22 
REMARK       I    between atoms: C_22  and  N_23 
REMARK    8  A    between atoms: N_23  and  C_24 
REMARK    9  A    between atoms: C_24  and  C_25 
ROOT
HETATM    1  N   UNL     1     -44.588  61.155 -55.321  1.00  0.00    -0.067 N 
HETATM    2  H   UNL     1     -44.691  62.144 -55.587  1.00  0.00     0.280 HD
HETATM    3  C   UNL     1     -45.616  60.883 -54.245  1.00  0.00     0.238 C 
HETATM    4  C   UNL     1     -45.252  61.598 -52.955  1.00  0.00     0.071 C 
HETATM    5  C   UNL     1     -43.863  61.171 -52.444  1.00  0.00     0.088 C 
HETATM    6  C   UNL     1     -42.879  61.616 -53.543  1.00  0.00     0.071 C 
HETATM    7  C   UNL     1     -43.161  60.938 -54.874  1.00  0.00     0.238 C 
ENDROOT
BRANCH   5   8
HETATM    8  O   UNL     1     -43.580  61.966 -51.292  1.00  0.00    -0.385 OA
HETATM    9  H   UNL     1     -43.005  61.469 -50.682  1.00  0.00     0.211 HD
ENDBRANCH   5   8
BRANCH   5  10
HETATM   10  C   UNL     1     -43.779  59.690 -52.045  1.00  0.00    -0.023 A 
HETATM   11  C   UNL     1     -42.519  59.063 -51.880  1.00  0.00     0.024 A 
HETATM   12  C   UNL     1     -42.441  57.749 -51.379  1.00  0.00     0.001 A 
HETATM   13  C   UNL     1     -43.619  57.074 -51.110  1.00  0.00     0.086 A 
HETATM   14  C   UNL     1     -41.397  56.852 -51.039  1.00  0.00     0.057 A 
HETATM   15  O   UNL     1     -43.358  55.848 -50.582  1.00  0.00    -0.304 OA
HETATM   16  C   UNL     1     -44.882  57.596 -51.354  1.00  0.00     0.039 A 
HETATM   17  C   UNL     1     -41.995  55.713 -50.531  1.00  0.00     0.144 A 
HETATM   18  C   UNL     1     -44.935  58.911 -51.841  1.00  0.00     0.013 A 
BRANCH  17  19
HETATM   19  C   UNL     1     -41.413  54.502 -49.990  1.00  0.00     0.275 C 
HETATM   20  N   UNL     1     -40.821  53.691 -50.931  1.00  0.00    -0.353 N 
HETATM   21  H   UNL     1     -40.964  53.928 -51.906  1.00  0.00     0.162 HD
HETATM   22  O   UNL     1     -41.475  54.202 -48.801  1.00  0.00    -0.265 OA
BRANCH  20  23
HETATM   23  C   UNL     1     -40.329  52.364 -50.612  1.00  0.00     0.155 C 
BRANCH  23  24
HETATM   24  C   UNL     1     -39.564  51.719 -51.772  1.00  0.00     0.139 C 
HETATM   25  O   UNL     1     -39.586  50.278 -51.662  1.00  0.00    -0.384 OA
HETATM   26  C   UNL     1     -39.658  49.733 -52.991  1.00  0.00     0.168 C 
HETATM   27  C   UNL     1     -39.632  50.896 -53.963  1.00  0.00     0.029 C 
HETATM   28  C   UNL     1     -40.178  52.026 -53.127  1.00  0.00     0.035 C 
ENDBRANCH  23  24
ENDBRANCH  20  23
ENDBRANCH  17  19
ENDBRANCH   5  10
BRANCH   1  29
HETATM   29  C   UNL     1     -44.846  60.345 -56.587  1.00  0.00     0.273 C 
BRANCH  29  30
HETATM   30  C   UNL     1     -44.281  58.954 -56.567  1.00  0.00    -0.030 A 
HETATM   31  C   UNL     1     -43.621  58.447 -57.697  1.00  0.00     0.048 A 
HETATM   32  C   UNL     1     -43.068  57.165 -57.678  1.00  0.00     0.102 A 
HETATM   33  C   UNL     1     -43.217  56.341 -56.558  1.00  0.00     0.101 A 
HETATM   34  C   UNL     1     -43.865  56.845 -55.427  1.00  0.00     0.040 A 
HETATM   35  C   UNL     1     -44.388  58.144 -55.428  1.00  0.00     0.012 A 
BRANCH  32  36
HETATM   36  O   UNL     1     -42.461  56.671 -58.803  1.00  0.00    -0.353 OA
HETATM   37  C   UNL     1     -43.193  56.995 -59.983  1.00  0.00     0.210 C 
ENDBRANCH  32  36
BRANCH  33  38
HETATM   38  O   UNL     1     -42.657  55.095 -56.627  1.00  0.00    -0.353 OA
HETATM   39  C   UNL     1     -42.846  54.267 -55.484  1.00  0.00     0.210 C 
ENDBRANCH  33  38
ENDBRANCH  29  30
ENDBRANCH   1  29
TORSDOF 9
ENDMDL
MODEL 9
REMARK VINA RESULT:      -7.9      1.951      2.842
REMARK  9 active torsions:
REMARK  status: ('A' for Active; 'I' for Inactive)
REMARK    1  A    between atoms: O_2  and  C_3 
REMARK    2  A    between atoms: C_4  and  O_5 
REMARK    3  A    between atoms: C_8  and  C_9 
REMARK    4  A    between atoms: C_9  and  N_10 
REMARK    5  A    between atoms: C_14  and  O_15 
REMARK    6  A    between atoms: C_14  and  C_16 
REMARK    7  A    between atoms: C_21  and  C_22 
REMARK       I    between atoms: C_22  and  N_23 
REMARK    8  A    between atoms: N_23  and  C_24 
REMARK    9  A    between atoms: C_24  and  C_25 
ROOT
HETATM    1  N   UNL     1     -42.403  56.012 -54.696  1.00  0.00    -0.067 N 
HETATM    2  H   UNL     1     -42.655  55.094 -55.086  1.00  0.00     0.280 HD
HETATM    3  C   UNL     1     -43.411  56.316 -53.610  1.00  0.00     0.238 C 
HETATM    4  C   UNL     1     -44.782  56.590 -54.204  1.00  0.00     0.071 C 
HETATM    5  C   UNL     1     -44.743  57.766 -55.199  1.00  0.00     0.088 C 
HETATM    6  C   UNL     1     -43.805  57.302 -56.329  1.00  0.00     0.071 C 
HETATM    7  C   UNL     1     -42.399  57.015 -55.827  1.00  0.00     0.238 C 
ENDROOT
BRANCH   5   8
HETATM    8  O   UNL     1     -46.048  57.875 -55.767  1.00  0.00    -0.385 OA
HETATM    9  H   UNL     1     -46.450  58.725 -55.508  1.00  0.00     0.211 HD
ENDBRANCH   5   8
BRANCH   5  10
HETATM   10  C   UNL     1     -44.380  59.112 -54.553  1.00  0.00    -0.023 A 
HETATM   11  C   UNL     1     -44.709  59.369 -53.200  1.00  0.00     0.024 A 
HETATM   12  C   UNL     1     -44.252  60.542 -52.569  1.00  0.00     0.001 A 
HETATM   13  C   UNL     1     -43.529  61.456 -53.318  1.00  0.00     0.086 A 
HETATM   14  C   UNL     1     -44.330  61.091 -51.264  1.00  0.00     0.057 A 
HETATM   15  O   UNL     1     -43.121  62.495 -52.541  1.00  0.00    -0.304 OA
HETATM   16  C   UNL     1     -43.269  61.309 -54.674  1.00  0.00     0.039 A 
HETATM   17  C   UNL     1     -43.606  62.269 -51.278  1.00  0.00     0.144 A 
HETATM   18  C   UNL     1     -43.723  60.127 -55.277  1.00  0.00     0.013 A 
BRANCH  17  19
HETATM   19  C   UNL     1     -43.312  63.210 -50.218  1.00  0.00     0.275 C 
HETATM   20  N   UNL     1     -44.336  63.380 -49.314  1.00  0.00    -0.353 N 
HETATM   21  H   UNL     1     -45.230  62.960 -49.540  1.00  0.00     0.162 HD
HETATM   22  O   UNL     1     -42.256  63.834 -50.148  1.00  0.00    -0.265 OA
BRANCH  20  23
HETATM   23  C   UNL     1     -44.296  64.396 -48.280  1.00  0.00     0.155 C 
BRANCH  23  24
HETATM   24  C   UNL     1     -45.171  64.049 -47.071  1.00  0.00     0.139 C 
HETATM   25  O   UNL     1     -45.118  62.633 -46.790  1.00  0.00    -0.384 OA
HETATM   26  C   UNL     1     -45.179  62.461 -45.363  1.00  0.00     0.168 C 
HETATM   27  C   UNL     1     -45.325  63.837 -44.744  1.00  0.00     0.029 C 
HETATM   28  C   UNL     1     -44.709  64.728 -45.793  1.00  0.00     0.035 C 
ENDBRANCH  23  24
ENDBRANCH  20  23
ENDBRANCH  17  19
ENDBRANCH   5  10
BRANCH   1  29
HETATM   29  C   UNL     1     -40.987  55.868 -54.149  1.00  0.00     0.273 C 
BRANCH  29  30
HETATM   30  C   UNL     1     -40.624  54.479 -53.709  1.00  0.00    -0.030 A 
HETATM   31  C   UNL     1     -40.569  54.167 -52.341  1.00  0.00     0.048 A 
HETATM   32  C   UNL     1     -40.259  52.871 -51.923  1.00  0.00     0.102 A 
HETATM   33  C   UNL     1     -39.936  51.880 -52.855  1.00  0.00     0.101 A 
HETATM   34  C   UNL     1     -39.998  52.183 -54.218  1.00  0.00     0.040 A 
HETATM   35  C   UNL     1     -40.346  53.472 -54.642  1.00  0.00     0.012 A 
BRANCH  32  36
HETATM   36  O   UNL     1     -40.172  52.593 -50.584  1.00  0.00    -0.353 OA
HETATM   37  C   UNL     1     -40.470  53.737 -49.787  1.00  0.00     0.210 C 
ENDBRANCH  32  36
BRANCH  33  38
HETATM   38  O   UNL     1     -39.631  50.641 -52.361  1.00  0.00    -0.353 OA
HETATM   39  C   UNL     1     -39.655  49.575 -53.304  1.00  0.00     0.210 C 
ENDBRANCH  33  38
ENDBRANCH  29  30
ENDBRANCH   1  29
TORSDOF 9
ENDMDL
MODEL 10
REMARK VINA RESULT:      -7.8      2.558     10.233
REMARK  9 active torsions:
REMARK  status: ('A' for Active; 'I' for Inactive)
REMARK    1  A    between atoms: O_2  and  C_3 
REMARK    2  A    between atoms: C_4  and  O_5 
REMARK    3  A    between atoms: C_8  and  C_9 
REMARK    4  A    between atoms: C_9  and  N_10 
REMARK    5  A    between atoms: C_14  and  O_15 
REMARK    6  A    between atoms: C_14  and  C_16 
REMARK    7  A    between atoms: C_21  and  C_22 
REMARK       I    between atoms: C_22  and  N_23 
REMARK    8  A    between atoms: N_23  and  C_24 
REMARK    9  A    between atoms: C_24  and  C_25 
ROOT
HETATM    1  N   UNL     1     -45.357  62.185 -53.305  1.00  0.00    -0.067 N 
HETATM    2  H   UNL     1     -45.566  62.873 -54.041  1.00  0.00     0.280 HD
HETATM    3  C   UNL     1     -44.004  62.551 -52.738  1.00  0.00     0.238 C 
HETATM    4  C   UNL     1     -42.901  62.280 -53.746  1.00  0.00     0.071 C 
HETATM    5  C   UNL     1     -42.882  60.802 -54.180  1.00  0.00     0.088 C 
HETATM    6  C   UNL     1     -44.240  60.570 -54.868  1.00  0.00     0.071 C 
HETATM    7  C   UNL     1     -45.409  60.808 -53.925  1.00  0.00     0.238 C 
ENDROOT
BRANCH   5   8
HETATM    8  O   UNL     1     -41.882  60.677 -55.191  1.00  0.00    -0.385 OA
HETATM    9  H   UNL     1     -41.900  61.461 -55.771  1.00  0.00     0.211 HD
ENDBRANCH   5   8
BRANCH   5  10
HETATM   10  C   UNL     1     -42.546  59.827 -53.041  1.00  0.00    -0.023 A 
HETATM   11  C   UNL     1     -42.714  58.432 -53.219  1.00  0.00     0.024 A 
HETATM   12  C   UNL     1     -42.274  57.532 -52.230  1.00  0.00     0.001 A 
HETATM   13  C   UNL     1     -41.731  58.046 -51.064  1.00  0.00     0.086 A 
HETATM   14  C   UNL     1     -42.224  56.122 -52.088  1.00  0.00     0.057 A 
HETATM   15  O   UNL     1     -41.309  57.043 -50.249  1.00  0.00    -0.304 OA
HETATM   16  C   UNL     1     -41.640  59.404 -50.788  1.00  0.00     0.039 A 
HETATM   17  C   UNL     1     -41.605  55.861 -50.879  1.00  0.00     0.144 A 
HETATM   18  C   UNL     1     -42.073  60.280 -51.793  1.00  0.00     0.013 A 
BRANCH  17  19
HETATM   19  C   UNL     1     -41.250  54.605 -50.252  1.00  0.00     0.275 C 
HETATM   20  N   UNL     1     -40.548  53.746 -51.066  1.00  0.00    -0.353 N 
HETATM   21  H   UNL     1     -40.469  53.994 -52.045  1.00  0.00     0.162 HD
HETATM   22  O   UNL     1     -41.578  54.311 -49.105  1.00  0.00    -0.265 OA
BRANCH  20  23
HETATM   23  C   UNL     1     -40.246  52.381 -50.676  1.00  0.00     0.155 C 
BRANCH  23  24
HETATM   24  C   UNL     1     -39.504  51.602 -51.767  1.00  0.00     0.139 C 
HETATM   25  O   UNL     1     -39.603  50.179 -51.538  1.00  0.00    -0.384 OA
HETATM   26  C   UNL     1     -39.691  49.528 -52.817  1.00  0.00     0.168 C 
HETATM   27  C   UNL     1     -39.594  50.603 -53.883  1.00  0.00     0.029 C 
HETATM   28  C   UNL     1     -40.088  51.826 -53.152  1.00  0.00     0.035 C 
ENDBRANCH  23  24
ENDBRANCH  20  23
ENDBRANCH  17  19
ENDBRANCH   5  10
BRANCH   1  29
HETATM   29  C   UNL     1     -46.472  62.314 -52.274  1.00  0.00     0.273 C 
BRANCH  29  30
HETATM   30  C   UNL     1     -46.080  61.935 -50.875  1.00  0.00    -0.030 A 
HETATM   31  C   UNL     1     -46.040  62.912 -49.868  1.00  0.00     0.048 A 
HETATM   32  C   UNL     1     -45.704  62.564 -48.558  1.00  0.00     0.102 A 
HETATM   33  C   UNL     1     -45.337  61.251 -48.241  1.00  0.00     0.101 A 
HETATM   34  C   UNL     1     -45.384  60.274 -49.239  1.00  0.00     0.040 A 
HETATM   35  C   UNL     1     -45.759  60.612 -50.546  1.00  0.00     0.012 A 
BRANCH  32  36
HETATM   36  O   UNL     1     -45.633  63.536 -47.594  1.00  0.00    -0.353 OA
HETATM   37  C   UNL     1     -46.928  63.984 -47.202  1.00  0.00     0.210 C 
ENDBRANCH  32  36
BRANCH  33  38
HETATM   38  O   UNL     1     -45.008  60.999 -46.938  1.00  0.00    -0.353 OA
HETATM   39  C   UNL     1     -45.983  60.288 -46.180  1.00  0.00     0.210 C 
ENDBRANCH  33  38
ENDBRANCH  29  30
ENDBRANCH   1  29
TORSDOF 9
ENDMDL
