MODEL 1
REMARK VINA RESULT:      -8.2      0.000      0.000
REMARK  8 active torsions:
REMARK  status: ('A' for Active; 'I' for Inactive)
REMARK    1  A    between atoms: N_3  and  C_4 
REMARK    2  A    between atoms: C_4  and  C_5 
REMARK    3  A    between atoms: C_5  and  O_6 
REMARK    4  A    between atoms: C_11  and  C_12 
REMARK    5  A    between atoms: C_13  and  C_14 
REMARK    6  A    between atoms: C_22  and  C_23 
REMARK       I    between atoms: C_23  and  N_24 
REMARK    7  A    between atoms: N_24  and  C_25 
REMARK    8  A    between atoms: C_26  and  O_27 
ROOT
HETATM    1  C   UNL     1     -42.307  59.456 -53.577  1.00  0.00     0.069 C 
HETATM    2  C   UNL     1     -42.903  58.173 -53.043  1.00  0.00     0.026 C 
HETATM    3  N   UNL     1     -43.706  58.199 -51.892  1.00  0.00    -0.301 N 
HETATM    4  C   UNL     1     -44.361  57.058 -51.414  1.00  0.00     0.323 C 
HETATM    5  O   UNL     1     -45.099  57.025 -50.431  1.00  0.00    -0.247 OA
HETATM    6  N   UNL     1     -44.161  55.903 -52.107  1.00  0.00    -0.330 N 
HETATM    7  C   UNL     1     -43.081  55.679 -53.036  1.00  0.00     0.161 C 
HETATM    8  C   UNL     1     -42.655  56.981 -53.626  1.00  0.00     0.059 C 
HETATM    9  H   UNL     1     -44.608  55.102 -51.684  1.00  0.00     0.165 HD
ENDROOT
BRANCH   8  10
HETATM   10  C   UNL     1     -41.978  56.887 -54.946  1.00  0.00     0.256 C 
HETATM   11  N   UNL     1     -42.896  56.908 -55.978  1.00  0.00    -0.321 N 
HETATM   12  H   UNL     1     -43.858  56.717 -55.726  1.00  0.00     0.169 HD
HETATM   13  O   UNL     1     -40.773  56.687 -55.009  1.00  0.00    -0.267 OA
BRANCH  11  14
HETATM   14  C   UNL     1     -42.628  57.010 -57.360  1.00  0.00     0.068 A 
HETATM   15  C   UNL     1     -42.094  58.145 -57.991  1.00  0.00     0.095 A 
HETATM   16  C   UNL     1     -41.904  58.148 -59.380  1.00  0.00     0.039 A 
HETATM   17  C   UNL     1     -42.232  57.027 -60.142  1.00  0.00     0.003 A 
HETATM   18  C   UNL     1     -42.782  55.908 -59.526  1.00  0.00     0.002 A 
HETATM   19  C   UNL     1     -42.992  55.906 -58.145  1.00  0.00     0.032 A 
BRANCH  15  20
HETATM   20  O   UNL     1     -41.945  59.312 -57.286  1.00  0.00    -0.354 OA
HETATM   21  C   UNL     1     -41.599  60.414 -58.124  1.00  0.00     0.210 C 
ENDBRANCH  15  20
ENDBRANCH  11  14
ENDBRANCH   8  10
BRANCH   7  22
HETATM   22  C   UNL     1     -41.960  54.893 -52.352  1.00  0.00    -0.016 A 
HETATM   23  C   UNL     1     -41.318  53.795 -52.979  1.00  0.00     0.056 A 
HETATM   24  C   UNL     1     -40.296  53.110 -52.292  1.00  0.00     0.017 A 
HETATM   25  C   UNL     1     -39.912  53.487 -51.007  1.00  0.00     0.001 A 
HETATM   26  C   UNL     1     -40.546  54.554 -50.383  1.00  0.00     0.001 A 
HETATM   27  C   UNL     1     -41.557  55.247 -51.046  1.00  0.00     0.010 A 
BRANCH  23  28
HETATM   28  C   UNL     1     -41.715  53.315 -54.359  1.00  0.00     0.418 C 
HETATM   29  F   UNL     1     -40.888  53.811 -55.324  1.00  0.00    -0.166 F 
HETATM   30  F   UNL     1     -41.668  51.963 -54.492  1.00  0.00    -0.166 F 
HETATM   31  F   UNL     1     -42.972  53.683 -54.732  1.00  0.00    -0.166 F 
ENDBRANCH  23  28
ENDBRANCH   7  22
BRANCH   3  32
HETATM   32  C   UNL     1     -44.013  59.453 -51.185  1.00  0.00     0.160 C 
BRANCH  32  33
HETATM   33  C   UNL     1     -45.328  60.123 -51.614  1.00  0.00     0.187 C 
BRANCH  33  34
HETATM   34  O   UNL     1     -46.165  60.382 -50.488  1.00  0.00    -0.394 OA
HETATM   35  C   UNL     1     -45.407  60.636 -49.313  1.00  0.00     0.201 C 
ENDBRANCH  33  34
ENDBRANCH  32  33
ENDBRANCH   3  32
TORSDOF 8
ENDMDL
MODEL 2
REMARK VINA RESULT:      -8.0      2.790      5.933
REMARK  8 active torsions:
REMARK  status: ('A' for Active; 'I' for Inactive)
REMARK    1  A    between atoms: N_3  and  C_4 
REMARK    2  A    between atoms: C_4  and  C_5 
REMARK    3  A    between atoms: C_5  and  O_6 
REMARK    4  A    between atoms: C_11  and  C_12 
REMARK    5  A    between atoms: C_13  and  C_14 
REMARK    6  A    between atoms: C_22  and  C_23 
REMARK       I    between atoms: C_23  and  N_24 
REMARK    7  A    between atoms: N_24  and  C_25 
REMARK    8  A    between atoms: C_26  and  O_27 
ROOT
HETATM    1  C   UNL     1     -42.631  55.974 -57.051  1.00  0.00     0.069 C 
HETATM    2  C   UNL     1     -43.325  56.447 -55.795  1.00  0.00     0.026 C 
HETATM    3  N   UNL     1     -43.986  57.685 -55.782  1.00  0.00    -0.301 N 
HETATM    4  C   UNL     1     -44.726  58.126 -54.680  1.00  0.00     0.323 C 
HETATM    5  O   UNL     1     -45.347  59.185 -54.621  1.00  0.00    -0.247 OA
HETATM    6  N   UNL     1     -44.756  57.301 -53.596  1.00  0.00    -0.330 N 
HETATM    7  C   UNL     1     -43.825  56.227 -53.354  1.00  0.00     0.161 C 
HETATM    8  C   UNL     1     -43.301  55.722 -54.656  1.00  0.00     0.059 C 
HETATM    9  H   UNL     1     -45.254  57.694 -52.810  1.00  0.00     0.165 HD
ENDROOT
BRANCH   8  10
HETATM   10  C   UNL     1     -42.793  54.325 -54.636  1.00  0.00     0.256 C 
HETATM   11  N   UNL     1     -41.585  54.246 -53.970  1.00  0.00    -0.321 N 
HETATM   12  H   UNL     1     -41.091  55.119 -53.831  1.00  0.00     0.169 HD
HETATM   13  O   UNL     1     -43.369  53.449 -55.265  1.00  0.00    -0.267 OA
BRANCH  11  14
HETATM   14  C   UNL     1     -40.887  53.076 -53.600  1.00  0.00     0.068 A 
HETATM   15  C   UNL     1     -40.259  52.875 -52.361  1.00  0.00     0.095 A 
HETATM   16  C   UNL     1     -39.560  51.686 -52.115  1.00  0.00     0.039 A 
HETATM   17  C   UNL     1     -39.491  50.691 -53.090  1.00  0.00     0.003 A 
HETATM   18  C   UNL     1     -40.092  50.892 -54.328  1.00  0.00     0.002 A 
HETATM   19  C   UNL     1     -40.773  52.084 -54.586  1.00  0.00     0.032 A 
BRANCH  15  20
HETATM   20  O   UNL     1     -40.159  53.914 -51.470  1.00  0.00    -0.354 OA
HETATM   21  C   UNL     1     -39.900  53.467 -50.139  1.00  0.00     0.210 C 
ENDBRANCH  15  20
ENDBRANCH  11  14
ENDBRANCH   8  10
BRANCH   7  22
HETATM   22  C   UNL     1     -42.746  56.684 -52.369  1.00  0.00    -0.016 A 
HETATM   23  C   UNL     1     -42.576  56.073 -51.101  1.00  0.00     0.056 A 
HETATM   24  C   UNL     1     -41.566  56.545 -50.238  1.00  0.00     0.017 A 
HETATM   25  C   UNL     1     -40.741  57.606 -50.606  1.00  0.00     0.001 A 
HETATM   26  C   UNL     1     -40.912  58.217 -51.841  1.00  0.00     0.001 A 
HETATM   27  C   UNL     1     -41.902  57.763 -52.711  1.00  0.00     0.010 A 
BRANCH  23  28
HETATM   28  C   UNL     1     -43.463  54.941 -50.631  1.00  0.00     0.418 C 
HETATM   29  F   UNL     1     -42.986  54.364 -49.490  1.00  0.00    -0.166 F 
HETATM   30  F   UNL     1     -44.732  55.336 -50.342  1.00  0.00    -0.166 F 
HETATM   31  F   UNL     1     -43.587  53.925 -51.530  1.00  0.00    -0.166 F 
ENDBRANCH  23  28
ENDBRANCH   7  22
BRANCH   3  32
HETATM   32  C   UNL     1     -44.046  58.548 -56.975  1.00  0.00     0.160 C 
BRANCH  32  33
HETATM   33  C   UNL     1     -45.229  58.259 -57.911  1.00  0.00     0.187 C 
BRANCH  33  34
HETATM   34  O   UNL     1     -44.778  57.867 -59.206  1.00  0.00    -0.394 OA
HETATM   35  C   UNL     1     -45.347  56.630 -59.612  1.00  0.00     0.201 C 
ENDBRANCH  33  34
ENDBRANCH  32  33
ENDBRANCH   3  32
TORSDOF 8
ENDMDL
MODEL 3
REMARK VINA RESULT:      -7.5      2.666      5.909
REMARK  8 active torsions:
REMARK  status: ('A' for Active; 'I' for Inactive)
REMARK    1  A    between atoms: N_3  and  C_4 
REMARK    2  A    between atoms: C_4  and  C_5 
REMARK    3  A    between atoms: C_5  and  O_6 
REMARK    4  A    between atoms: C_11  and  C_12 
REMARK    5  A    between atoms: C_13  and  C_14 
REMARK    6  A    between atoms: C_22  and  C_23 
REMARK       I    between atoms: C_23  and  N_24 
REMARK    7  A    between atoms: N_24  and  C_25 
REMARK    8  A    between atoms: C_26  and  O_27 
ROOT
HETATM    1  C   UNL     1     -44.299  57.666 -52.004  1.00  0.00     0.069 C 
HETATM    2  C   UNL     1     -43.890  58.335 -53.296  1.00  0.00     0.026 C 
HETATM    3  N   UNL     1     -43.937  59.733 -53.408  1.00  0.00    -0.301 N 
HETATM    4  C   UNL     1     -43.477  60.407 -54.545  1.00  0.00     0.323 C 
HETATM    5  O   UNL     1     -43.466  61.628 -54.688  1.00  0.00    -0.247 OA
HETATM    6  N   UNL     1     -43.000  59.635 -55.560  1.00  0.00    -0.330 N 
HETATM    7  C   UNL     1     -43.260  58.226 -55.714  1.00  0.00     0.161 C 
HETATM    8  C   UNL     1     -43.507  57.618 -54.374  1.00  0.00     0.059 C 
HETATM    9  H   UNL     1     -42.737  60.170 -56.376  1.00  0.00     0.165 HD
ENDROOT
BRANCH   8  10
HETATM   10  C   UNL     1     -43.248  56.157 -54.284  1.00  0.00     0.256 C 
HETATM   11  N   UNL     1     -41.902  55.902 -54.104  1.00  0.00    -0.321 N 
HETATM   12  H   UNL     1     -41.268  56.662 -54.318  1.00  0.00     0.169 HD
HETATM   13  O   UNL     1     -44.149  55.356 -54.486  1.00  0.00    -0.267 OA
BRANCH  11  14
HETATM   14  C   UNL     1     -41.298  54.661 -53.805  1.00  0.00     0.068 A 
HETATM   15  C   UNL     1     -41.225  54.093 -52.524  1.00  0.00     0.095 A 
HETATM   16  C   UNL     1     -40.566  52.869 -52.338  1.00  0.00     0.039 A 
HETATM   17  C   UNL     1     -39.991  52.203 -53.420  1.00  0.00     0.003 A 
HETATM   18  C   UNL     1     -40.042  52.771 -54.688  1.00  0.00     0.002 A 
HETATM   19  C   UNL     1     -40.679  54.000 -54.877  1.00  0.00     0.032 A 
BRANCH  15  20
HETATM   20  O   UNL     1     -41.617  54.822 -51.430  1.00  0.00    -0.354 OA
HETATM   21  C   UNL     1     -42.867  54.380 -50.901  1.00  0.00     0.210 C 
ENDBRANCH  15  20
ENDBRANCH  11  14
ENDBRANCH   8  10
BRANCH   7  22
HETATM   22  C   UNL     1     -44.386  58.011 -56.727  1.00  0.00    -0.016 A 
HETATM   23  C   UNL     1     -44.187  57.292 -57.933  1.00  0.00     0.056 A 
HETATM   24  C   UNL     1     -45.266  57.134 -58.828  1.00  0.00     0.017 A 
HETATM   25  C   UNL     1     -46.518  57.679 -58.551  1.00  0.00     0.001 A 
HETATM   26  C   UNL     1     -46.715  58.395 -57.377  1.00  0.00     0.001 A 
HETATM   27  C   UNL     1     -45.663  58.560 -56.478  1.00  0.00     0.010 A 
BRANCH  23  28
HETATM   28  C   UNL     1     -42.842  56.707 -58.307  1.00  0.00     0.418 C 
HETATM   29  F   UNL     1     -41.858  57.652 -58.294  1.00  0.00    -0.166 F 
HETATM   30  F   UNL     1     -42.426  55.730 -57.458  1.00  0.00    -0.166 F 
HETATM   31  F   UNL     1     -42.805  56.158 -59.553  1.00  0.00    -0.166 F 
ENDBRANCH  23  28
ENDBRANCH   7  22
BRANCH   3  32
HETATM   32  C   UNL     1     -44.359  60.590 -52.287  1.00  0.00     0.160 C 
BRANCH  32  33
HETATM   33  C   UNL     1     -43.202  61.203 -51.482  1.00  0.00     0.187 C 
BRANCH  33  34
HETATM   34  O   UNL     1     -42.795  60.337 -50.424  1.00  0.00    -0.394 OA
HETATM   35  C   UNL     1     -41.449  59.910 -50.580  1.00  0.00     0.201 C 
ENDBRANCH  33  34
ENDBRANCH  32  33
ENDBRANCH   3  32
TORSDOF 8
ENDMDL
MODEL 4
REMARK VINA RESULT:      -7.5      3.059      6.687
REMARK  8 active torsions:
REMARK  status: ('A' for Active; 'I' for Inactive)
REMARK    1  A    between atoms: N_3  and  C_4 
REMARK    2  A    between atoms: C_4  and  C_5 
REMARK    3  A    between atoms: C_5  and  O_6 
REMARK    4  A    between atoms: C_11  and  C_12 
REMARK    5  A    between atoms: C_13  and  C_14 
REMARK    6  A    between atoms: C_22  and  C_23 
REMARK       I    between atoms: C_23  and  N_24 
REMARK    7  A    between atoms: N_24  and  C_25 
REMARK    8  A    between atoms: C_26  and  O_27 
ROOT
HETATM    1  C   UNL     1     -42.714  55.526 -57.131  1.00  0.00     0.069 C 
HETATM    2  C   UNL     1     -43.498  56.527 -56.313  1.00  0.00     0.026 C 
HETATM    3  N   UNL     1     -44.042  57.665 -56.929  1.00  0.00    -0.301 N 
HETATM    4  C   UNL     1     -44.857  58.570 -56.240  1.00  0.00     0.323 C 
HETATM    5  O   UNL     1     -45.383  59.566 -56.733  1.00  0.00    -0.247 OA
HETATM    6  N   UNL     1     -45.082  58.308 -54.922  1.00  0.00    -0.330 N 
HETATM    7  C   UNL     1     -44.284  57.421 -54.113  1.00  0.00     0.161 C 
HETATM    8  C   UNL     1     -43.667  56.377 -54.981  1.00  0.00     0.059 C 
HETATM    9  H   UNL     1     -45.626  59.023 -54.462  1.00  0.00     0.165 HD
ENDROOT
BRANCH   8  10
HETATM   10  C   UNL     1     -43.292  55.117 -54.288  1.00  0.00     0.256 C 
HETATM   11  N   UNL     1     -41.923  55.029 -54.121  1.00  0.00    -0.321 N 
HETATM   12  H   UNL     1     -41.361  55.649 -54.692  1.00  0.00     0.169 HD
HETATM   13  O   UNL     1     -44.138  54.266 -54.053  1.00  0.00    -0.267 OA
BRANCH  11  14
HETATM   14  C   UNL     1     -41.213  54.074 -53.364  1.00  0.00     0.068 A 
HETATM   15  C   UNL     1     -40.860  54.222 -52.013  1.00  0.00     0.095 A 
HETATM   16  C   UNL     1     -40.119  53.221 -51.370  1.00  0.00     0.039 A 
HETATM   17  C   UNL     1     -39.736  52.071 -52.058  1.00  0.00     0.003 A 
HETATM   18  C   UNL     1     -40.063  51.927 -53.402  1.00  0.00     0.002 A 
HETATM   19  C   UNL     1     -40.784  52.930 -54.054  1.00  0.00     0.032 A 
BRANCH  15  20
HETATM   20  O   UNL     1     -41.065  55.422 -51.382  1.00  0.00    -0.354 OA
HETATM   21  C   UNL     1     -42.241  55.419 -50.573  1.00  0.00     0.210 C 
ENDBRANCH  15  20
ENDBRANCH  11  14
ENDBRANCH   8  10
BRANCH   7  22
HETATM   22  C   UNL     1     -43.284  58.230 -53.283  1.00  0.00    -0.016 A 
HETATM   23  C   UNL     1     -43.613  58.752 -52.006  1.00  0.00     0.056 A 
HETATM   24  C   UNL     1     -42.648  59.493 -51.295  1.00  0.00     0.017 A 
HETATM   25  C   UNL     1     -41.383  59.730 -51.828  1.00  0.00     0.001 A 
HETATM   26  C   UNL     1     -41.060  59.233 -53.084  1.00  0.00     0.001 A 
HETATM   27  C   UNL     1     -41.998  58.494 -53.803  1.00  0.00     0.010 A 
BRANCH  23  28
HETATM   28  C   UNL     1     -44.981  58.559 -51.389  1.00  0.00     0.418 C 
HETATM   29  F   UNL     1     -45.045  59.073 -50.127  1.00  0.00    -0.166 F 
HETATM   30  F   UNL     1     -45.977  59.168 -52.086  1.00  0.00    -0.166 F 
HETATM   31  F   UNL     1     -45.356  57.254 -51.270  1.00  0.00    -0.166 F 
ENDBRANCH  23  28
ENDBRANCH   7  22
BRANCH   3  32
HETATM   32  C   UNL     1     -43.891  57.915 -58.372  1.00  0.00     0.160 C 
BRANCH  32  33
HETATM   33  C   UNL     1     -44.968  57.258 -59.249  1.00  0.00     0.187 C 
BRANCH  33  34
HETATM   34  O   UNL     1     -44.385  56.363 -60.196  1.00  0.00    -0.394 OA
HETATM   35  C   UNL     1     -44.970  55.070 -60.130  1.00  0.00     0.201 C 
ENDBRANCH  33  34
ENDBRANCH  32  33
ENDBRANCH   3  32
TORSDOF 8
ENDMDL
MODEL 5
REMARK VINA RESULT:      -7.4      2.985      7.012
REMARK  8 active torsions:
REMARK  status: ('A' for Active; 'I' for Inactive)
REMARK    1  A    between atoms: N_3  and  C_4 
REMARK    2  A    between atoms: C_4  and  C_5 
REMARK    3  A    between atoms: C_5  and  O_6 
REMARK    4  A    between atoms: C_11  and  C_12 
REMARK    5  A    between atoms: C_13  and  C_14 
REMARK    6  A    between atoms: C_22  and  C_23 
REMARK       I    between atoms: C_23  and  N_24 
REMARK    7  A    between atoms: N_24  and  C_25 
REMARK    8  A    between atoms: C_26  and  O_27 
ROOT
HETATM    1  C   UNL     1     -42.519  57.239 -58.008  1.00  0.00     0.069 C 
HETATM    2  C   UNL     1     -43.816  57.528 -57.288  1.00  0.00     0.026 C 
HETATM    3  N   UNL     1     -44.954  57.904 -58.017  1.00  0.00    -0.301 N 
HETATM    4  C   UNL     1     -46.203  58.087 -57.411  1.00  0.00     0.323 C 
HETATM    5  O   UNL     1     -47.239  58.388 -58.001  1.00  0.00    -0.247 OA
HETATM    6  N   UNL     1     -46.258  57.907 -56.062  1.00  0.00    -0.330 N 
HETATM    7  C   UNL     1     -45.115  57.909 -55.185  1.00  0.00     0.161 C 
HETATM    8  C   UNL     1     -43.907  57.469 -55.942  1.00  0.00     0.059 C 
HETATM    9  H   UNL     1     -47.167  58.109 -55.671  1.00  0.00     0.165 HD
ENDROOT
BRANCH   8  10
HETATM   10  C   UNL     1     -42.813  56.899 -55.113  1.00  0.00     0.256 C 
HETATM   11  N   UNL     1     -42.998  55.545 -54.908  1.00  0.00    -0.321 N 
HETATM   12  H   UNL     1     -43.927  55.186 -55.094  1.00  0.00     0.169 HD
HETATM   13  O   UNL     1     -41.972  57.631 -54.612  1.00  0.00    -0.267 OA
BRANCH  11  14
HETATM   14  C   UNL     1     -42.091  54.635 -54.324  1.00  0.00     0.068 A 
HETATM   15  C   UNL     1     -42.064  54.292 -52.963  1.00  0.00     0.095 A 
HETATM   16  C   UNL     1     -41.091  53.403 -52.486  1.00  0.00     0.039 A 
HETATM   17  C   UNL     1     -40.152  52.846 -53.354  1.00  0.00     0.003 A 
HETATM   18  C   UNL     1     -40.160  53.199 -54.699  1.00  0.00     0.002 A 
HETATM   19  C   UNL     1     -41.114  54.100 -55.178  1.00  0.00     0.032 A 
BRANCH  15  20
HETATM   20  O   UNL     1     -42.854  54.971 -52.072  1.00  0.00    -0.354 OA
HETATM   21  C   UNL     1     -43.647  54.096 -51.270  1.00  0.00     0.210 C 
ENDBRANCH  15  20
ENDBRANCH  11  14
ENDBRANCH   8  10
BRANCH   7  22
HETATM   22  C   UNL     1     -44.978  59.275 -54.509  1.00  0.00    -0.016 A 
HETATM   23  C   UNL     1     -44.742  59.407 -53.117  1.00  0.00     0.056 A 
HETATM   24  C   UNL     1     -44.631  60.696 -52.556  1.00  0.00     0.017 A 
HETATM   25  C   UNL     1     -44.760  61.839 -53.342  1.00  0.00     0.001 A 
HETATM   26  C   UNL     1     -45.004  61.715 -54.704  1.00  0.00     0.001 A 
HETATM   27  C   UNL     1     -45.113  60.451 -55.280  1.00  0.00     0.010 A 
BRANCH  23  28
HETATM   28  C   UNL     1     -44.629  58.205 -52.205  1.00  0.00     0.418 C 
HETATM   29  F   UNL     1     -45.368  58.360 -51.069  1.00  0.00    -0.166 F 
HETATM   30  F   UNL     1     -45.068  57.053 -52.777  1.00  0.00    -0.166 F 
HETATM   31  F   UNL     1     -43.359  57.949 -51.782  1.00  0.00    -0.166 F 
ENDBRANCH  23  28
ENDBRANCH   7  22
BRANCH   3  32
HETATM   32  C   UNL     1     -44.938  58.010 -59.486  1.00  0.00     0.160 C 
BRANCH  32  33
HETATM   33  C   UNL     1     -45.452  56.763 -60.221  1.00  0.00     0.187 C 
BRANCH  33  34
HETATM   34  O   UNL     1     -44.370  55.983 -60.728  1.00  0.00    -0.394 OA
HETATM   35  C   UNL     1     -44.287  54.716 -60.089  1.00  0.00     0.201 C 
ENDBRANCH  33  34
ENDBRANCH  32  33
ENDBRANCH   3  32
TORSDOF 8
ENDMDL
MODEL 6
REMARK VINA RESULT:      -7.3      2.963      7.229
REMARK  8 active torsions:
REMARK  status: ('A' for Active; 'I' for Inactive)
REMARK    1  A    between atoms: N_3  and  C_4 
REMARK    2  A    between atoms: C_4  and  C_5 
REMARK    3  A    between atoms: C_5  and  O_6 
REMARK    4  A    between atoms: C_11  and  C_12 
REMARK    5  A    between atoms: C_13  and  C_14 
REMARK    6  A    between atoms: C_22  and  C_23 
REMARK       I    between atoms: C_23  and  N_24 
REMARK    7  A    between atoms: N_24  and  C_25 
REMARK    8  A    between atoms: C_26  and  O_27 
ROOT
HETATM    1  C   UNL     1     -42.078  55.091 -55.749  1.00  0.00     0.069 C 
HETATM    2  C   UNL     1     -43.082  56.126 -55.296  1.00  0.00     0.026 C 
HETATM    3  N   UNL     1     -43.627  57.028 -56.223  1.00  0.00    -0.301 N 
HETATM    4  C   UNL     1     -44.632  57.939 -55.877  1.00  0.00     0.323 C 
HETATM    5  O   UNL     1     -45.166  58.731 -56.650  1.00  0.00    -0.247 OA
HETATM    6  N   UNL     1     -45.043  57.929 -54.578  1.00  0.00    -0.330 N 
HETATM    7  C   UNL     1     -44.306  57.344 -53.486  1.00  0.00     0.161 C 
HETATM    8  C   UNL     1     -43.452  56.235 -54.001  1.00  0.00     0.059 C 
HETATM    9  H   UNL     1     -45.725  58.645 -54.372  1.00  0.00     0.165 HD
ENDROOT
BRANCH   8  10
HETATM   10  C   UNL     1     -43.074  55.208 -52.996  1.00  0.00     0.256 C 
HETATM   11  N   UNL     1     -41.896  55.547 -52.358  1.00  0.00    -0.321 N 
HETATM   12  H   UNL     1     -41.329  56.255 -52.809  1.00  0.00     0.169 HD
HETATM   13  O   UNL     1     -43.709  54.167 -52.908  1.00  0.00    -0.267 OA
BRANCH  11  14
HETATM   14  C   UNL     1     -41.317  54.915 -51.237  1.00  0.00     0.068 A 
HETATM   15  C   UNL     1     -40.569  53.728 -51.282  1.00  0.00     0.095 A 
HETATM   16  C   UNL     1     -40.072  53.169 -50.097  1.00  0.00     0.039 A 
HETATM   17  C   UNL     1     -40.305  53.788 -48.870  1.00  0.00     0.003 A 
HETATM   18  C   UNL     1     -41.064  54.952 -48.815  1.00  0.00     0.002 A 
HETATM   19  C   UNL     1     -41.579  55.504 -49.990  1.00  0.00     0.032 A 
BRANCH  15  20
HETATM   20  O   UNL     1     -40.493  53.014 -52.451  1.00  0.00    -0.354 OA
HETATM   21  C   UNL     1     -39.701  51.833 -52.317  1.00  0.00     0.210 C 
ENDBRANCH  15  20
ENDBRANCH  11  14
ENDBRANCH   8  10
BRANCH   7  22
HETATM   22  C   UNL     1     -43.543  58.434 -52.730  1.00  0.00    -0.016 A 
HETATM   23  C   UNL     1     -44.075  59.063 -51.575  1.00  0.00     0.056 A 
HETATM   24  C   UNL     1     -43.323  60.064 -50.927  1.00  0.00     0.017 A 
HETATM   25  C   UNL     1     -42.074  60.452 -51.407  1.00  0.00     0.001 A 
HETATM   26  C   UNL     1     -41.554  59.849 -52.545  1.00  0.00     0.001 A 
HETATM   27  C   UNL     1     -42.279  58.854 -53.198  1.00  0.00     0.010 A 
BRANCH  23  28
HETATM   28  C   UNL     1     -45.441  58.710 -51.027  1.00  0.00     0.418 C 
HETATM   29  F   UNL     1     -45.596  59.137 -49.741  1.00  0.00    -0.166 F 
HETATM   30  F   UNL     1     -46.462  59.271 -51.727  1.00  0.00    -0.166 F 
HETATM   31  F   UNL     1     -45.698  57.373 -51.001  1.00  0.00    -0.166 F 
ENDBRANCH  23  28
ENDBRANCH   7  22
BRANCH   3  32
HETATM   32  C   UNL     1     -43.266  56.990 -57.650  1.00  0.00     0.160 C 
BRANCH  32  33
HETATM   33  C   UNL     1     -42.201  58.017 -58.065  1.00  0.00     0.187 C 
BRANCH  33  34
HETATM   34  O   UNL     1     -41.785  57.810 -59.414  1.00  0.00    -0.394 OA
HETATM   35  C   UNL     1     -42.657  56.926 -60.106  1.00  0.00     0.201 C 
ENDBRANCH  33  34
ENDBRANCH  32  33
ENDBRANCH   3  32
TORSDOF 8
ENDMDL
MODEL 7
REMARK VINA RESULT:      -7.3      3.109      5.804
REMARK  8 active torsions:
REMARK  status: ('A' for Active; 'I' for Inactive)
REMARK    1  A    between atoms: N_3  and  C_4 
REMARK    2  A    between atoms: C_4  and  C_5 
REMARK    3  A    between atoms: C_5  and  O_6 
REMARK    4  A    between atoms: C_11  and  C_12 
REMARK    5  A    between atoms: C_13  and  C_14 
REMARK    6  A    between atoms: C_22  and  C_23 
REMARK       I    between atoms: C_23  and  N_24 
REMARK    7  A    between atoms: N_24  and  C_25 
REMARK    8  A    between atoms: C_26  and  O_27 
ROOT
HETATM    1  C   UNL     1     -43.148  54.194 -55.926  1.00  0.00     0.069 C 
HETATM    2  C   UNL     1     -42.466  55.020 -54.860  1.00  0.00     0.026 C 
HETATM    3  N   UNL     1     -41.786  54.386 -53.809  1.00  0.00    -0.301 N 
HETATM    4  C   UNL     1     -41.056  55.101 -52.852  1.00  0.00     0.323 C 
HETATM    5  O   UNL     1     -40.419  54.600 -51.928  1.00  0.00    -0.247 OA
HETATM    6  N   UNL     1     -41.057  56.457 -52.973  1.00  0.00    -0.330 N 
HETATM    7  C   UNL     1     -42.009  57.213 -53.747  1.00  0.00     0.161 C 
HETATM    8  C   UNL     1     -42.520  56.370 -54.866  1.00  0.00     0.059 C 
HETATM    9  H   UNL     1     -40.566  56.924 -52.224  1.00  0.00     0.165 HD
ENDROOT
BRANCH   8  10
HETATM   10  C   UNL     1     -43.051  57.120 -56.034  1.00  0.00     0.256 C 
HETATM   11  N   UNL     1     -42.035  57.472 -56.902  1.00  0.00    -0.321 N 
HETATM   12  H   UNL     1     -41.094  57.427 -56.533  1.00  0.00     0.169 HD
HETATM   13  O   UNL     1     -44.227  57.452 -56.072  1.00  0.00    -0.267 OA
BRANCH  11  14
HETATM   14  C   UNL     1     -42.167  58.034 -58.191  1.00  0.00     0.068 A 
HETATM   15  C   UNL     1     -42.459  57.308 -59.356  1.00  0.00     0.095 A 
HETATM   16  C   UNL     1     -42.529  57.967 -60.591  1.00  0.00     0.039 A 
HETATM   17  C   UNL     1     -42.320  59.343 -60.673  1.00  0.00     0.003 A 
HETATM   18  C   UNL     1     -42.008  60.065 -59.525  1.00  0.00     0.002 A 
HETATM   19  C   UNL     1     -41.917  59.411 -58.294  1.00  0.00     0.032 A 
BRANCH  15  20
HETATM   20  O   UNL     1     -42.480  55.937 -59.319  1.00  0.00    -0.354 OA
HETATM   21  C   UNL     1     -43.789  55.406 -59.526  1.00  0.00     0.210 C 
ENDBRANCH  15  20
ENDBRANCH  11  14
ENDBRANCH   8  10
BRANCH   7  22
HETATM   22  C   UNL     1     -43.096  57.779 -52.830  1.00  0.00    -0.016 A 
HETATM   23  C   UNL     1     -43.347  59.171 -52.728  1.00  0.00     0.056 A 
HETATM   24  C   UNL     1     -44.360  59.627 -51.860  1.00  0.00     0.017 A 
HETATM   25  C   UNL     1     -45.110  58.736 -51.096  1.00  0.00     0.001 A 
HETATM   26  C   UNL     1     -44.860  57.373 -51.182  1.00  0.00     0.001 A 
HETATM   27  C   UNL     1     -43.865  56.900 -52.036  1.00  0.00     0.010 A 
BRANCH  23  28
HETATM   28  C   UNL     1     -42.543  60.190 -53.506  1.00  0.00     0.418 C 
HETATM   29  F   UNL     1     -42.843  60.164 -54.836  1.00  0.00    -0.166 F 
HETATM   30  F   UNL     1     -42.763  61.470 -53.103  1.00  0.00    -0.166 F 
HETATM   31  F   UNL     1     -41.195  60.004 -53.432  1.00  0.00    -0.166 F 
ENDBRANCH  23  28
ENDBRANCH   7  22
BRANCH   3  32
HETATM   32  C   UNL     1     -41.693  52.919 -53.715  1.00  0.00     0.160 C 
BRANCH  32  33
HETATM   33  C   UNL     1     -40.442  52.316 -54.374  1.00  0.00     0.187 C 
BRANCH  33  34
HETATM   34  O   UNL     1     -39.856  51.314 -53.545  1.00  0.00    -0.394 OA
HETATM   35  C   UNL     1     -39.800  50.054 -54.199  1.00  0.00     0.201 C 
ENDBRANCH  33  34
ENDBRANCH  32  33
ENDBRANCH   3  32
TORSDOF 8
ENDMDL
MODEL 8
REMARK VINA RESULT:      -7.3      1.493      2.211
REMARK  8 active torsions:
REMARK  status: ('A' for Active; 'I' for Inactive)
REMARK    1  A    between atoms: N_3  and  C_4 
REMARK    2  A    between atoms: C_4  and  C_5 
REMARK    3  A    between atoms: C_5  and  O_6 
REMARK    4  A    between atoms: C_11  and  C_12 
REMARK    5  A    between atoms: C_13  and  C_14 
REMARK    6  A    between atoms: C_22  and  C_23 
REMARK       I    between atoms: C_23  and  N_24 
REMARK    7  A    between atoms: N_24  and  C_25 
REMARK    8  A    between atoms: C_26  and  O_27 
ROOT
HETATM    1  C   UNL     1     -42.883  60.888 -53.119  1.00  0.00     0.069 C 
HETATM    2  C   UNL     1     -43.546  59.602 -52.682  1.00  0.00     0.026 C 
HETATM    3  N   UNL     1     -44.450  59.608 -51.609  1.00  0.00    -0.301 N 
HETATM    4  C   UNL     1     -45.165  58.467 -51.227  1.00  0.00     0.323 C 
HETATM    5  O   UNL     1     -45.990  58.420 -50.317  1.00  0.00    -0.247 OA
HETATM    6  N   UNL     1     -44.922  57.330 -51.936  1.00  0.00    -0.330 N 
HETATM    7  C   UNL     1     -43.767  57.112 -52.770  1.00  0.00     0.161 C 
HETATM    8  C   UNL     1     -43.267  58.422 -53.277  1.00  0.00     0.059 C 
HETATM    9  H   UNL     1     -45.420  56.526 -51.581  1.00  0.00     0.165 HD
ENDROOT
BRANCH   8  10
HETATM   10  C   UNL     1     -42.474  58.355 -54.533  1.00  0.00     0.256 C 
HETATM   11  N   UNL     1     -43.290  58.463 -55.643  1.00  0.00    -0.321 N 
HETATM   12  H   UNL     1     -44.279  58.307 -55.489  1.00  0.00     0.169 HD
HETATM   13  O   UNL     1     -41.278  58.102 -54.495  1.00  0.00    -0.267 OA
BRANCH  11  14
HETATM   14  C   UNL     1     -42.891  58.613 -56.988  1.00  0.00     0.068 A 
HETATM   15  C   UNL     1     -42.936  57.598 -57.956  1.00  0.00     0.095 A 
HETATM   16  C   UNL     1     -42.477  57.850 -59.256  1.00  0.00     0.039 A 
HETATM   17  C   UNL     1     -41.983  59.107 -59.602  1.00  0.00     0.003 A 
HETATM   18  C   UNL     1     -41.914  60.111 -58.642  1.00  0.00     0.002 A 
HETATM   19  C   UNL     1     -42.352  59.860 -57.339  1.00  0.00     0.032 A 
BRANCH  15  20
HETATM   20  O   UNL     1     -43.241  56.313 -57.584  1.00  0.00    -0.354 OA
HETATM   21  C   UNL     1     -43.541  55.479 -58.703  1.00  0.00     0.210 C 
ENDBRANCH  15  20
ENDBRANCH  11  14
ENDBRANCH   8  10
BRANCH   7  22
HETATM   22  C   UNL     1     -42.725  56.284 -52.013  1.00  0.00    -0.016 A 
HETATM   23  C   UNL     1     -42.223  55.059 -52.519  1.00  0.00     0.056 A 
HETATM   24  C   UNL     1     -41.268  54.342 -51.769  1.00  0.00     0.017 A 
HETATM   25  C   UNL     1     -40.819  54.812 -50.537  1.00  0.00     0.001 A 
HETATM   26  C   UNL     1     -41.318  56.004 -50.029  1.00  0.00     0.001 A 
HETATM   27  C   UNL     1     -42.259  56.731 -50.757  1.00  0.00     0.010 A 
BRANCH  23  28
HETATM   28  C   UNL     1     -42.698  54.480 -53.834  1.00  0.00     0.418 C 
HETATM   29  F   UNL     1     -42.237  55.196 -54.900  1.00  0.00    -0.166 F 
HETATM   30  F   UNL     1     -42.281  53.202 -54.041  1.00  0.00    -0.166 F 
HETATM   31  F   UNL     1     -44.053  54.455 -53.970  1.00  0.00    -0.166 F 
ENDBRANCH  23  28
ENDBRANCH   7  22
BRANCH   3  32
HETATM   32  C   UNL     1     -44.799  60.847 -50.892  1.00  0.00     0.160 C 
BRANCH  32  33
HETATM   33  C   UNL     1     -43.908  61.154 -49.678  1.00  0.00     0.187 C 
BRANCH  33  34
HETATM   34  O   UNL     1     -44.672  61.181 -48.474  1.00  0.00    -0.394 OA
HETATM   35  C   UNL     1     -45.167  62.482 -48.190  1.00  0.00     0.201 C 
ENDBRANCH  33  34
ENDBRANCH  32  33
ENDBRANCH   3  32
TORSDOF 8
ENDMDL
MODEL 9
REMARK VINA RESULT:      -7.1      2.866      5.392
REMARK  8 active torsions:
REMARK  status: ('A' for Active; 'I' for Inactive)
REMARK    1  A    between atoms: N_3  and  C_4 
REMARK    2  A    between atoms: C_4  and  C_5 
REMARK    3  A    between atoms: C_5  and  O_6 
REMARK    4  A    between atoms: C_11  and  C_12 
REMARK    5  A    between atoms: C_13  and  C_14 
REMARK    6  A    between atoms: C_22  and  C_23 
REMARK       I    between atoms: C_23  and  N_24 
REMARK    7  A    between atoms: N_24  and  C_25 
REMARK    8  A    between atoms: C_26  and  O_27 
ROOT
HETATM    1  C   UNL     1     -43.521  54.376 -54.086  1.00  0.00     0.069 C 
HETATM    2  C   UNL     1     -42.973  55.548 -53.304  1.00  0.00     0.026 C 
HETATM    3  N   UNL     1     -42.390  55.340 -52.044  1.00  0.00    -0.301 N 
HETATM    4  C   UNL     1     -41.781  56.373 -51.324  1.00  0.00     0.323 C 
HETATM    5  O   UNL     1     -41.230  56.246 -50.232  1.00  0.00    -0.247 OA
HETATM    6  N   UNL     1     -41.801  57.610 -51.895  1.00  0.00    -0.330 N 
HETATM    7  C   UNL     1     -42.686  58.008 -52.961  1.00  0.00     0.161 C 
HETATM    8  C   UNL     1     -43.058  56.812 -53.770  1.00  0.00     0.059 C 
HETATM    9  H   UNL     1     -41.401  58.326 -51.306  1.00  0.00     0.165 HD
ENDROOT
BRANCH   8  10
HETATM   10  C   UNL     1     -43.484  57.099 -55.165  1.00  0.00     0.256 C 
HETATM   11  N   UNL     1     -42.405  57.073 -56.029  1.00  0.00    -0.321 N 
HETATM   12  H   UNL     1     -41.488  57.134 -55.604  1.00  0.00     0.169 HD
HETATM   13  O   UNL     1     -44.635  57.434 -55.403  1.00  0.00    -0.267 OA
BRANCH  11  14
HETATM   14  C   UNL     1     -42.436  57.126 -57.439  1.00  0.00     0.068 A 
HETATM   15  C   UNL     1     -42.069  58.242 -58.208  1.00  0.00     0.095 A 
HETATM   16  C   UNL     1     -42.176  58.195 -59.604  1.00  0.00     0.039 A 
HETATM   17  C   UNL     1     -42.635  57.043 -60.241  1.00  0.00     0.003 A 
HETATM   18  C   UNL     1     -43.021  55.942 -59.485  1.00  0.00     0.002 A 
HETATM   19  C   UNL     1     -42.936  55.989 -58.091  1.00  0.00     0.032 A 
BRANCH  15  20
HETATM   20  O   UNL     1     -41.798  59.436 -57.590  1.00  0.00    -0.354 OA
HETATM   21  C   UNL     1     -42.387  60.546 -58.268  1.00  0.00     0.210 C 
ENDBRANCH  15  20
ENDBRANCH  11  14
ENDBRANCH   8  10
BRANCH   7  22
HETATM   22  C   UNL     1     -43.875  58.784 -52.389  1.00  0.00    -0.016 A 
HETATM   23  C   UNL     1     -44.168  60.114 -52.785  1.00  0.00     0.056 A 
HETATM   24  C   UNL     1     -45.276  60.775 -52.216  1.00  0.00     0.017 A 
HETATM   25  C   UNL     1     -46.080  60.148 -51.266  1.00  0.00     0.001 A 
HETATM   26  C   UNL     1     -45.789  58.851 -50.864  1.00  0.00     0.001 A 
HETATM   27  C   UNL     1     -44.701  58.178 -51.417  1.00  0.00     0.010 A 
BRANCH  23  28
HETATM   28  C   UNL     1     -43.312  60.860 -53.786  1.00  0.00     0.418 C 
HETATM   29  F   UNL     1     -43.652  62.179 -53.860  1.00  0.00    -0.166 F 
HETATM   30  F   UNL     1     -41.987  60.836 -53.483  1.00  0.00    -0.166 F 
HETATM   31  F   UNL     1     -43.411  60.386 -55.059  1.00  0.00    -0.166 F 
ENDBRANCH  23  28
ENDBRANCH   7  22
BRANCH   3  32
HETATM   32  C   UNL     1     -42.272  53.996 -51.454  1.00  0.00     0.160 C 
BRANCH  32  33
HETATM   33  C   UNL     1     -40.866  53.383 -51.538  1.00  0.00     0.187 C 
BRANCH  33  34
HETATM   34  O   UNL     1     -40.307  53.554 -52.840  1.00  0.00    -0.394 OA
HETATM   35  C   UNL     1     -40.439  52.381 -53.630  1.00  0.00     0.201 C 
ENDBRANCH  33  34
ENDBRANCH  32  33
ENDBRANCH   3  32
TORSDOF 8
ENDMDL
MODEL 10
REMARK VINA RESULT:      -7.0      1.683      2.111
REMARK  8 active torsions:
REMARK  status: ('A' for Active; 'I' for Inactive)
REMARK    1  A    between atoms: N_3  and  C_4 
REMARK    2  A    between atoms: C_4  and  C_5 
REMARK    3  A    between atoms: C_5  and  O_6 
REMARK    4  A    between atoms: C_11  and  C_12 
REMARK    5  A    between atoms: C_13  and  C_14 
REMARK    6  A    between atoms: C_22  and  C_23 
REMARK       I    between atoms: C_23  and  N_24 
REMARK    7  A    between atoms: N_24  and  C_25 
REMARK    8  A    between atoms: C_26  and  O_27 
ROOT
HETATM    1  C   UNL     1     -43.593  60.677 -53.940  1.00  0.00     0.069 C 
HETATM    2  C   UNL     1     -44.018  59.443 -53.176  1.00  0.00     0.026 C 
HETATM    3  N   UNL     1     -44.900  59.559 -52.091  1.00  0.00    -0.301 N 
HETATM    4  C   UNL     1     -45.401  58.442 -51.414  1.00  0.00     0.323 C 
HETATM    5  O   UNL     1     -46.197  58.479 -50.478  1.00  0.00    -0.247 OA
HETATM    6  N   UNL     1     -44.969  57.223 -51.843  1.00  0.00    -0.330 N 
HETATM    7  C   UNL     1     -43.801  57.006 -52.659  1.00  0.00     0.161 C 
HETATM    8  C   UNL     1     -43.542  58.218 -53.488  1.00  0.00     0.059 C 
HETATM    9  H   UNL     1     -45.316  56.458 -51.282  1.00  0.00     0.165 HD
ENDROOT
BRANCH   8  10
HETATM   10  C   UNL     1     -42.760  57.982 -54.730  1.00  0.00     0.256 C 
HETATM   11  N   UNL     1     -43.580  57.563 -55.761  1.00  0.00    -0.321 N 
HETATM   12  H   UNL     1     -44.497  57.225 -55.496  1.00  0.00     0.169 HD
HETATM   13  O   UNL     1     -41.539  58.046 -54.713  1.00  0.00    -0.267 OA
BRANCH  11  14
HETATM   14  C   UNL     1     -43.234  57.407 -57.120  1.00  0.00     0.068 A 
HETATM   15  C   UNL     1     -42.934  58.461 -57.997  1.00  0.00     0.095 A 
HETATM   16  C   UNL     1     -42.639  58.191 -59.341  1.00  0.00     0.039 A 
HETATM   17  C   UNL     1     -42.630  56.879 -59.814  1.00  0.00     0.003 A 
HETATM   18  C   UNL     1     -42.948  55.832 -58.956  1.00  0.00     0.002 A 
HETATM   19  C   UNL     1     -43.262  56.096 -57.620  1.00  0.00     0.032 A 
BRANCH  15  20
HETATM   20  O   UNL     1     -43.123  59.759 -57.595  1.00  0.00    -0.354 OA
HETATM   21  C   UNL     1     -41.894  60.477 -57.477  1.00  0.00     0.210 C 
ENDBRANCH  15  20
ENDBRANCH  11  14
ENDBRANCH   8  10
BRANCH   7  22
HETATM   22  C   UNL     1     -42.624  56.574 -51.780  1.00  0.00    -0.016 A 
HETATM   23  C   UNL     1     -42.164  55.233 -51.744  1.00  0.00     0.056 A 
HETATM   24  C   UNL     1     -41.078  54.899 -50.908  1.00  0.00     0.017 A 
HETATM   25  C   UNL     1     -40.458  55.861 -50.112  1.00  0.00     0.001 A 
HETATM   26  C   UNL     1     -40.914  57.172 -50.134  1.00  0.00     0.001 A 
HETATM   27  C   UNL     1     -41.984  57.524 -50.956  1.00  0.00     0.010 A 
BRANCH  23  28
HETATM   28  C   UNL     1     -42.818  54.138 -52.558  1.00  0.00     0.418 C 
HETATM   29  F   UNL     1     -43.946  53.663 -51.955  1.00  0.00    -0.166 F 
HETATM   30  F   UNL     1     -43.205  54.546 -53.796  1.00  0.00    -0.166 F 
HETATM   31  F   UNL     1     -42.024  53.048 -52.757  1.00  0.00    -0.166 F 
ENDBRANCH  23  28
ENDBRANCH   7  22
BRANCH   3  32
HETATM   32  C   UNL     1     -45.454  60.858 -51.673  1.00  0.00     0.160 C 
BRANCH  32  33
HETATM   33  C   UNL     1     -46.773  61.240 -52.362  1.00  0.00     0.187 C 
BRANCH  33  34
HETATM   34  O   UNL     1     -47.129  62.592 -52.078  1.00  0.00    -0.394 OA
HETATM   35  C   UNL     1     -48.498  62.848 -52.357  1.00  0.00     0.201 C 
ENDBRANCH  33  34
ENDBRANCH  32  33
ENDBRANCH   3  32
TORSDOF 8
ENDMDL
