MODEL 1
REMARK VINA RESULT:      -7.3      0.000      0.000
REMARK  9 active torsions:
REMARK  status: ('A' for Active; 'I' for Inactive)
REMARK    1  A    between atoms: O_2  and  C_3 
REMARK    2  A    between atoms: C_5  and  O_6 
REMARK    3  A    between atoms: C_9  and  C_10 
REMARK       I    between atoms: C_10  and  N_11 
REMARK    4  A    between atoms: N_11  and  C_12 
REMARK    5  A    between atoms: C_13  and  C_14 
REMARK       I    between atoms: C_14  and  N_15 
REMARK    6  A    between atoms: N_15  and  C_16 
REMARK    7  A    between atoms: C_16  and  C_17 
REMARK    8  A    between atoms: C_17  and  O_18 
REMARK    9  A    between atoms: O_18  and  C_19 
ROOT
HETATM    1  C   UNL     1     -40.902  54.376 -54.462  1.00  0.00     0.050 A 
HETATM    2  C   UNL     1     -41.192  54.625 -53.106  1.00  0.00     0.058 A 
HETATM    3  C   UNL     1     -40.852  53.674 -52.126  1.00  0.00     0.019 A 
HETATM    4  C   UNL     1     -40.183  52.502 -52.472  1.00  0.00     0.001 A 
HETATM    5  C   UNL     1     -39.832  52.279 -53.798  1.00  0.00     0.002 A 
HETATM    6  C   UNL     1     -40.183  53.209 -54.781  1.00  0.00     0.030 A 
ENDROOT
BRANCH   1   7
HETATM    7  N   UNL     1     -41.278  55.173 -55.577  1.00  0.00    -0.322 N 
HETATM    8  C   UNL     1     -42.566  55.303 -56.069  1.00  0.00     0.256 C 
HETATM    9  O   UNL     1     -43.562  54.752 -55.616  1.00  0.00    -0.267 OA
HETATM   10  H   UNL     1     -40.540  55.363 -56.242  1.00  0.00     0.169 HD
BRANCH   8  11
HETATM   11  C   UNL     1     -42.720  56.106 -57.319  1.00  0.00     0.037 A 
HETATM   12  C   UNL     1     -42.268  57.436 -57.286  1.00  0.00     0.054 A 
HETATM   13  C   UNL     1     -42.386  58.247 -58.411  1.00  0.00     0.071 A 
HETATM   14  C   UNL     1     -42.976  57.728 -59.563  1.00  0.00     0.073 A 
HETATM   15  C   UNL     1     -43.415  56.401 -59.618  1.00  0.00     0.071 A 
HETATM   16  C   UNL     1     -43.276  55.582 -58.496  1.00  0.00     0.054 A 
BRANCH  13  17
HETATM   17  O   UNL     1     -41.981  59.550 -58.501  1.00  0.00    -0.356 OA
HETATM   18  C   UNL     1     -42.390  60.264 -59.664  1.00  0.00     0.210 C 
ENDBRANCH  13  17
BRANCH  15  19
HETATM   19  O   UNL     1     -43.951  56.035 -60.821  1.00  0.00    -0.356 OA
HETATM   20  C   UNL     1     -45.017  55.096 -60.807  1.00  0.00     0.210 C 
ENDBRANCH  15  19
ENDBRANCH   8  11
ENDBRANCH   1   7
BRANCH   2  21
HETATM   21  C   UNL     1     -41.718  55.901 -52.561  1.00  0.00     0.253 C 
HETATM   22  N   UNL     1     -42.985  55.824 -52.020  1.00  0.00    -0.355 N 
HETATM   23  H   UNL     1     -43.421  54.917 -51.947  1.00  0.00     0.162 HD
HETATM   24  O   UNL     1     -41.085  56.941 -52.702  1.00  0.00    -0.268 OA
BRANCH  22  25
HETATM   25  C   UNL     1     -43.600  56.940 -51.325  1.00  0.00     0.149 C 
BRANCH  25  26
HETATM   26  C   UNL     1     -44.438  57.880 -52.198  1.00  0.00     0.195 C 
BRANCH  26  27
HETATM   27  O   UNL     1     -44.671  57.271 -53.477  1.00  0.00    -0.350 OA
BRANCH  27  28
HETATM   28  C   UNL     1     -44.749  58.181 -54.500  1.00  0.00     0.068 A 
HETATM   29  C   UNL     1     -45.566  57.836 -55.576  1.00  0.00     0.037 A 
HETATM   30  C   UNL     1     -45.706  58.707 -56.658  1.00  0.00     0.003 A 
HETATM   31  C   UNL     1     -45.042  59.934 -56.657  1.00  0.00     0.000 A 
HETATM   32  C   UNL     1     -44.246  60.292 -55.570  1.00  0.00     0.003 A 
HETATM   33  C   UNL     1     -44.103  59.419 -54.489  1.00  0.00     0.037 A 
ENDBRANCH  27  28
ENDBRANCH  26  27
ENDBRANCH  25  26
ENDBRANCH  22  25
ENDBRANCH   2  21
TORSDOF 9
ENDMDL
MODEL 2
REMARK VINA RESULT:      -7.3      0.216      2.273
REMARK  9 active torsions:
REMARK  status: ('A' for Active; 'I' for Inactive)
REMARK    1  A    between atoms: O_2  and  C_3 
REMARK    2  A    between atoms: C_5  and  O_6 
REMARK    3  A    between atoms: C_9  and  C_10 
REMARK       I    between atoms: C_10  and  N_11 
REMARK    4  A    between atoms: N_11  and  C_12 
REMARK    5  A    between atoms: C_13  and  C_14 
REMARK       I    between atoms: C_14  and  N_15 
REMARK    6  A    between atoms: N_15  and  C_16 
REMARK    7  A    between atoms: C_16  and  C_17 
REMARK    8  A    between atoms: C_17  and  O_18 
REMARK    9  A    between atoms: O_18  and  C_19 
ROOT
HETATM    1  C   UNL     1     -40.905  54.446 -54.516  1.00  0.00     0.050 A 
HETATM    2  C   UNL     1     -41.203  54.693 -53.161  1.00  0.00     0.058 A 
HETATM    3  C   UNL     1     -40.890  53.731 -52.184  1.00  0.00     0.019 A 
HETATM    4  C   UNL     1     -40.239  52.549 -52.530  1.00  0.00     0.001 A 
HETATM    5  C   UNL     1     -39.881  52.326 -53.854  1.00  0.00     0.002 A 
HETATM    6  C   UNL     1     -40.205  53.267 -54.835  1.00  0.00     0.030 A 
ENDROOT
BRANCH   1   7
HETATM    7  N   UNL     1     -41.257  55.256 -55.630  1.00  0.00    -0.322 N 
HETATM    8  C   UNL     1     -42.540  55.424 -56.123  1.00  0.00     0.256 C 
HETATM    9  O   UNL     1     -43.551  54.901 -55.673  1.00  0.00    -0.267 OA
HETATM   10  H   UNL     1     -40.512  55.426 -56.294  1.00  0.00     0.169 HD
BRANCH   8  11
HETATM   11  C   UNL     1     -42.668  56.233 -57.372  1.00  0.00     0.037 A 
HETATM   12  C   UNL     1     -43.248  55.606 -58.487  1.00  0.00     0.054 A 
HETATM   13  C   UNL     1     -43.393  56.295 -59.687  1.00  0.00     0.071 A 
HETATM   14  C   UNL     1     -42.938  57.611 -59.772  1.00  0.00     0.073 A 
HETATM   15  C   UNL     1     -42.375  58.257 -58.666  1.00  0.00     0.071 A 
HETATM   16  C   UNL     1     -42.250  57.570 -57.458  1.00  0.00     0.054 A 
BRANCH  13  17
HETATM   17  O   UNL     1     -43.942  55.794 -60.834  1.00  0.00    -0.356 OA
HETATM   18  C   UNL     1     -45.092  54.968 -60.681  1.00  0.00     0.210 C 
ENDBRANCH  13  17
BRANCH  15  19
HETATM   19  O   UNL     1     -41.997  59.549 -58.902  1.00  0.00    -0.356 OA
HETATM   20  C   UNL     1     -42.105  60.034 -60.233  1.00  0.00     0.210 C 
ENDBRANCH  15  19
ENDBRANCH   8  11
ENDBRANCH   1   7
BRANCH   2  21
HETATM   21  C   UNL     1     -41.711  55.976 -52.614  1.00  0.00     0.253 C 
HETATM   22  N   UNL     1     -42.987  55.921 -52.092  1.00  0.00    -0.355 N 
HETATM   23  H   UNL     1     -43.441  55.022 -52.031  1.00  0.00     0.162 HD
HETATM   24  O   UNL     1     -41.054  57.003 -52.739  1.00  0.00    -0.268 OA
BRANCH  22  25
HETATM   25  C   UNL     1     -43.589  57.044 -51.396  1.00  0.00     0.149 C 
BRANCH  25  26
HETATM   26  C   UNL     1     -44.533  57.910 -52.237  1.00  0.00     0.195 C 
BRANCH  26  27
HETATM   27  O   UNL     1     -44.756  57.285 -53.511  1.00  0.00    -0.350 OA
BRANCH  27  28
HETATM   28  C   UNL     1     -44.809  58.180 -54.547  1.00  0.00     0.068 A 
HETATM   29  C   UNL     1     -43.983  59.299 -54.443  1.00  0.00     0.037 A 
HETATM   30  C   UNL     1     -43.972  60.259 -55.457  1.00  0.00     0.003 A 
HETATM   31  C   UNL     1     -44.773  60.092 -56.586  1.00  0.00     0.000 A 
HETATM   32  C   UNL     1     -45.580  58.961 -56.704  1.00  0.00     0.003 A 
HETATM   33  C   UNL     1     -45.595  58.002 -55.689  1.00  0.00     0.037 A 
ENDBRANCH  27  28
ENDBRANCH  26  27
ENDBRANCH  25  26
ENDBRANCH  22  25
ENDBRANCH   2  21
TORSDOF 9
ENDMDL
MODEL 3
REMARK VINA RESULT:      -7.2      1.459      2.082
REMARK  9 active torsions:
REMARK  status: ('A' for Active; 'I' for Inactive)
REMARK    1  A    between atoms: O_2  and  C_3 
REMARK    2  A    between atoms: C_5  and  O_6 
REMARK    3  A    between atoms: C_9  and  C_10 
REMARK       I    between atoms: C_10  and  N_11 
REMARK    4  A    between atoms: N_11  and  C_12 
REMARK    5  A    between atoms: C_13  and  C_14 
REMARK       I    between atoms: C_14  and  N_15 
REMARK    6  A    between atoms: N_15  and  C_16 
REMARK    7  A    between atoms: C_16  and  C_17 
REMARK    8  A    between atoms: C_17  and  O_18 
REMARK    9  A    between atoms: O_18  and  C_19 
ROOT
HETATM    1  C   UNL     1     -40.914  54.220 -54.426  1.00  0.00     0.050 A 
HETATM    2  C   UNL     1     -41.134  54.433 -53.051  1.00  0.00     0.058 A 
HETATM    3  C   UNL     1     -40.747  53.456 -52.116  1.00  0.00     0.019 A 
HETATM    4  C   UNL     1     -40.099  52.293 -52.526  1.00  0.00     0.001 A 
HETATM    5  C   UNL     1     -39.817  52.105 -53.874  1.00  0.00     0.002 A 
HETATM    6  C   UNL     1     -40.215  53.061 -54.813  1.00  0.00     0.030 A 
ENDROOT
BRANCH   1   7
HETATM    7  N   UNL     1     -41.345  55.047 -55.500  1.00  0.00    -0.322 N 
HETATM    8  C   UNL     1     -42.561  54.937 -56.155  1.00  0.00     0.256 C 
HETATM    9  O   UNL     1     -43.434  54.117 -55.905  1.00  0.00    -0.267 OA
HETATM   10  H   UNL     1     -40.605  55.488 -56.030  1.00  0.00     0.169 HD
BRANCH   8  11
HETATM   11  C   UNL     1     -42.764  55.839 -57.328  1.00  0.00     0.037 A 
HETATM   12  C   UNL     1     -42.422  57.192 -57.164  1.00  0.00     0.054 A 
HETATM   13  C   UNL     1     -42.592  58.093 -58.211  1.00  0.00     0.071 A 
HETATM   14  C   UNL     1     -43.123  57.638 -59.418  1.00  0.00     0.073 A 
HETATM   15  C   UNL     1     -43.451  56.291 -59.603  1.00  0.00     0.071 A 
HETATM   16  C   UNL     1     -43.260  55.385 -58.559  1.00  0.00     0.054 A 
BRANCH  13  17
HETATM   17  O   UNL     1     -42.293  59.426 -58.172  1.00  0.00    -0.356 OA
HETATM   18  C   UNL     1     -42.523  60.164 -59.369  1.00  0.00     0.210 C 
ENDBRANCH  13  17
BRANCH  15  19
HETATM   19  O   UNL     1     -43.940  55.998 -60.846  1.00  0.00    -0.356 OA
HETATM   20  C   UNL     1     -45.011  55.068 -60.928  1.00  0.00     0.210 C 
ENDBRANCH  15  19
ENDBRANCH   8  11
ENDBRANCH   1   7
BRANCH   2  21
HETATM   21  C   UNL     1     -41.629  55.695 -52.447  1.00  0.00     0.253 C 
HETATM   22  N   UNL     1     -41.106  55.989 -51.204  1.00  0.00    -0.355 N 
HETATM   23  H   UNL     1     -40.375  55.396 -50.840  1.00  0.00     0.162 HD
HETATM   24  O   UNL     1     -42.515  56.337 -52.997  1.00  0.00    -0.268 OA
BRANCH  22  25
HETATM   25  C   UNL     1     -41.374  57.244 -50.527  1.00  0.00     0.149 C 
BRANCH  25  26
HETATM   26  C   UNL     1     -40.463  58.413 -50.920  1.00  0.00     0.195 C 
BRANCH  26  27
HETATM   27  O   UNL     1     -41.238  59.617 -51.018  1.00  0.00    -0.350 OA
BRANCH  27  28
HETATM   28  C   UNL     1     -41.958  59.701 -52.181  1.00  0.00     0.068 A 
HETATM   29  C   UNL     1     -41.242  59.541 -53.366  1.00  0.00     0.037 A 
HETATM   30  C   UNL     1     -41.899  59.607 -54.597  1.00  0.00     0.003 A 
HETATM   31  C   UNL     1     -43.277  59.815 -54.642  1.00  0.00     0.000 A 
HETATM   32  C   UNL     1     -43.999  59.948 -53.457  1.00  0.00     0.003 A 
HETATM   33  C   UNL     1     -43.342  59.885 -52.226  1.00  0.00     0.037 A 
ENDBRANCH  27  28
ENDBRANCH  26  27
ENDBRANCH  25  26
ENDBRANCH  22  25
ENDBRANCH   2  21
TORSDOF 9
ENDMDL
MODEL 4
REMARK VINA RESULT:      -7.2      2.695      6.637
REMARK  9 active torsions:
REMARK  status: ('A' for Active; 'I' for Inactive)
REMARK    1  A    between atoms: O_2  and  C_3 
REMARK    2  A    between atoms: C_5  and  O_6 
REMARK    3  A    between atoms: C_9  and  C_10 
REMARK       I    between atoms: C_10  and  N_11 
REMARK    4  A    between atoms: N_11  and  C_12 
REMARK    5  A    between atoms: C_13  and  C_14 
REMARK       I    between atoms: C_14  and  N_15 
REMARK    6  A    between atoms: N_15  and  C_16 
REMARK    7  A    between atoms: C_16  and  C_17 
REMARK    8  A    between atoms: C_17  and  O_18 
REMARK    9  A    between atoms: O_18  and  C_19 
ROOT
HETATM    1  C   UNL     1     -43.042  55.793 -55.577  1.00  0.00     0.050 A 
HETATM    2  C   UNL     1     -43.729  56.994 -55.317  1.00  0.00     0.058 A 
HETATM    3  C   UNL     1     -44.149  57.811 -56.384  1.00  0.00     0.019 A 
HETATM    4  C   UNL     1     -43.936  57.424 -57.705  1.00  0.00     0.001 A 
HETATM    5  C   UNL     1     -43.318  56.208 -57.971  1.00  0.00     0.002 A 
HETATM    6  C   UNL     1     -42.881  55.399 -56.919  1.00  0.00     0.030 A 
ENDROOT
BRANCH   1   7
HETATM    7  N   UNL     1     -42.455  54.919 -54.621  1.00  0.00    -0.322 N 
HETATM    8  C   UNL     1     -41.158  55.013 -54.142  1.00  0.00     0.256 C 
HETATM    9  O   UNL     1     -40.335  55.857 -54.472  1.00  0.00    -0.267 OA
HETATM   10  H   UNL     1     -42.874  54.001 -54.559  1.00  0.00     0.169 HD
BRANCH   8  11
HETATM   11  C   UNL     1     -40.712  53.924 -53.222  1.00  0.00     0.037 A 
HETATM   12  C   UNL     1     -40.770  54.185 -51.843  1.00  0.00     0.054 A 
HETATM   13  C   UNL     1     -40.363  53.221 -50.926  1.00  0.00     0.071 A 
HETATM   14  C   UNL     1     -39.880  51.999 -51.395  1.00  0.00     0.073 A 
HETATM   15  C   UNL     1     -39.834  51.716 -52.764  1.00  0.00     0.071 A 
HETATM   16  C   UNL     1     -40.263  52.677 -53.682  1.00  0.00     0.054 A 
BRANCH  13  17
HETATM   17  O   UNL     1     -40.376  53.357 -49.566  1.00  0.00    -0.356 OA
HETATM   18  C   UNL     1     -41.052  54.499 -49.047  1.00  0.00     0.210 C 
ENDBRANCH  13  17
BRANCH  15  19
HETATM   19  O   UNL     1     -39.356  50.471 -53.065  1.00  0.00    -0.356 OA
HETATM   20  C   UNL     1     -39.767  49.889 -54.295  1.00  0.00     0.210 C 
ENDBRANCH  15  19
ENDBRANCH   8  11
ENDBRANCH   1   7
BRANCH   2  21
HETATM   21  C   UNL     1     -44.201  57.442 -53.983  1.00  0.00     0.253 C 
HETATM   22  N   UNL     1     -44.719  58.720 -53.949  1.00  0.00    -0.355 N 
HETATM   23  H   UNL     1     -44.828  59.217 -54.820  1.00  0.00     0.162 HD
HETATM   24  O   UNL     1     -44.023  56.737 -52.997  1.00  0.00    -0.268 OA
BRANCH  22  25
HETATM   25  C   UNL     1     -45.348  59.270 -52.762  1.00  0.00     0.149 C 
BRANCH  25  26
HETATM   26  C   UNL     1     -44.411  60.020 -51.808  1.00  0.00     0.195 C 
BRANCH  26  27
HETATM   27  O   UNL     1     -43.249  60.467 -52.523  1.00  0.00    -0.350 OA
BRANCH  27  28
HETATM   28  C   UNL     1     -42.077  59.986 -51.999  1.00  0.00     0.068 A 
HETATM   29  C   UNL     1     -41.222  59.335 -52.887  1.00  0.00     0.037 A 
HETATM   30  C   UNL     1     -40.005  58.819 -52.437  1.00  0.00     0.003 A 
HETATM   31  C   UNL     1     -39.634  58.970 -51.102  1.00  0.00     0.000 A 
HETATM   32  C   UNL     1     -40.476  59.644 -50.218  1.00  0.00     0.003 A 
HETATM   33  C   UNL     1     -41.695  60.158 -50.667  1.00  0.00     0.037 A 
ENDBRANCH  27  28
ENDBRANCH  26  27
ENDBRANCH  25  26
ENDBRANCH  22  25
ENDBRANCH   2  21
TORSDOF 9
ENDMDL
MODEL 5
REMARK VINA RESULT:      -7.2      1.522      3.014
REMARK  9 active torsions:
REMARK  status: ('A' for Active; 'I' for Inactive)
REMARK    1  A    between atoms: O_2  and  C_3 
REMARK    2  A    between atoms: C_5  and  O_6 
REMARK    3  A    between atoms: C_9  and  C_10 
REMARK       I    between atoms: C_10  and  N_11 
REMARK    4  A    between atoms: N_11  and  C_12 
REMARK    5  A    between atoms: C_13  and  C_14 
REMARK       I    between atoms: C_14  and  N_15 
REMARK    6  A    between atoms: N_15  and  C_16 
REMARK    7  A    between atoms: C_16  and  C_17 
REMARK    8  A    between atoms: C_17  and  O_18 
REMARK    9  A    between atoms: O_18  and  C_19 
ROOT
HETATM    1  C   UNL     1     -40.968  54.262 -54.445  1.00  0.00     0.050 A 
HETATM    2  C   UNL     1     -41.149  54.434 -53.059  1.00  0.00     0.058 A 
HETATM    3  C   UNL     1     -40.716  53.440 -52.162  1.00  0.00     0.019 A 
HETATM    4  C   UNL     1     -40.062  52.300 -52.624  1.00  0.00     0.001 A 
HETATM    5  C   UNL     1     -39.819  52.153 -53.984  1.00  0.00     0.002 A 
HETATM    6  C   UNL     1     -40.262  53.126 -54.884  1.00  0.00     0.030 A 
ENDROOT
BRANCH   1   7
HETATM    7  N   UNL     1     -41.447  55.109 -55.482  1.00  0.00    -0.322 N 
HETATM    8  C   UNL     1     -42.656  54.963 -56.140  1.00  0.00     0.256 C 
HETATM    9  O   UNL     1     -43.484  54.086 -55.925  1.00  0.00    -0.267 OA
HETATM   10  H   UNL     1     -40.733  55.612 -55.993  1.00  0.00     0.169 HD
BRANCH   8  11
HETATM   11  C   UNL     1     -42.911  55.902 -57.273  1.00  0.00     0.037 A 
HETATM   12  C   UNL     1     -43.275  55.335 -58.507  1.00  0.00     0.054 A 
HETATM   13  C   UNL     1     -43.520  56.147 -59.609  1.00  0.00     0.071 A 
HETATM   14  C   UNL     1     -43.381  57.529 -59.478  1.00  0.00     0.073 A 
HETATM   15  C   UNL     1     -43.038  58.110 -58.253  1.00  0.00     0.071 A 
HETATM   16  C   UNL     1     -42.814  57.295 -57.143  1.00  0.00     0.054 A 
BRANCH  13  17
HETATM   17  O   UNL     1     -43.882  55.715 -60.854  1.00  0.00    -0.356 OA
HETATM   18  C   UNL     1     -45.249  55.356 -61.031  1.00  0.00     0.210 C 
ENDBRANCH  13  17
BRANCH  15  19
HETATM   19  O   UNL     1     -42.962  59.475 -58.279  1.00  0.00    -0.356 OA
HETATM   20  C   UNL     1     -41.672  60.064 -58.188  1.00  0.00     0.210 C 
ENDBRANCH  15  19
ENDBRANCH   8  11
ENDBRANCH   1   7
BRANCH   2  21
HETATM   21  C   UNL     1     -41.646  55.671 -52.405  1.00  0.00     0.253 C 
HETATM   22  N   UNL     1     -41.108  55.927 -51.161  1.00  0.00    -0.355 N 
HETATM   23  H   UNL     1     -40.367  55.330 -50.827  1.00  0.00     0.162 HD
HETATM   24  O   UNL     1     -42.547  56.323 -52.921  1.00  0.00    -0.268 OA
BRANCH  22  25
HETATM   25  C   UNL     1     -41.378  57.156 -50.438  1.00  0.00     0.149 C 
BRANCH  25  26
HETATM   26  C   UNL     1     -40.494  58.351 -50.816  1.00  0.00     0.195 C 
BRANCH  26  27
HETATM   27  O   UNL     1     -41.292  59.543 -50.872  1.00  0.00    -0.350 OA
BRANCH  27  28
HETATM   28  C   UNL     1     -41.978  59.676 -52.052  1.00  0.00     0.068 A 
HETATM   29  C   UNL     1     -41.236  59.521 -53.222  1.00  0.00     0.037 A 
HETATM   30  C   UNL     1     -41.857  59.637 -54.467  1.00  0.00     0.003 A 
HETATM   31  C   UNL     1     -43.226  59.889 -54.543  1.00  0.00     0.000 A 
HETATM   32  C   UNL     1     -43.975  60.017 -53.374  1.00  0.00     0.003 A 
HETATM   33  C   UNL     1     -43.354  59.906 -52.128  1.00  0.00     0.037 A 
ENDBRANCH  27  28
ENDBRANCH  26  27
ENDBRANCH  25  26
ENDBRANCH  22  25
ENDBRANCH   2  21
TORSDOF 9
ENDMDL
MODEL 6
REMARK VINA RESULT:      -7.1      2.643      6.938
REMARK  9 active torsions:
REMARK  status: ('A' for Active; 'I' for Inactive)
REMARK    1  A    between atoms: O_2  and  C_3 
REMARK    2  A    between atoms: C_5  and  O_6 
REMARK    3  A    between atoms: C_9  and  C_10 
REMARK       I    between atoms: C_10  and  N_11 
REMARK    4  A    between atoms: N_11  and  C_12 
REMARK    5  A    between atoms: C_13  and  C_14 
REMARK       I    between atoms: C_14  and  N_15 
REMARK    6  A    between atoms: N_15  and  C_16 
REMARK    7  A    between atoms: C_16  and  C_17 
REMARK    8  A    between atoms: C_17  and  O_18 
REMARK    9  A    between atoms: O_18  and  C_19 
ROOT
HETATM    1  C   UNL     1     -43.066  55.784 -55.626  1.00  0.00     0.050 A 
HETATM    2  C   UNL     1     -43.797  56.976 -55.456  1.00  0.00     0.058 A 
HETATM    3  C   UNL     1     -44.203  57.720 -56.579  1.00  0.00     0.019 A 
HETATM    4  C   UNL     1     -43.935  57.268 -57.869  1.00  0.00     0.001 A 
HETATM    5  C   UNL     1     -43.273  56.059 -58.047  1.00  0.00     0.002 A 
HETATM    6  C   UNL     1     -42.849  55.322 -56.938  1.00  0.00     0.030 A 
ENDROOT
BRANCH   1   7
HETATM    7  N   UNL     1     -42.487  54.982 -54.604  1.00  0.00    -0.322 N 
HETATM    8  C   UNL     1     -41.178  55.072 -54.163  1.00  0.00     0.256 C 
HETATM    9  O   UNL     1     -40.333  55.850 -54.588  1.00  0.00    -0.267 OA
HETATM   10  H   UNL     1     -42.937  54.090 -54.447  1.00  0.00     0.169 HD
BRANCH   8  11
HETATM   11  C   UNL     1     -40.748  54.058 -53.154  1.00  0.00     0.037 A 
HETATM   12  C   UNL     1     -40.332  52.807 -53.639  1.00  0.00     0.054 A 
HETATM   13  C   UNL     1     -39.926  51.810 -52.758  1.00  0.00     0.071 A 
HETATM   14  C   UNL     1     -39.955  52.064 -51.386  1.00  0.00     0.073 A 
HETATM   15  C   UNL     1     -40.349  53.310 -50.888  1.00  0.00     0.071 A 
HETATM   16  C   UNL     1     -40.735  54.316 -51.775  1.00  0.00     0.054 A 
BRANCH  13  17
HETATM   17  O   UNL     1     -39.499  50.560 -53.109  1.00  0.00    -0.356 OA
HETATM   18  C   UNL     1     -40.067  50.001 -54.289  1.00  0.00     0.210 C 
ENDBRANCH  13  17
BRANCH  15  19
HETATM   19  O   UNL     1     -40.304  53.410 -49.525  1.00  0.00    -0.356 OA
HETATM   20  C   UNL     1     -40.988  54.501 -48.924  1.00  0.00     0.210 C 
ENDBRANCH  15  19
ENDBRANCH   8  11
ENDBRANCH   1   7
BRANCH   2  21
HETATM   21  C   UNL     1     -44.326  57.482 -54.165  1.00  0.00     0.253 C 
HETATM   22  N   UNL     1     -44.545  58.843 -54.119  1.00  0.00    -0.355 N 
HETATM   23  H   UNL     1     -44.426  59.376 -54.968  1.00  0.00     0.162 HD
HETATM   24  O   UNL     1     -44.440  56.727 -53.206  1.00  0.00    -0.268 OA
BRANCH  22  25
HETATM   25  C   UNL     1     -45.184  59.488 -52.987  1.00  0.00     0.149 C 
BRANCH  25  26
HETATM   26  C   UNL     1     -44.233  60.148 -51.982  1.00  0.00     0.195 C 
BRANCH  26  27
HETATM   27  O   UNL     1     -43.625  59.140 -51.159  1.00  0.00    -0.350 OA
BRANCH  27  28
HETATM   28  C   UNL     1     -42.257  59.137 -51.235  1.00  0.00     0.068 A 
HETATM   29  C   UNL     1     -41.578  59.809 -50.218  1.00  0.00     0.037 A 
HETATM   30  C   UNL     1     -40.183  59.852 -50.216  1.00  0.00     0.003 A 
HETATM   31  C   UNL     1     -39.463  59.206 -51.221  1.00  0.00     0.000 A 
HETATM   32  C   UNL     1     -40.139  58.512 -52.223  1.00  0.00     0.003 A 
HETATM   33  C   UNL     1     -41.535  58.472 -52.228  1.00  0.00     0.037 A 
ENDBRANCH  27  28
ENDBRANCH  26  27
ENDBRANCH  25  26
ENDBRANCH  22  25
ENDBRANCH   2  21
TORSDOF 9
ENDMDL
MODEL 7
REMARK VINA RESULT:      -7.0      2.158      5.900
REMARK  9 active torsions:
REMARK  status: ('A' for Active; 'I' for Inactive)
REMARK    1  A    between atoms: O_2  and  C_3 
REMARK    2  A    between atoms: C_5  and  O_6 
REMARK    3  A    between atoms: C_9  and  C_10 
REMARK       I    between atoms: C_10  and  N_11 
REMARK    4  A    between atoms: N_11  and  C_12 
REMARK    5  A    between atoms: C_13  and  C_14 
REMARK       I    between atoms: C_14  and  N_15 
REMARK    6  A    between atoms: N_15  and  C_16 
REMARK    7  A    between atoms: C_16  and  C_17 
REMARK    8  A    between atoms: C_17  and  O_18 
REMARK    9  A    between atoms: O_18  and  C_19 
ROOT
HETATM    1  C   UNL     1     -40.449  53.454 -52.014  1.00  0.00     0.050 A 
HETATM    2  C   UNL     1     -40.369  52.901 -53.306  1.00  0.00     0.058 A 
HETATM    3  C   UNL     1     -39.912  51.581 -53.481  1.00  0.00     0.019 A 
HETATM    4  C   UNL     1     -39.582  50.790 -52.383  1.00  0.00     0.001 A 
HETATM    5  C   UNL     1     -39.722  51.305 -51.100  1.00  0.00     0.002 A 
HETATM    6  C   UNL     1     -40.155  52.621 -50.917  1.00  0.00     0.030 A 
ENDROOT
BRANCH   1   7
HETATM    7  N   UNL     1     -40.776  54.796 -51.677  1.00  0.00    -0.322 N 
HETATM    8  C   UNL     1     -42.055  55.327 -51.658  1.00  0.00     0.256 C 
HETATM    9  O   UNL     1     -43.083  54.720 -51.929  1.00  0.00    -0.267 OA
HETATM   10  H   UNL     1     -40.030  55.468 -51.802  1.00  0.00     0.169 HD
BRANCH   8  11
HETATM   11  C   UNL     1     -42.160  56.791 -51.381  1.00  0.00     0.037 A 
HETATM   12  C   UNL     1     -43.405  57.400 -51.612  1.00  0.00     0.054 A 
HETATM   13  C   UNL     1     -43.575  58.762 -51.384  1.00  0.00     0.071 A 
HETATM   14  C   UNL     1     -42.490  59.517 -50.941  1.00  0.00     0.073 A 
HETATM   15  C   UNL     1     -41.249  58.922 -50.688  1.00  0.00     0.071 A 
HETATM   16  C   UNL     1     -41.086  57.552 -50.897  1.00  0.00     0.054 A 
BRANCH  13  17
HETATM   17  O   UNL     1     -44.734  59.463 -51.569  1.00  0.00    -0.356 OA
HETATM   18  C   UNL     1     -44.986  59.939 -52.888  1.00  0.00     0.210 C 
ENDBRANCH  13  17
BRANCH  15  19
HETATM   19  O   UNL     1     -40.291  59.789 -50.238  1.00  0.00    -0.356 OA
HETATM   20  C   UNL     1     -38.945  59.533 -50.613  1.00  0.00     0.210 C 
ENDBRANCH  15  19
ENDBRANCH   8  11
ENDBRANCH   1   7
BRANCH   2  21
HETATM   21  C   UNL     1     -40.868  53.543 -54.548  1.00  0.00     0.253 C 
HETATM   22  N   UNL     1     -42.241  53.650 -54.636  1.00  0.00    -0.355 N 
HETATM   23  H   UNL     1     -42.795  53.379 -53.837  1.00  0.00     0.162 HD
HETATM   24  O   UNL     1     -40.088  53.840 -55.445  1.00  0.00    -0.268 OA
BRANCH  22  25
HETATM   25  C   UNL     1     -42.895  54.368 -55.714  1.00  0.00     0.149 C 
BRANCH  25  26
HETATM   26  C   UNL     1     -42.732  55.892 -55.684  1.00  0.00     0.195 C 
BRANCH  26  27
HETATM   27  O   UNL     1     -43.648  56.494 -56.611  1.00  0.00    -0.350 OA
BRANCH  27  28
HETATM   28  C   UNL     1     -43.034  56.976 -57.738  1.00  0.00     0.068 A 
HETATM   29  C   UNL     1     -43.034  56.136 -58.851  1.00  0.00     0.037 A 
HETATM   30  C   UNL     1     -42.434  56.550 -60.042  1.00  0.00     0.003 A 
HETATM   31  C   UNL     1     -41.850  57.813 -60.127  1.00  0.00     0.000 A 
HETATM   32  C   UNL     1     -41.872  58.665 -59.023  1.00  0.00     0.003 A 
HETATM   33  C   UNL     1     -42.468  58.250 -57.830  1.00  0.00     0.037 A 
ENDBRANCH  27  28
ENDBRANCH  26  27
ENDBRANCH  25  26
ENDBRANCH  22  25
ENDBRANCH   2  21
TORSDOF 9
ENDMDL
MODEL 8
REMARK VINA RESULT:      -7.0      1.759      3.522
REMARK  9 active torsions:
REMARK  status: ('A' for Active; 'I' for Inactive)
REMARK    1  A    between atoms: O_2  and  C_3 
REMARK    2  A    between atoms: C_5  and  O_6 
REMARK    3  A    between atoms: C_9  and  C_10 
REMARK       I    between atoms: C_10  and  N_11 
REMARK    4  A    between atoms: N_11  and  C_12 
REMARK    5  A    between atoms: C_13  and  C_14 
REMARK       I    between atoms: C_14  and  N_15 
REMARK    6  A    between atoms: N_15  and  C_16 
REMARK    7  A    between atoms: C_16  and  C_17 
REMARK    8  A    between atoms: C_17  and  O_18 
REMARK    9  A    between atoms: O_18  and  C_19 
ROOT
HETATM    1  C   UNL     1     -40.917  54.217 -54.384  1.00  0.00     0.050 A 
HETATM    2  C   UNL     1     -41.250  54.329 -53.020  1.00  0.00     0.058 A 
HETATM    3  C   UNL     1     -40.885  53.312 -52.119  1.00  0.00     0.019 A 
HETATM    4  C   UNL     1     -40.150  52.209 -52.549  1.00  0.00     0.001 A 
HETATM    5  C   UNL     1     -39.759  52.123 -53.880  1.00  0.00     0.002 A 
HETATM    6  C   UNL     1     -40.134  53.119 -54.786  1.00  0.00     0.030 A 
ENDROOT
BRANCH   1   7
HETATM    7  N   UNL     1     -41.308  55.092 -55.434  1.00  0.00    -0.322 N 
HETATM    8  C   UNL     1     -42.536  55.073 -56.075  1.00  0.00     0.256 C 
HETATM    9  O   UNL     1     -43.456  54.304 -55.831  1.00  0.00    -0.267 OA
HETATM   10  H   UNL     1     -40.548  55.498 -55.965  1.00  0.00     0.169 HD
BRANCH   8  11
HETATM   11  C   UNL     1     -42.696  56.011 -57.227  1.00  0.00     0.037 A 
HETATM   12  C   UNL     1     -43.156  55.468 -58.438  1.00  0.00     0.054 A 
HETATM   13  C   UNL     1     -43.321  56.279 -59.556  1.00  0.00     0.071 A 
HETATM   14  C   UNL     1     -43.006  57.635 -59.463  1.00  0.00     0.073 A 
HETATM   15  C   UNL     1     -42.564  58.195 -58.260  1.00  0.00     0.071 A 
HETATM   16  C   UNL     1     -42.420  57.384 -57.134  1.00  0.00     0.054 A 
BRANCH  13  17
HETATM   17  O   UNL     1     -43.763  55.868 -60.782  1.00  0.00    -0.356 OA
HETATM   18  C   UNL     1     -44.962  55.098 -60.801  1.00  0.00     0.210 C 
ENDBRANCH  13  17
BRANCH  15  19
HETATM   19  O   UNL     1     -42.317  59.538 -58.322  1.00  0.00    -0.356 OA
HETATM   20  C   UNL     1     -42.070  60.103 -59.603  1.00  0.00     0.210 C 
ENDBRANCH  15  19
ENDBRANCH   8  11
ENDBRANCH   1   7
BRANCH   2  21
HETATM   21  C   UNL     1     -41.852  55.525 -52.378  1.00  0.00     0.253 C 
HETATM   22  N   UNL     1     -43.005  55.987 -52.977  1.00  0.00    -0.355 N 
HETATM   23  H   UNL     1     -43.405  55.446 -53.729  1.00  0.00     0.162 HD
HETATM   24  O   UNL     1     -41.272  56.089 -51.457  1.00  0.00    -0.268 OA
BRANCH  22  25
HETATM   25  C   UNL     1     -43.798  57.061 -52.406  1.00  0.00     0.149 C 
BRANCH  25  26
HETATM   26  C   UNL     1     -43.793  58.375 -53.195  1.00  0.00     0.195 C 
BRANCH  26  27
HETATM   27  O   UNL     1     -43.380  59.451 -52.339  1.00  0.00    -0.350 OA
BRANCH  27  28
HETATM   28  C   UNL     1     -42.052  59.392 -52.003  1.00  0.00     0.068 A 
HETATM   29  C   UNL     1     -41.745  59.561 -50.654  1.00  0.00     0.037 A 
HETATM   30  C   UNL     1     -40.418  59.511 -50.225  1.00  0.00     0.003 A 
HETATM   31  C   UNL     1     -39.396  59.272 -51.143  1.00  0.00     0.000 A 
HETATM   32  C   UNL     1     -39.703  59.076 -52.489  1.00  0.00     0.003 A 
HETATM   33  C   UNL     1     -41.030  59.130 -52.920  1.00  0.00     0.037 A 
ENDBRANCH  27  28
ENDBRANCH  26  27
ENDBRANCH  25  26
ENDBRANCH  22  25
ENDBRANCH   2  21
TORSDOF 9
ENDMDL
MODEL 9
REMARK VINA RESULT:      -7.0      2.073      7.114
REMARK  9 active torsions:
REMARK  status: ('A' for Active; 'I' for Inactive)
REMARK    1  A    between atoms: O_2  and  C_3 
REMARK    2  A    between atoms: C_5  and  O_6 
REMARK    3  A    between atoms: C_9  and  C_10 
REMARK       I    between atoms: C_10  and  N_11 
REMARK    4  A    between atoms: N_11  and  C_12 
REMARK    5  A    between atoms: C_13  and  C_14 
REMARK       I    between atoms: C_14  and  N_15 
REMARK    6  A    between atoms: N_15  and  C_16 
REMARK    7  A    between atoms: C_16  and  C_17 
REMARK    8  A    between atoms: C_17  and  O_18 
REMARK    9  A    between atoms: O_18  and  C_19 
ROOT
HETATM    1  C   UNL     1     -43.565  56.746 -54.260  1.00  0.00     0.050 A 
HETATM    2  C   UNL     1     -43.884  56.981 -55.612  1.00  0.00     0.058 A 
HETATM    3  C   UNL     1     -44.699  58.071 -55.966  1.00  0.00     0.019 A 
HETATM    4  C   UNL     1     -45.161  58.960 -54.997  1.00  0.00     0.001 A 
HETATM    5  C   UNL     1     -44.796  58.775 -53.669  1.00  0.00     0.002 A 
HETATM    6  C   UNL     1     -44.003  57.684 -53.305  1.00  0.00     0.030 A 
ENDROOT
BRANCH   1   7
HETATM    7  N   UNL     1     -42.856  55.635 -53.728  1.00  0.00    -0.322 N 
HETATM    8  C   UNL     1     -41.507  55.621 -53.418  1.00  0.00     0.256 C 
HETATM    9  O   UNL     1     -40.733  56.560 -53.557  1.00  0.00    -0.267 OA
HETATM   10  H   UNL     1     -43.266  54.729 -53.918  1.00  0.00     0.169 HD
BRANCH   8  11
HETATM   11  C   UNL     1     -40.943  54.311 -52.973  1.00  0.00     0.037 A 
HETATM   12  C   UNL     1     -40.899  54.069 -51.589  1.00  0.00     0.054 A 
HETATM   13  C   UNL     1     -40.380  52.874 -51.101  1.00  0.00     0.071 A 
HETATM   14  C   UNL     1     -39.887  51.930 -52.001  1.00  0.00     0.073 A 
HETATM   15  C   UNL     1     -39.939  52.148 -53.382  1.00  0.00     0.071 A 
HETATM   16  C   UNL     1     -40.481  53.338 -53.871  1.00  0.00     0.054 A 
BRANCH  13  17
HETATM   17  O   UNL     1     -40.287  52.524 -49.783  1.00  0.00    -0.356 OA
HETATM   18  C   UNL     1     -40.556  53.550 -48.832  1.00  0.00     0.210 C 
ENDBRANCH  13  17
BRANCH  15  19
HETATM   19  O   UNL     1     -39.437  51.122 -54.133  1.00  0.00    -0.356 OA
HETATM   20  C   UNL     1     -40.220  49.941 -54.241  1.00  0.00     0.210 C 
ENDBRANCH  15  19
ENDBRANCH   8  11
ENDBRANCH   1   7
BRANCH   2  21
HETATM   21  C   UNL     1     -43.312  56.246 -56.768  1.00  0.00     0.253 C 
HETATM   22  N   UNL     1     -44.134  56.170 -57.873  1.00  0.00    -0.355 N 
HETATM   23  H   UNL     1     -45.004  56.681 -57.859  1.00  0.00     0.162 HD
HETATM   24  O   UNL     1     -42.233  55.675 -56.664  1.00  0.00    -0.268 OA
BRANCH  22  25
HETATM   25  C   UNL     1     -43.688  55.607 -59.134  1.00  0.00     0.149 C 
BRANCH  25  26
HETATM   26  C   UNL     1     -43.507  56.613 -60.277  1.00  0.00     0.195 C 
BRANCH  26  27
HETATM   27  O   UNL     1     -42.143  57.060 -60.315  1.00  0.00    -0.350 OA
BRANCH  27  28
HETATM   28  C   UNL     1     -42.012  58.406 -60.088  1.00  0.00     0.068 A 
HETATM   29  C   UNL     1     -41.870  58.799 -58.758  1.00  0.00     0.037 A 
HETATM   30  C   UNL     1     -41.726  60.151 -58.438  1.00  0.00     0.003 A 
HETATM   31  C   UNL     1     -41.706  61.109 -59.450  1.00  0.00     0.000 A 
HETATM   32  C   UNL     1     -41.820  60.716 -60.782  1.00  0.00     0.003 A 
HETATM   33  C   UNL     1     -41.968  59.364 -61.103  1.00  0.00     0.037 A 
ENDBRANCH  27  28
ENDBRANCH  26  27
ENDBRANCH  25  26
ENDBRANCH  22  25
ENDBRANCH   2  21
TORSDOF 9
ENDMDL
MODEL 10
REMARK VINA RESULT:      -6.9      2.040      6.672
REMARK  9 active torsions:
REMARK  status: ('A' for Active; 'I' for Inactive)
REMARK    1  A    between atoms: O_2  and  C_3 
REMARK    2  A    between atoms: C_5  and  O_6 
REMARK    3  A    between atoms: C_9  and  C_10 
REMARK       I    between atoms: C_10  and  N_11 
REMARK    4  A    between atoms: N_11  and  C_12 
REMARK    5  A    between atoms: C_13  and  C_14 
REMARK       I    between atoms: C_14  and  N_15 
REMARK    6  A    between atoms: N_15  and  C_16 
REMARK    7  A    between atoms: C_16  and  C_17 
REMARK    8  A    between atoms: C_17  and  O_18 
REMARK    9  A    between atoms: O_18  and  C_19 
ROOT
HETATM    1  C   UNL     1     -43.466  57.769 -52.763  1.00  0.00     0.050 A 
HETATM    2  C   UNL     1     -43.514  58.769 -53.754  1.00  0.00     0.058 A 
HETATM    3  C   UNL     1     -44.507  59.765 -53.702  1.00  0.00     0.019 A 
HETATM    4  C   UNL     1     -45.420  59.808 -52.651  1.00  0.00     0.001 A 
HETATM    5  C   UNL     1     -45.338  58.864 -51.634  1.00  0.00     0.002 A 
HETATM    6  C   UNL     1     -44.369  57.859 -51.686  1.00  0.00     0.030 A 
ENDROOT
BRANCH   1   7
HETATM    7  N   UNL     1     -42.608  56.636 -52.733  1.00  0.00    -0.322 N 
HETATM    8  C   UNL     1     -42.778  55.484 -53.482  1.00  0.00     0.256 C 
HETATM    9  O   UNL     1     -43.687  55.276 -54.275  1.00  0.00    -0.267 OA
HETATM   10  H   UNL     1     -42.067  56.525 -51.885  1.00  0.00     0.169 HD
BRANCH   8  11
HETATM   11  C   UNL     1     -41.817  54.372 -53.214  1.00  0.00     0.037 A 
HETATM   12  C   UNL     1     -41.187  54.358 -51.958  1.00  0.00     0.054 A 
HETATM   13  C   UNL     1     -40.274  53.357 -51.640  1.00  0.00     0.071 A 
HETATM   14  C   UNL     1     -39.980  52.379 -52.591  1.00  0.00     0.073 A 
HETATM   15  C   UNL     1     -40.613  52.368 -53.838  1.00  0.00     0.071 A 
HETATM   16  C   UNL     1     -41.544  53.361 -54.148  1.00  0.00     0.054 A 
BRANCH  13  17
HETATM   17  O   UNL     1     -39.603  53.237 -50.455  1.00  0.00    -0.356 OA
HETATM   18  C   UNL     1     -39.719  54.326 -49.545  1.00  0.00     0.210 C 
ENDBRANCH  13  17
BRANCH  15  19
HETATM   19  O   UNL     1     -40.235  51.336 -54.651  1.00  0.00    -0.356 OA
HETATM   20  C   UNL     1     -40.070  50.057 -54.056  1.00  0.00     0.210 C 
ENDBRANCH  15  19
ENDBRANCH   8  11
ENDBRANCH   1   7
BRANCH   2  21
HETATM   21  C   UNL     1     -42.499  58.973 -54.817  1.00  0.00     0.253 C 
HETATM   22  N   UNL     1     -42.973  58.840 -56.106  1.00  0.00    -0.355 N 
HETATM   23  H   UNL     1     -43.965  58.710 -56.241  1.00  0.00     0.162 HD
HETATM   24  O   UNL     1     -41.321  59.137 -54.523  1.00  0.00    -0.268 OA
BRANCH  22  25
HETATM   25  C   UNL     1     -42.155  59.136 -57.268  1.00  0.00     0.149 C 
BRANCH  25  26
HETATM   26  C   UNL     1     -42.160  58.069 -58.367  1.00  0.00     0.195 C 
BRANCH  26  27
HETATM   27  O   UNL     1     -42.869  56.907 -57.909  1.00  0.00    -0.350 OA
BRANCH  27  28
HETATM   28  C   UNL     1     -43.885  56.531 -58.749  1.00  0.00     0.068 A 
HETATM   29  C   UNL     1     -43.694  55.348 -59.463  1.00  0.00     0.037 A 
HETATM   30  C   UNL     1     -44.681  54.890 -60.337  1.00  0.00     0.003 A 
HETATM   31  C   UNL     1     -45.869  55.604 -60.486  1.00  0.00     0.000 A 
HETATM   32  C   UNL     1     -46.073  56.773 -59.753  1.00  0.00     0.003 A 
HETATM   33  C   UNL     1     -45.085  57.234 -58.881  1.00  0.00     0.037 A 
ENDBRANCH  27  28
ENDBRANCH  26  27
ENDBRANCH  25  26
ENDBRANCH  22  25
ENDBRANCH   2  21
TORSDOF 9
ENDMDL
