MODEL 1
REMARK VINA RESULT:      -7.5      0.000      0.000
REMARK  5 active torsions:
REMARK  status: ('A' for Active; 'I' for Inactive)
REMARK    1  A    between atoms: C_4  and  O_5 
REMARK    2  A    between atoms: C_6  and  C_7 
REMARK       I    between atoms: C_7  and  N_8 
REMARK    3  A    between atoms: N_8  and  C_9 
REMARK    4  A    between atoms: C_9  and  C_10 
REMARK    5  A    between atoms: C_10  and  C_11 
ROOT
HETATM    1  C   UNL     1     -41.499  54.467 -51.364  1.00  0.00     0.254 C 
HETATM    2  N   UNL     1     -42.823  54.822 -51.498  1.00  0.00    -0.356 N 
HETATM    3  O   UNL     1     -40.737  55.048 -50.596  1.00  0.00    -0.268 OA
HETATM    4  H   UNL     1     -43.343  54.356 -52.237  1.00  0.00     0.162 HD
ENDROOT
BRANCH   2   5
HETATM    5  C   UNL     1     -43.357  56.003 -50.849  1.00  0.00     0.136 C 
BRANCH   5   6
HETATM    6  C   UNL     1     -43.521  57.246 -51.774  1.00  0.00    -0.004 C 
HETATM    7  C   UNL     1     -43.958  56.814 -53.194  1.00  0.00     0.021 C 
HETATM    8  C   UNL     1     -44.644  58.147 -51.205  1.00  0.00     0.021 C 
BRANCH   6   9
HETATM    9  C   UNL     1     -42.160  57.967 -51.870  1.00  0.00    -0.046 A 
HETATM   10  C   UNL     1     -41.472  58.024 -53.096  1.00  0.00     0.027 A 
HETATM   11  C   UNL     1     -40.247  58.674 -53.169  1.00  0.00     0.116 A 
HETATM   12  N   UNL     1     -39.653  59.273 -52.119  1.00  0.00    -0.273 NA
HETATM   13  C   UNL     1     -40.313  59.211 -50.947  1.00  0.00     0.116 A 
HETATM   14  C   UNL     1     -41.541  58.583 -50.775  1.00  0.00     0.027 A 
ENDBRANCH   6   9
ENDBRANCH   5   6
ENDBRANCH   2   5
BRANCH   1  15
HETATM   15  C   UNL     1     -41.002  53.341 -52.219  1.00  0.00     0.065 A 
HETATM   16  C   UNL     1     -41.349  53.144 -53.564  1.00  0.00     0.081 A 
HETATM   17  C   UNL     1     -40.818  52.069 -54.288  1.00  0.00     0.044 A 
HETATM   18  C   UNL     1     -39.937  51.167 -53.678  1.00  0.00    -0.059 A 
HETATM   19  C   UNL     1     -39.335  50.031 -54.453  1.00  0.00     0.048 C 
HETATM   20  C   UNL     1     -39.583  51.363 -52.340  1.00  0.00     0.008 A 
HETATM   21  C   UNL     1     -40.113  52.435 -51.619  1.00  0.00     0.020 A 
BRANCH  16  22
HETATM   22  O   UNL     1     -42.205  54.004 -54.208  1.00  0.00    -0.360 OA
HETATM   23  H   UNL     1     -41.748  54.852 -54.346  1.00  0.00     0.217 HD
ENDBRANCH  16  22
ENDBRANCH   1  15
TORSDOF 5
ENDMDL
MODEL 2
REMARK VINA RESULT:      -7.2      2.144      6.992
REMARK  5 active torsions:
REMARK  status: ('A' for Active; 'I' for Inactive)
REMARK    1  A    between atoms: C_4  and  O_5 
REMARK    2  A    between atoms: C_6  and  C_7 
REMARK       I    between atoms: C_7  and  N_8 
REMARK    3  A    between atoms: N_8  and  C_9 
REMARK    4  A    between atoms: C_9  and  C_10 
REMARK    5  A    between atoms: C_10  and  C_11 
ROOT
HETATM    1  C   UNL     1     -42.182  55.978 -51.454  1.00  0.00     0.254 C 
HETATM    2  N   UNL     1     -41.428  55.660 -52.561  1.00  0.00    -0.356 N 
HETATM    3  O   UNL     1     -42.101  55.353 -50.400  1.00  0.00    -0.268 OA
HETATM    4  H   UNL     1     -41.646  56.164 -53.417  1.00  0.00     0.162 HD
ENDROOT
BRANCH   2   5
HETATM    5  C   UNL     1     -40.600  54.470 -52.594  1.00  0.00     0.136 C 
BRANCH   5   6
HETATM    6  C   UNL     1     -40.771  53.584 -53.863  1.00  0.00    -0.004 C 
HETATM    7  C   UNL     1     -42.251  53.553 -54.311  1.00  0.00     0.021 C 
HETATM    8  C   UNL     1     -39.957  54.209 -55.022  1.00  0.00     0.021 C 
BRANCH   6   9
HETATM    9  C   UNL     1     -40.325  52.147 -53.521  1.00  0.00    -0.046 A 
HETATM   10  C   UNL     1     -40.395  51.132 -54.493  1.00  0.00     0.027 A 
HETATM   11  C   UNL     1     -39.993  49.842 -54.171  1.00  0.00     0.116 A 
HETATM   12  N   UNL     1     -39.527  49.482 -52.960  1.00  0.00    -0.273 NA
HETATM   13  C   UNL     1     -39.468  50.456 -52.032  1.00  0.00     0.116 A 
HETATM   14  C   UNL     1     -39.847  51.774 -52.258  1.00  0.00     0.027 A 
ENDBRANCH   6   9
ENDBRANCH   5   6
ENDBRANCH   2   5
BRANCH   1  15
HETATM   15  C   UNL     1     -43.143  57.121 -51.585  1.00  0.00     0.065 A 
HETATM   16  C   UNL     1     -44.462  57.116 -51.109  1.00  0.00     0.081 A 
HETATM   17  C   UNL     1     -45.281  58.243 -51.264  1.00  0.00     0.044 A 
HETATM   18  C   UNL     1     -44.798  59.391 -51.905  1.00  0.00    -0.059 A 
HETATM   19  C   UNL     1     -45.655  60.615 -52.047  1.00  0.00     0.048 C 
HETATM   20  C   UNL     1     -43.481  59.403 -52.375  1.00  0.00     0.008 A 
HETATM   21  C   UNL     1     -42.666  58.279 -52.221  1.00  0.00     0.020 A 
BRANCH  16  22
HETATM   22  O   UNL     1     -44.981  56.017 -50.470  1.00  0.00    -0.360 OA
HETATM   23  H   UNL     1     -45.888  56.223 -50.183  1.00  0.00     0.217 HD
ENDBRANCH  16  22
ENDBRANCH   1  15
TORSDOF 5
ENDMDL
MODEL 3
REMARK VINA RESULT:      -7.0     14.946     16.868
REMARK  5 active torsions:
REMARK  status: ('A' for Active; 'I' for Inactive)
REMARK    1  A    between atoms: C_4  and  O_5 
REMARK    2  A    between atoms: C_6  and  C_7 
REMARK       I    between atoms: C_7  and  N_8 
REMARK    3  A    between atoms: N_8  and  C_9 
REMARK    4  A    between atoms: C_9  and  C_10 
REMARK    5  A    between atoms: C_10  and  C_11 
ROOT
HETATM    1  C   UNL     1     -35.571  42.031 -53.552  1.00  0.00     0.254 C 
HETATM    2  N   UNL     1     -34.496  41.252 -53.186  1.00  0.00    -0.356 N 
HETATM    3  O   UNL     1     -36.167  42.748 -52.754  1.00  0.00    -0.268 OA
HETATM    4  H   UNL     1     -34.141  40.611 -53.891  1.00  0.00     0.162 HD
ENDROOT
BRANCH   2   5
HETATM    5  C   UNL     1     -34.099  41.119 -51.798  1.00  0.00     0.136 C 
BRANCH   5   6
HETATM    6  C   UNL     1     -34.677  39.873 -51.064  1.00  0.00    -0.004 C 
HETATM    7  C   UNL     1     -36.077  40.184 -50.482  1.00  0.00     0.021 C 
HETATM    8  C   UNL     1     -34.854  38.727 -52.089  1.00  0.00     0.021 C 
BRANCH   6   9
HETATM    9  C   UNL     1     -33.728  39.503 -49.904  1.00  0.00    -0.046 A 
HETATM   10  C   UNL     1     -34.111  38.540 -48.953  1.00  0.00     0.027 A 
HETATM   11  C   UNL     1     -33.249  38.218 -47.913  1.00  0.00     0.116 A 
HETATM   12  N   UNL     1     -32.036  38.778 -47.745  1.00  0.00    -0.273 NA
HETATM   13  C   UNL     1     -31.676  39.703 -48.655  1.00  0.00     0.116 A 
HETATM   14  C   UNL     1     -32.469  40.092 -49.728  1.00  0.00     0.027 A 
ENDBRANCH   6   9
ENDBRANCH   5   6
ENDBRANCH   2   5
BRANCH   1  15
HETATM   15  C   UNL     1     -36.014  41.956 -54.982  1.00  0.00     0.065 A 
HETATM   16  C   UNL     1     -37.328  41.699 -55.401  1.00  0.00     0.081 A 
HETATM   17  C   UNL     1     -37.650  41.667 -56.764  1.00  0.00     0.044 A 
HETATM   18  C   UNL     1     -36.662  41.882 -57.733  1.00  0.00    -0.059 A 
HETATM   19  C   UNL     1     -37.001  41.884 -59.196  1.00  0.00     0.048 C 
HETATM   20  C   UNL     1     -35.352  42.146 -57.321  1.00  0.00     0.008 A 
HETATM   21  C   UNL     1     -35.032  42.178 -55.962  1.00  0.00     0.020 A 
BRANCH  16  22
HETATM   22  O   UNL     1     -38.333  41.486 -54.490  1.00  0.00    -0.360 OA
HETATM   23  H   UNL     1     -38.303  40.556 -54.205  1.00  0.00     0.217 HD
ENDBRANCH  16  22
ENDBRANCH   1  15
TORSDOF 5
ENDMDL
MODEL 4
REMARK VINA RESULT:      -7.0     14.897     16.653
REMARK  5 active torsions:
REMARK  status: ('A' for Active; 'I' for Inactive)
REMARK    1  A    between atoms: C_4  and  O_5 
REMARK    2  A    between atoms: C_6  and  C_7 
REMARK       I    between atoms: C_7  and  N_8 
REMARK    3  A    between atoms: N_8  and  C_9 
REMARK    4  A    between atoms: C_9  and  C_10 
REMARK    5  A    between atoms: C_10  and  C_11 
ROOT
HETATM    1  C   UNL     1     -35.681  42.061 -53.549  1.00  0.00     0.254 C 
HETATM    2  N   UNL     1     -34.486  41.477 -53.193  1.00  0.00    -0.356 N 
HETATM    3  O   UNL     1     -36.404  42.630 -52.735  1.00  0.00    -0.268 OA
HETATM    4  H   UNL     1     -34.015  40.937 -53.914  1.00  0.00     0.162 HD
ENDROOT
BRANCH   2   5
HETATM    5  C   UNL     1     -34.083  41.368 -51.805  1.00  0.00     0.136 C 
BRANCH   5   6
HETATM    6  C   UNL     1     -33.751  39.923 -51.327  1.00  0.00    -0.004 C 
HETATM    7  C   UNL     1     -33.887  38.918 -52.495  1.00  0.00     0.021 C 
HETATM    8  C   UNL     1     -32.277  39.879 -50.856  1.00  0.00     0.021 C 
BRANCH   6   9
HETATM    9  C   UNL     1     -34.750  39.533 -50.217  1.00  0.00    -0.046 A 
HETATM   10  C   UNL     1     -36.052  40.065 -50.214  1.00  0.00     0.027 A 
HETATM   11  C   UNL     1     -36.940  39.707 -49.208  1.00  0.00     0.116 A 
HETATM   12  N   UNL     1     -36.635  38.861 -48.205  1.00  0.00    -0.273 NA
HETATM   13  C   UNL     1     -35.385  38.359 -48.210  1.00  0.00     0.116 A 
HETATM   14  C   UNL     1     -34.427  38.658 -49.171  1.00  0.00     0.027 A 
ENDBRANCH   6   9
ENDBRANCH   5   6
ENDBRANCH   2   5
BRANCH   1  15
HETATM   15  C   UNL     1     -36.092  41.959 -54.987  1.00  0.00     0.065 A 
HETATM   16  C   UNL     1     -37.393  41.681 -55.430  1.00  0.00     0.081 A 
HETATM   17  C   UNL     1     -37.684  41.624 -56.800  1.00  0.00     0.044 A 
HETATM   18  C   UNL     1     -36.677  41.836 -57.750  1.00  0.00    -0.059 A 
HETATM   19  C   UNL     1     -36.984  41.810 -59.219  1.00  0.00     0.048 C 
HETATM   20  C   UNL     1     -35.380  42.120 -57.313  1.00  0.00     0.008 A 
HETATM   21  C   UNL     1     -35.091  42.177 -55.948  1.00  0.00     0.020 A 
BRANCH  16  22
HETATM   22  O   UNL     1     -38.416  41.471 -54.538  1.00  0.00    -0.360 OA
HETATM   23  H   UNL     1     -38.905  40.674 -54.808  1.00  0.00     0.217 HD
ENDBRANCH  16  22
ENDBRANCH   1  15
TORSDOF 5
ENDMDL
MODEL 5
REMARK VINA RESULT:      -6.9      1.944      3.205
REMARK  5 active torsions:
REMARK  status: ('A' for Active; 'I' for Inactive)
REMARK    1  A    between atoms: C_4  and  O_5 
REMARK    2  A    between atoms: C_6  and  C_7 
REMARK       I    between atoms: C_7  and  N_8 
REMARK    3  A    between atoms: N_8  and  C_9 
REMARK    4  A    between atoms: C_9  and  C_10 
REMARK    5  A    between atoms: C_10  and  C_11 
ROOT
HETATM    1  C   UNL     1     -41.601  54.731 -51.853  1.00  0.00     0.254 C 
HETATM    2  N   UNL     1     -42.890  55.029 -52.236  1.00  0.00    -0.356 N 
HETATM    3  O   UNL     1     -40.961  55.444 -51.085  1.00  0.00    -0.268 OA
HETATM    4  H   UNL     1     -43.295  54.438 -52.958  1.00  0.00     0.162 HD
ENDROOT
BRANCH   2   5
HETATM    5  C   UNL     1     -43.515  56.285 -51.871  1.00  0.00     0.136 C 
BRANCH   5   6
HETATM    6  C   UNL     1     -43.716  57.286 -53.047  1.00  0.00    -0.004 C 
HETATM    7  C   UNL     1     -42.366  57.918 -53.461  1.00  0.00     0.021 C 
HETATM    8  C   UNL     1     -44.254  56.512 -54.275  1.00  0.00     0.021 C 
BRANCH   6   9
HETATM    9  C   UNL     1     -44.667  58.408 -52.578  1.00  0.00    -0.046 A 
HETATM   10  C   UNL     1     -45.035  59.440 -53.460  1.00  0.00     0.027 A 
HETATM   11  C   UNL     1     -45.890  60.445 -53.024  1.00  0.00     0.116 A 
HETATM   12  N   UNL     1     -46.407  60.503 -51.782  1.00  0.00    -0.273 NA
HETATM   13  C   UNL     1     -46.047  59.515 -50.941  1.00  0.00     0.116 A 
HETATM   14  C   UNL     1     -45.198  58.469 -51.283  1.00  0.00     0.027 A 
ENDBRANCH   6   9
ENDBRANCH   5   6
ENDBRANCH   2   5
BRANCH   1  15
HETATM   15  C   UNL     1     -40.982  53.495 -52.433  1.00  0.00     0.065 A 
HETATM   16  C   UNL     1     -40.144  52.615 -51.733  1.00  0.00     0.081 A 
HETATM   17  C   UNL     1     -39.627  51.472 -52.357  1.00  0.00     0.044 A 
HETATM   18  C   UNL     1     -39.932  51.194 -53.696  1.00  0.00    -0.059 A 
HETATM   19  C   UNL     1     -39.411  49.956 -54.366  1.00  0.00     0.048 C 
HETATM   20  C   UNL     1     -40.772  52.065 -54.396  1.00  0.00     0.008 A 
HETATM   21  C   UNL     1     -41.287  53.203 -53.773  1.00  0.00     0.020 A 
BRANCH  16  22
HETATM   22  O   UNL     1     -39.820  52.841 -50.418  1.00  0.00    -0.360 OA
HETATM   23  H   UNL     1     -38.906  53.172 -50.375  1.00  0.00     0.217 HD
ENDBRANCH  16  22
ENDBRANCH   1  15
TORSDOF 5
ENDMDL
MODEL 6
REMARK VINA RESULT:      -6.9      1.702      2.681
REMARK  5 active torsions:
REMARK  status: ('A' for Active; 'I' for Inactive)
REMARK    1  A    between atoms: C_4  and  O_5 
REMARK    2  A    between atoms: C_6  and  C_7 
REMARK       I    between atoms: C_7  and  N_8 
REMARK    3  A    between atoms: N_8  and  C_9 
REMARK    4  A    between atoms: C_9  and  C_10 
REMARK    5  A    between atoms: C_10  and  C_11 
ROOT
HETATM    1  C   UNL     1     -41.203  54.673 -51.086  1.00  0.00     0.254 C 
HETATM    2  N   UNL     1     -40.988  55.953 -51.543  1.00  0.00    -0.356 N 
HETATM    3  O   UNL     1     -41.649  54.440 -49.965  1.00  0.00    -0.268 OA
HETATM    4  H   UNL     1     -40.514  56.040 -52.439  1.00  0.00     0.162 HD
ENDROOT
BRANCH   2   5
HETATM    5  C   UNL     1     -41.134  57.102 -50.670  1.00  0.00     0.136 C 
BRANCH   5   6
HETATM    6  C   UNL     1     -40.961  58.484 -51.366  1.00  0.00    -0.004 C 
HETATM    7  C   UNL     1     -39.715  59.218 -50.818  1.00  0.00     0.021 C 
HETATM    8  C   UNL     1     -40.727  58.256 -52.879  1.00  0.00     0.021 C 
BRANCH   6   9
HETATM    9  C   UNL     1     -42.211  59.340 -51.073  1.00  0.00    -0.046 A 
HETATM   10  C   UNL     1     -43.492  58.866 -51.412  1.00  0.00     0.027 A 
HETATM   11  C   UNL     1     -44.608  59.648 -51.145  1.00  0.00     0.116 A 
HETATM   12  N   UNL     1     -44.552  60.863 -50.567  1.00  0.00    -0.273 NA
HETATM   13  C   UNL     1     -43.323  61.315 -50.250  1.00  0.00     0.116 A 
HETATM   14  C   UNL     1     -42.149  60.607 -50.478  1.00  0.00     0.027 A 
ENDBRANCH   6   9
ENDBRANCH   5   6
ENDBRANCH   2   5
BRANCH   1  15
HETATM   15  C   UNL     1     -40.848  53.547 -52.009  1.00  0.00     0.065 A 
HETATM   16  C   UNL     1     -41.328  53.405 -53.320  1.00  0.00     0.081 A 
HETATM   17  C   UNL     1     -40.924  52.325 -54.116  1.00  0.00     0.044 A 
HETATM   18  C   UNL     1     -40.039  51.363 -53.612  1.00  0.00    -0.059 A 
HETATM   19  C   UNL     1     -39.572  50.220 -54.466  1.00  0.00     0.048 C 
HETATM   20  C   UNL     1     -39.552  51.503 -52.309  1.00  0.00     0.008 A 
HETATM   21  C   UNL     1     -39.956  52.581 -51.517  1.00  0.00     0.020 A 
BRANCH  16  22
HETATM   22  O   UNL     1     -42.193  54.324 -53.861  1.00  0.00    -0.360 OA
HETATM   23  H   UNL     1     -41.678  54.976 -54.368  1.00  0.00     0.217 HD
ENDBRANCH  16  22
ENDBRANCH   1  15
TORSDOF 5
ENDMDL
MODEL 7
REMARK VINA RESULT:      -6.8      4.412      7.138
REMARK  5 active torsions:
REMARK  status: ('A' for Active; 'I' for Inactive)
REMARK    1  A    between atoms: C_4  and  O_5 
REMARK    2  A    between atoms: C_6  and  C_7 
REMARK       I    between atoms: C_7  and  N_8 
REMARK    3  A    between atoms: N_8  and  C_9 
REMARK    4  A    between atoms: C_9  and  C_10 
REMARK    5  A    between atoms: C_10  and  C_11 
ROOT
HETATM    1  C   UNL     1     -42.908  56.392 -56.618  1.00  0.00     0.254 C 
HETATM    2  N   UNL     1     -42.042  55.346 -56.385  1.00  0.00    -0.356 N 
HETATM    3  O   UNL     1     -43.873  56.621 -55.894  1.00  0.00    -0.268 OA
HETATM    4  H   UNL     1     -41.340  55.172 -57.100  1.00  0.00     0.162 HD
ENDROOT
BRANCH   2   5
HETATM    5  C   UNL     1     -42.308  54.362 -55.354  1.00  0.00     0.136 C 
BRANCH   5   6
HETATM    6  C   UNL     1     -41.683  54.681 -53.963  1.00  0.00    -0.004 C 
HETATM    7  C   UNL     1     -40.698  55.869 -54.068  1.00  0.00     0.021 C 
HETATM    8  C   UNL     1     -42.812  55.108 -52.995  1.00  0.00     0.021 C 
BRANCH   6   9
HETATM    9  C   UNL     1     -40.910  53.437 -53.476  1.00  0.00    -0.046 A 
HETATM   10  C   UNL     1     -40.630  52.382 -54.364  1.00  0.00     0.027 A 
HETATM   11  C   UNL     1     -39.936  51.267 -53.912  1.00  0.00     0.116 A 
HETATM   12  N   UNL     1     -39.499  51.119 -52.648  1.00  0.00    -0.273 NA
HETATM   13  C   UNL     1     -39.775  52.128 -51.800  1.00  0.00     0.116 A 
HETATM   14  C   UNL     1     -40.463  53.282 -52.158  1.00  0.00     0.027 A 
ENDBRANCH   6   9
ENDBRANCH   5   6
ENDBRANCH   2   5
BRANCH   1  15
HETATM   15  C   UNL     1     -42.642  57.245 -57.821  1.00  0.00     0.065 A 
HETATM   16  C   UNL     1     -42.677  56.791 -59.148  1.00  0.00     0.081 A 
HETATM   17  C   UNL     1     -42.431  57.671 -60.211  1.00  0.00     0.044 A 
HETATM   18  C   UNL     1     -42.138  59.018 -59.965  1.00  0.00    -0.059 A 
HETATM   19  C   UNL     1     -41.906  59.978 -61.096  1.00  0.00     0.048 C 
HETATM   20  C   UNL     1     -42.108  59.477 -58.644  1.00  0.00     0.008 A 
HETATM   21  C   UNL     1     -42.353  58.599 -57.586  1.00  0.00     0.020 A 
BRANCH  16  22
HETATM   22  O   UNL     1     -42.965  55.481 -59.441  1.00  0.00    -0.360 OA
HETATM   23  H   UNL     1     -42.149  54.957 -59.357  1.00  0.00     0.217 HD
ENDBRANCH  16  22
ENDBRANCH   1  15
TORSDOF 5
ENDMDL
MODEL 8
REMARK VINA RESULT:      -6.7     15.357     17.211
REMARK  5 active torsions:
REMARK  status: ('A' for Active; 'I' for Inactive)
REMARK    1  A    between atoms: C_4  and  O_5 
REMARK    2  A    between atoms: C_6  and  C_7 
REMARK       I    between atoms: C_7  and  N_8 
REMARK    3  A    between atoms: N_8  and  C_9 
REMARK    4  A    between atoms: C_9  and  C_10 
REMARK    5  A    between atoms: C_10  and  C_11 
ROOT
HETATM    1  C   UNL     1     -35.160  40.586 -53.038  1.00  0.00     0.254 C 
HETATM    2  N   UNL     1     -34.970  39.939 -54.238  1.00  0.00    -0.356 N 
HETATM    3  O   UNL     1     -36.104  41.348 -52.842  1.00  0.00    -0.268 OA
HETATM    4  H   UNL     1     -34.103  39.418 -54.339  1.00  0.00     0.162 HD
ENDROOT
BRANCH   2   5
HETATM    5  C   UNL     1     -35.793  40.237 -55.395  1.00  0.00     0.136 C 
BRANCH   5   6
HETATM    6  C   UNL     1     -35.103  41.107 -56.486  1.00  0.00    -0.004 C 
HETATM    7  C   UNL     1     -35.088  42.596 -56.067  1.00  0.00     0.021 C 
HETATM    8  C   UNL     1     -33.628  40.658 -56.625  1.00  0.00     0.021 C 
BRANCH   6   9
HETATM    9  C   UNL     1     -35.901  40.970 -57.800  1.00  0.00    -0.046 A 
HETATM   10  C   UNL     1     -35.925  39.744 -58.491  1.00  0.00     0.027 A 
HETATM   11  C   UNL     1     -36.645  39.635 -59.674  1.00  0.00     0.116 A 
HETATM   12  N   UNL     1     -37.343  40.647 -60.222  1.00  0.00    -0.273 NA
HETATM   13  C   UNL     1     -37.312  41.819 -59.560  1.00  0.00     0.116 A 
HETATM   14  C   UNL     1     -36.621  42.026 -58.372  1.00  0.00     0.027 A 
ENDBRANCH   6   9
ENDBRANCH   5   6
ENDBRANCH   2   5
BRANCH   1  15
HETATM   15  C   UNL     1     -34.145  40.344 -51.962  1.00  0.00     0.065 A 
HETATM   16  C   UNL     1     -32.761  40.512 -52.116  1.00  0.00     0.081 A 
HETATM   17  C   UNL     1     -31.890  40.278 -51.043  1.00  0.00     0.044 A 
HETATM   18  C   UNL     1     -32.387  39.864 -49.800  1.00  0.00    -0.059 A 
HETATM   19  C   UNL     1     -31.467  39.642 -48.635  1.00  0.00     0.048 C 
HETATM   20  C   UNL     1     -33.766  39.702 -49.641  1.00  0.00     0.008 A 
HETATM   21  C   UNL     1     -34.634  39.935 -50.710  1.00  0.00     0.020 A 
BRANCH  16  22
HETATM   22  O   UNL     1     -32.225  40.921 -53.312  1.00  0.00    -0.360 OA
HETATM   23  H   UNL     1     -31.889  40.140 -53.785  1.00  0.00     0.217 HD
ENDBRANCH  16  22
ENDBRANCH   1  15
TORSDOF 5
ENDMDL
MODEL 9
REMARK VINA RESULT:      -6.7      1.684      2.429
REMARK  5 active torsions:
REMARK  status: ('A' for Active; 'I' for Inactive)
REMARK    1  A    between atoms: C_4  and  O_5 
REMARK    2  A    between atoms: C_6  and  C_7 
REMARK       I    between atoms: C_7  and  N_8 
REMARK    3  A    between atoms: N_8  and  C_9 
REMARK    4  A    between atoms: C_9  and  C_10 
REMARK    5  A    between atoms: C_10  and  C_11 
ROOT
HETATM    1  C   UNL     1     -41.135  54.715 -51.567  1.00  0.00     0.254 C 
HETATM    2  N   UNL     1     -41.297  55.892 -52.264  1.00  0.00    -0.356 N 
HETATM    3  O   UNL     1     -41.259  54.651 -50.347  1.00  0.00    -0.268 OA
HETATM    4  H   UNL     1     -41.066  55.866 -53.254  1.00  0.00     0.162 HD
ENDROOT
BRANCH   2   5
HETATM    5  C   UNL     1     -41.475  57.157 -51.579  1.00  0.00     0.136 C 
BRANCH   5   6
HETATM    6  C   UNL     1     -42.808  57.896 -51.898  1.00  0.00    -0.004 C 
HETATM    7  C   UNL     1     -44.011  57.135 -51.291  1.00  0.00     0.021 C 
HETATM    8  C   UNL     1     -42.773  59.296 -51.238  1.00  0.00     0.021 C 
BRANCH   6   9
HETATM    9  C   UNL     1     -42.981  57.957 -53.430  1.00  0.00    -0.046 A 
HETATM   10  C   UNL     1     -42.157  58.794 -54.205  1.00  0.00     0.027 A 
HETATM   11  C   UNL     1     -42.325  58.842 -55.582  1.00  0.00     0.116 A 
HETATM   12  N   UNL     1     -43.246  58.122 -56.250  1.00  0.00    -0.273 NA
HETATM   13  C   UNL     1     -44.035  57.325 -55.504  1.00  0.00     0.116 A 
HETATM   14  C   UNL     1     -43.944  57.211 -54.122  1.00  0.00     0.027 A 
ENDBRANCH   6   9
ENDBRANCH   5   6
ENDBRANCH   2   5
BRANCH   1  15
HETATM   15  C   UNL     1     -40.774  53.495 -52.358  1.00  0.00     0.065 A 
HETATM   16  C   UNL     1     -41.240  53.213 -53.652  1.00  0.00     0.081 A 
HETATM   17  C   UNL     1     -40.830  52.051 -54.320  1.00  0.00     0.044 A 
HETATM   18  C   UNL     1     -39.956  51.147 -53.704  1.00  0.00    -0.059 A 
HETATM   19  C   UNL     1     -39.484  49.916 -54.423  1.00  0.00     0.048 C 
HETATM   20  C   UNL     1     -39.484  51.427 -52.419  1.00  0.00     0.008 A 
HETATM   21  C   UNL     1     -39.892  52.585 -51.753  1.00  0.00     0.020 A 
BRANCH  16  22
HETATM   22  O   UNL     1     -42.094  54.070 -54.300  1.00  0.00    -0.360 OA
HETATM   23  H   UNL     1     -41.722  54.278 -55.174  1.00  0.00     0.217 HD
ENDBRANCH  16  22
ENDBRANCH   1  15
TORSDOF 5
ENDMDL
MODEL 10
REMARK VINA RESULT:      -6.7      3.996      6.684
REMARK  5 active torsions:
REMARK  status: ('A' for Active; 'I' for Inactive)
REMARK    1  A    between atoms: C_4  and  O_5 
REMARK    2  A    between atoms: C_6  and  C_7 
REMARK       I    between atoms: C_7  and  N_8 
REMARK    3  A    between atoms: N_8  and  C_9 
REMARK    4  A    between atoms: C_9  and  C_10 
REMARK    5  A    between atoms: C_10  and  C_11 
ROOT
HETATM    1  C   UNL     1     -42.969  56.077 -56.114  1.00  0.00     0.254 C 
HETATM    2  N   UNL     1     -42.439  54.805 -56.112  1.00  0.00    -0.356 N 
HETATM    3  O   UNL     1     -43.527  56.559 -55.133  1.00  0.00    -0.268 OA
HETATM    4  H   UNL     1     -42.097  54.456 -57.003  1.00  0.00     0.162 HD
ENDROOT
BRANCH   2   5
HETATM    5  C   UNL     1     -42.644  53.905 -54.994  1.00  0.00     0.136 C 
BRANCH   5   6
HETATM    6  C   UNL     1     -41.363  53.573 -54.173  1.00  0.00    -0.004 C 
HETATM    7  C   UNL     1     -40.981  52.083 -54.337  1.00  0.00     0.021 C 
HETATM    8  C   UNL     1     -40.184  54.410 -54.726  1.00  0.00     0.021 C 
BRANCH   6   9
HETATM    9  C   UNL     1     -41.651  53.851 -52.682  1.00  0.00    -0.046 A 
HETATM   10  C   UNL     1     -40.650  53.645 -51.716  1.00  0.00     0.027 A 
HETATM   11  C   UNL     1     -40.923  53.897 -50.377  1.00  0.00     0.116 A 
HETATM   12  N   UNL     1     -42.113  54.336 -49.925  1.00  0.00    -0.273 NA
HETATM   13  C   UNL     1     -43.070  54.527 -50.854  1.00  0.00     0.116 A 
HETATM   14  C   UNL     1     -42.892  54.302 -52.214  1.00  0.00     0.027 A 
ENDBRANCH   6   9
ENDBRANCH   5   6
ENDBRANCH   2   5
BRANCH   1  15
HETATM   15  C   UNL     1     -42.860  56.861 -57.387  1.00  0.00     0.065 A 
HETATM   16  C   UNL     1     -43.350  56.439 -58.632  1.00  0.00     0.081 A 
HETATM   17  C   UNL     1     -43.216  57.252 -59.765  1.00  0.00     0.044 A 
HETATM   18  C   UNL     1     -42.582  58.498 -59.675  1.00  0.00    -0.059 A 
HETATM   19  C   UNL     1     -42.462  59.392 -60.875  1.00  0.00     0.048 C 
HETATM   20  C   UNL     1     -42.097  58.925 -58.436  1.00  0.00     0.008 A 
HETATM   21  C   UNL     1     -42.231  58.114 -57.307  1.00  0.00     0.020 A 
BRANCH  16  22
HETATM   22  O   UNL     1     -43.984  55.229 -58.770  1.00  0.00    -0.360 OA
HETATM   23  H   UNL     1     -44.780  55.355 -59.315  1.00  0.00     0.217 HD
ENDBRANCH  16  22
ENDBRANCH   1  15
TORSDOF 5
ENDMDL
