MODEL 1
REMARK VINA RESULT:      -7.9      0.000      0.000
REMARK  3 active torsions:
REMARK  status: ('A' for Active; 'I' for Inactive)
REMARK    1  A    between atoms: C_3  and  N_4 
REMARK       I    between atoms: N_4  and  C_5 
REMARK    2  A    between atoms: C_5  and  C_6 
REMARK    3  A    between atoms: C_8  and  N_9 
REMARK       I    between atoms: N_9  and  C_10 
ROOT
HETATM    1  N   UNL     1     -40.883  55.030 -52.427  1.00  0.00    -0.321 N 
HETATM    2  C   UNL     1     -42.183  55.482 -52.276  1.00  0.00     0.256 C 
HETATM    3  O   UNL     1     -43.213  54.848 -52.466  1.00  0.00    -0.267 OA
HETATM    4  H   UNL     1     -40.157  55.636 -52.067  1.00  0.00     0.169 HD
ENDROOT
BRANCH   2   5
HETATM    5  C   UNL     1     -42.316  56.885 -51.786  1.00  0.00     0.034 A 
HETATM    6  C   UNL     1     -43.430  57.674 -52.107  1.00  0.00     0.046 A 
HETATM    7  C   UNL     1     -43.529  58.987 -51.644  1.00  0.00     0.035 A 
HETATM    8  C   UNL     1     -42.477  59.522 -50.889  1.00  0.00     0.029 A 
HETATM    9  C   UNL     1     -41.352  58.751 -50.589  1.00  0.00     0.003 A 
HETATM   10  C   UNL     1     -41.270  57.433 -51.036  1.00  0.00     0.017 A 
BRANCH   7  11
HETATM   11  N   UNL     1     -44.631  59.825 -51.911  1.00  0.00    -0.327 N 
HETATM   12  C   UNL     1     -45.889  59.756 -51.336  1.00  0.00     0.218 C 
HETATM   13  C   UNL     1     -46.847  60.781 -51.889  1.00  0.00     0.117 C 
HETATM   14  O   UNL     1     -46.241  58.990 -50.445  1.00  0.00    -0.274 OA
HETATM   15  H   UNL     1     -44.462  60.590 -52.553  1.00  0.00     0.169 HD
ENDBRANCH   7  11
ENDBRANCH   2   5
BRANCH   1  16
HETATM   16  C   UNL     1     -40.474  53.700 -52.708  1.00  0.00     0.065 A 
HETATM   17  C   UNL     1     -40.375  53.146 -53.995  1.00  0.00    -0.031 A 
HETATM   18  C   UNL     1     -40.524  53.915 -55.278  1.00  0.00     0.050 C 
HETATM   19  C   UNL     1     -40.058  51.782 -54.115  1.00  0.00     0.035 A 
HETATM   20  C   UNL     1     -39.774  51.029 -52.983  1.00  0.00     0.031 A 
HETATM   21  N   UNL     1     -39.771  51.565 -51.748  1.00  0.00    -0.256 NA
HETATM   22  C   UNL     1     -39.452  49.571 -53.104  1.00  0.00     0.070 C 
HETATM   23  C   UNL     1     -40.112  52.875 -51.620  1.00  0.00     0.058 A 
HETATM   24  C   UNL     1     -40.125  53.374 -50.200  1.00  0.00     0.073 C 
ENDBRANCH   1  16
TORSDOF 3
ENDMDL
MODEL 2
REMARK VINA RESULT:      -7.8      1.973      3.270
REMARK  3 active torsions:
REMARK  status: ('A' for Active; 'I' for Inactive)
REMARK    1  A    between atoms: C_3  and  N_4 
REMARK       I    between atoms: N_4  and  C_5 
REMARK    2  A    between atoms: C_5  and  C_6 
REMARK    3  A    between atoms: C_8  and  N_9 
REMARK       I    between atoms: N_9  and  C_10 
ROOT
HETATM    1  N   UNL     1     -40.839  54.874 -52.559  1.00  0.00    -0.321 N 
HETATM    2  C   UNL     1     -42.132  55.347 -52.412  1.00  0.00     0.256 C 
HETATM    3  O   UNL     1     -43.172  54.729 -52.602  1.00  0.00    -0.267 OA
HETATM    4  H   UNL     1     -40.105  55.469 -52.198  1.00  0.00     0.169 HD
ENDROOT
BRANCH   2   5
HETATM    5  C   UNL     1     -42.245  56.753 -51.925  1.00  0.00     0.034 A 
HETATM    6  C   UNL     1     -41.189  57.386 -51.254  1.00  0.00     0.046 A 
HETATM    7  C   UNL     1     -41.321  58.699 -50.799  1.00  0.00     0.035 A 
HETATM    8  C   UNL     1     -42.540  59.362 -50.983  1.00  0.00     0.029 A 
HETATM    9  C   UNL     1     -43.606  58.728 -51.626  1.00  0.00     0.003 A 
HETATM   10  C   UNL     1     -43.460  57.425 -52.098  1.00  0.00     0.017 A 
BRANCH   7  11
HETATM   11  N   UNL     1     -40.290  59.400 -50.138  1.00  0.00    -0.327 N 
HETATM   12  C   UNL     1     -39.021  59.665 -50.622  1.00  0.00     0.218 C 
HETATM   13  C   UNL     1     -38.154  60.400 -49.630  1.00  0.00     0.117 C 
HETATM   14  O   UNL     1     -38.595  59.391 -51.739  1.00  0.00    -0.274 OA
HETATM   15  H   UNL     1     -40.530  59.794 -49.236  1.00  0.00     0.169 HD
ENDBRANCH   7  11
ENDBRANCH   2   5
BRANCH   1  16
HETATM   16  C   UNL     1     -40.451  53.536 -52.836  1.00  0.00     0.065 A 
HETATM   17  C   UNL     1     -40.340  52.983 -54.122  1.00  0.00    -0.031 A 
HETATM   18  C   UNL     1     -40.453  53.757 -55.405  1.00  0.00     0.050 C 
HETATM   19  C   UNL     1     -40.047  51.613 -54.240  1.00  0.00     0.035 A 
HETATM   20  C   UNL     1     -39.797  50.854 -53.105  1.00  0.00     0.031 A 
HETATM   21  N   UNL     1     -39.805  51.387 -51.869  1.00  0.00    -0.256 NA
HETATM   22  C   UNL     1     -39.501  49.390 -53.223  1.00  0.00     0.070 C 
HETATM   23  C   UNL     1     -40.123  52.703 -51.743  1.00  0.00     0.058 A 
HETATM   24  C   UNL     1     -40.151  53.200 -50.323  1.00  0.00     0.073 C 
ENDBRANCH   1  16
TORSDOF 3
ENDMDL
MODEL 3
REMARK VINA RESULT:      -7.8      0.826      1.914
REMARK  3 active torsions:
REMARK  status: ('A' for Active; 'I' for Inactive)
REMARK    1  A    between atoms: C_3  and  N_4 
REMARK       I    between atoms: N_4  and  C_5 
REMARK    2  A    between atoms: C_5  and  C_6 
REMARK    3  A    between atoms: C_8  and  N_9 
REMARK       I    between atoms: N_9  and  C_10 
ROOT
HETATM    1  N   UNL     1     -40.945  55.147 -52.390  1.00  0.00    -0.321 N 
HETATM    2  C   UNL     1     -42.145  55.579 -51.853  1.00  0.00     0.256 C 
HETATM    3  O   UNL     1     -43.155  54.913 -51.667  1.00  0.00    -0.267 OA
HETATM    4  H   UNL     1     -40.167  55.789 -52.314  1.00  0.00     0.169 HD
ENDROOT
BRANCH   2   5
HETATM    5  C   UNL     1     -42.171  57.007 -51.420  1.00  0.00     0.034 A 
HETATM    6  C   UNL     1     -43.271  57.836 -51.684  1.00  0.00     0.046 A 
HETATM    7  C   UNL     1     -43.268  59.171 -51.276  1.00  0.00     0.035 A 
HETATM    8  C   UNL     1     -42.132  59.685 -50.638  1.00  0.00     0.029 A 
HETATM    9  C   UNL     1     -41.022  58.872 -50.397  1.00  0.00     0.003 A 
HETATM   10  C   UNL     1     -41.040  57.534 -50.787  1.00  0.00     0.017 A 
BRANCH   7  11
HETATM   11  N   UNL     1     -44.350  60.051 -51.491  1.00  0.00    -0.327 N 
HETATM   12  C   UNL     1     -45.627  59.944 -50.965  1.00  0.00     0.218 C 
HETATM   13  C   UNL     1     -46.552  61.037 -51.439  1.00  0.00     0.117 C 
HETATM   14  O   UNL     1     -46.018  59.097 -50.169  1.00  0.00    -0.274 OA
HETATM   15  H   UNL     1     -44.149  60.875 -52.044  1.00  0.00     0.169 HD
ENDBRANCH   7  11
ENDBRANCH   2   5
BRANCH   1  16
HETATM   16  C   UNL     1     -40.594  53.810 -52.718  1.00  0.00     0.065 A 
HETATM   17  C   UNL     1     -40.179  52.840 -51.792  1.00  0.00    -0.031 A 
HETATM   18  C   UNL     1     -40.199  53.010 -50.299  1.00  0.00     0.050 C 
HETATM   19  C   UNL     1     -39.762  51.587 -52.274  1.00  0.00     0.035 A 
HETATM   20  C   UNL     1     -39.838  51.302 -53.630  1.00  0.00     0.031 A 
HETATM   21  N   UNL     1     -40.322  52.186 -54.523  1.00  0.00    -0.256 NA
HETATM   22  C   UNL     1     -39.380  49.974 -54.152  1.00  0.00     0.070 C 
HETATM   23  C   UNL     1     -40.694  53.412 -54.070  1.00  0.00     0.058 A 
HETATM   24  C   UNL     1     -41.179  54.348 -55.144  1.00  0.00     0.073 C 
ENDBRANCH   1  16
TORSDOF 3
ENDMDL
MODEL 4
REMARK VINA RESULT:      -7.5      1.413      1.859
REMARK  3 active torsions:
REMARK  status: ('A' for Active; 'I' for Inactive)
REMARK    1  A    between atoms: C_3  and  N_4 
REMARK       I    between atoms: N_4  and  C_5 
REMARK    2  A    between atoms: C_5  and  C_6 
REMARK    3  A    between atoms: C_8  and  N_9 
REMARK       I    between atoms: N_9  and  C_10 
ROOT
HETATM    1  N   UNL     1     -41.436  55.073 -52.514  1.00  0.00    -0.321 N 
HETATM    2  C   UNL     1     -42.726  55.301 -52.961  1.00  0.00     0.256 C 
HETATM    3  O   UNL     1     -43.550  54.462 -53.304  1.00  0.00    -0.267 OA
HETATM    4  H   UNL     1     -40.957  55.869 -52.116  1.00  0.00     0.169 HD
ENDROOT
BRANCH   2   5
HETATM    5  C   UNL     1     -43.152  56.730 -52.975  1.00  0.00     0.034 A 
HETATM    6  C   UNL     1     -43.476  57.413 -51.794  1.00  0.00     0.046 A 
HETATM    7  C   UNL     1     -43.881  58.749 -51.833  1.00  0.00     0.035 A 
HETATM    8  C   UNL     1     -44.002  59.386 -53.074  1.00  0.00     0.029 A 
HETATM    9  C   UNL     1     -43.707  58.703 -54.257  1.00  0.00     0.003 A 
HETATM   10  C   UNL     1     -43.283  57.377 -54.209  1.00  0.00     0.017 A 
BRANCH   7  11
HETATM   11  N   UNL     1     -44.200  59.499 -50.681  1.00  0.00    -0.327 N 
HETATM   12  C   UNL     1     -45.441  59.609 -50.077  1.00  0.00     0.218 C 
HETATM   13  C   UNL     1     -45.435  60.534 -48.885  1.00  0.00     0.117 C 
HETATM   14  O   UNL     1     -46.465  59.020 -50.405  1.00  0.00    -0.274 OA
HETATM   15  H   UNL     1     -43.423  59.958 -50.222  1.00  0.00     0.169 HD
ENDBRANCH   7  11
ENDBRANCH   2   5
BRANCH   1  16
HETATM   16  C   UNL     1     -40.843  53.812 -52.239  1.00  0.00     0.065 A 
HETATM   17  C   UNL     1     -40.323  52.941 -53.209  1.00  0.00    -0.031 A 
HETATM   18  C   UNL     1     -40.160  53.273 -54.666  1.00  0.00     0.050 C 
HETATM   19  C   UNL     1     -39.862  51.678 -52.799  1.00  0.00     0.035 A 
HETATM   20  C   UNL     1     -39.854  51.342 -51.452  1.00  0.00     0.031 A 
HETATM   21  N   UNL     1     -40.261  52.200 -50.497  1.00  0.00    -0.256 NA
HETATM   22  C   UNL     1     -39.379  49.991 -51.010  1.00  0.00     0.070 C 
HETATM   23  C   UNL     1     -40.742  53.409 -50.888  1.00  0.00     0.058 A 
HETATM   24  C   UNL     1     -41.215  54.282 -49.757  1.00  0.00     0.073 C 
ENDBRANCH   1  16
TORSDOF 3
ENDMDL
MODEL 5
REMARK VINA RESULT:      -7.2      4.178      5.591
REMARK  3 active torsions:
REMARK  status: ('A' for Active; 'I' for Inactive)
REMARK    1  A    between atoms: C_3  and  N_4 
REMARK       I    between atoms: N_4  and  C_5 
REMARK    2  A    between atoms: C_5  and  C_6 
REMARK    3  A    between atoms: C_8  and  N_9 
REMARK       I    between atoms: N_9  and  C_10 
ROOT
HETATM    1  N   UNL     1     -42.420  55.413 -54.195  1.00  0.00    -0.321 N 
HETATM    2  C   UNL     1     -42.028  56.696 -54.541  1.00  0.00     0.256 C 
HETATM    3  O   UNL     1     -41.152  57.369 -54.012  1.00  0.00    -0.267 OA
HETATM    4  H   UNL     1     -43.040  54.948 -54.845  1.00  0.00     0.169 HD
ENDROOT
BRANCH   2   5
HETATM    5  C   UNL     1     -42.732  57.281 -55.718  1.00  0.00     0.034 A 
HETATM    6  C   UNL     1     -43.291  56.473 -56.719  1.00  0.00     0.046 A 
HETATM    7  C   UNL     1     -43.937  57.044 -57.816  1.00  0.00     0.035 A 
HETATM    8  C   UNL     1     -43.982  58.440 -57.927  1.00  0.00     0.029 A 
HETATM    9  C   UNL     1     -43.403  59.251 -56.949  1.00  0.00     0.003 A 
HETATM   10  C   UNL     1     -42.779  58.674 -55.844  1.00  0.00     0.017 A 
BRANCH   7  11
HETATM   11  N   UNL     1     -44.539  56.288 -58.844  1.00  0.00    -0.327 N 
HETATM   12  C   UNL     1     -43.956  55.891 -60.035  1.00  0.00     0.218 C 
HETATM   13  C   UNL     1     -44.903  55.132 -60.931  1.00  0.00     0.117 C 
HETATM   14  O   UNL     1     -42.791  56.075 -60.373  1.00  0.00    -0.274 OA
HETATM   15  H   UNL     1     -45.479  55.959 -58.661  1.00  0.00     0.169 HD
ENDBRANCH   7  11
ENDBRANCH   2   5
BRANCH   1  16
HETATM   16  C   UNL     1     -41.802  54.565 -53.238  1.00  0.00     0.065 A 
HETATM   17  C   UNL     1     -40.787  53.638 -53.525  1.00  0.00    -0.031 A 
HETATM   18  C   UNL     1     -40.084  53.513 -54.847  1.00  0.00     0.050 C 
HETATM   19  C   UNL     1     -40.342  52.791 -52.495  1.00  0.00     0.035 A 
HETATM   20  C   UNL     1     -40.847  52.931 -51.210  1.00  0.00     0.031 A 
HETATM   21  N   UNL     1     -41.751  53.878 -50.894  1.00  0.00    -0.256 NA
HETATM   22  C   UNL     1     -40.388  52.020 -50.112  1.00  0.00     0.070 C 
HETATM   23  C   UNL     1     -42.213  54.678 -51.891  1.00  0.00     0.058 A 
HETATM   24  C   UNL     1     -43.253  55.674 -51.453  1.00  0.00     0.073 C 
ENDBRANCH   1  16
TORSDOF 3
ENDMDL
MODEL 6
REMARK VINA RESULT:      -7.1      1.813      2.866
REMARK  3 active torsions:
REMARK  status: ('A' for Active; 'I' for Inactive)
REMARK    1  A    between atoms: C_3  and  N_4 
REMARK       I    between atoms: N_4  and  C_5 
REMARK    2  A    between atoms: C_5  and  C_6 
REMARK    3  A    between atoms: C_8  and  N_9 
REMARK       I    between atoms: N_9  and  C_10 
ROOT
HETATM    1  N   UNL     1     -42.407  55.491 -52.771  1.00  0.00    -0.321 N 
HETATM    2  C   UNL     1     -41.992  56.763 -53.131  1.00  0.00     0.256 C 
HETATM    3  O   UNL     1     -40.884  57.093 -53.535  1.00  0.00    -0.267 OA
HETATM    4  H   UNL     1     -43.399  55.374 -52.622  1.00  0.00     0.169 HD
ENDROOT
BRANCH   2   5
HETATM    5  C   UNL     1     -43.040  57.821 -53.050  1.00  0.00     0.034 A 
HETATM    6  C   UNL     1     -43.223  58.588 -51.891  1.00  0.00     0.046 A 
HETATM    7  C   UNL     1     -44.217  59.567 -51.836  1.00  0.00     0.035 A 
HETATM    8  C   UNL     1     -45.061  59.742 -52.940  1.00  0.00     0.029 A 
HETATM    9  C   UNL     1     -44.902  58.962 -54.088  1.00  0.00     0.003 A 
HETATM   10  C   UNL     1     -43.893  58.002 -54.145  1.00  0.00     0.017 A 
BRANCH   7  11
HETATM   11  N   UNL     1     -44.439  60.388 -50.710  1.00  0.00    -0.327 N 
HETATM   12  C   UNL     1     -45.364  60.183 -49.700  1.00  0.00     0.218 C 
HETATM   13  C   UNL     1     -45.366  61.285 -48.670  1.00  0.00     0.117 C 
HETATM   14  O   UNL     1     -46.108  59.215 -49.579  1.00  0.00    -0.274 OA
HETATM   15  H   UNL     1     -43.815  61.179 -50.608  1.00  0.00     0.169 HD
ENDBRANCH   7  11
ENDBRANCH   2   5
BRANCH   1  16
HETATM   16  C   UNL     1     -41.672  54.285 -52.920  1.00  0.00     0.065 A 
HETATM   17  C   UNL     1     -40.792  53.759 -51.961  1.00  0.00    -0.031 A 
HETATM   18  C   UNL     1     -40.614  54.295 -50.568  1.00  0.00     0.050 C 
HETATM   19  C   UNL     1     -40.052  52.609 -52.289  1.00  0.00     0.035 A 
HETATM   20  C   UNL     1     -40.254  51.974 -53.506  1.00  0.00     0.031 A 
HETATM   21  N   UNL     1     -41.162  52.409 -54.400  1.00  0.00    -0.256 NA
HETATM   22  C   UNL     1     -39.456  50.758 -53.868  1.00  0.00     0.070 C 
HETATM   23  C   UNL     1     -41.856  53.540 -54.106  1.00  0.00     0.058 A 
HETATM   24  C   UNL     1     -42.814  53.975 -55.182  1.00  0.00     0.073 C 
ENDBRANCH   1  16
TORSDOF 3
ENDMDL
MODEL 7
REMARK VINA RESULT:      -7.0      4.190      5.785
REMARK  3 active torsions:
REMARK  status: ('A' for Active; 'I' for Inactive)
REMARK    1  A    between atoms: C_3  and  N_4 
REMARK       I    between atoms: N_4  and  C_5 
REMARK    2  A    between atoms: C_5  and  C_6 
REMARK    3  A    between atoms: C_8  and  N_9 
REMARK       I    between atoms: N_9  and  C_10 
ROOT
HETATM    1  N   UNL     1     -42.510  55.554 -54.089  1.00  0.00    -0.321 N 
HETATM    2  C   UNL     1     -42.045  56.819 -54.407  1.00  0.00     0.256 C 
HETATM    3  O   UNL     1     -41.235  57.489 -53.780  1.00  0.00    -0.267 OA
HETATM    4  H   UNL     1     -43.047  55.085 -54.806  1.00  0.00     0.169 HD
ENDROOT
BRANCH   2   5
HETATM    5  C   UNL     1     -42.571  57.388 -55.682  1.00  0.00     0.034 A 
HETATM    6  C   UNL     1     -43.220  56.587 -56.633  1.00  0.00     0.046 A 
HETATM    7  C   UNL     1     -43.695  57.141 -57.823  1.00  0.00     0.035 A 
HETATM    8  C   UNL     1     -43.474  58.501 -58.076  1.00  0.00     0.029 A 
HETATM    9  C   UNL     1     -42.804  59.298 -57.146  1.00  0.00     0.003 A 
HETATM   10  C   UNL     1     -42.351  58.744 -55.950  1.00  0.00     0.017 A 
BRANCH   7  11
HETATM   11  N   UNL     1     -44.376  56.396 -58.810  1.00  0.00    -0.327 N 
HETATM   12  C   UNL     1     -43.852  55.914 -59.997  1.00  0.00     0.218 C 
HETATM   13  C   UNL     1     -44.874  55.196 -60.844  1.00  0.00     0.117 C 
HETATM   14  O   UNL     1     -42.685  55.997 -60.366  1.00  0.00    -0.274 OA
HETATM   15  H   UNL     1     -45.333  56.146 -58.595  1.00  0.00     0.169 HD
ENDBRANCH   7  11
ENDBRANCH   2   5
BRANCH   1  16
HETATM   16  C   UNL     1     -42.047  54.719 -53.038  1.00  0.00     0.065 A 
HETATM   17  C   UNL     1     -42.481  54.792 -51.705  1.00  0.00    -0.031 A 
HETATM   18  C   UNL     1     -43.616  55.645 -51.214  1.00  0.00     0.050 C 
HETATM   19  C   UNL     1     -41.856  53.971 -50.750  1.00  0.00     0.035 A 
HETATM   20  C   UNL     1     -40.888  53.057 -51.143  1.00  0.00     0.031 A 
HETATM   21  N   UNL     1     -40.525  52.905 -52.431  1.00  0.00    -0.256 NA
HETATM   22  C   UNL     1     -40.207  52.191 -50.128  1.00  0.00     0.070 C 
HETATM   23  C   UNL     1     -41.099  53.721 -53.355  1.00  0.00     0.058 A 
HETATM   24  C   UNL     1     -40.599  53.511 -54.760  1.00  0.00     0.073 C 
ENDBRANCH   1  16
TORSDOF 3
ENDMDL
MODEL 8
REMARK VINA RESULT:      -7.0      1.943      2.409
REMARK  3 active torsions:
REMARK  status: ('A' for Active; 'I' for Inactive)
REMARK    1  A    between atoms: C_3  and  N_4 
REMARK       I    between atoms: N_4  and  C_5 
REMARK    2  A    between atoms: C_5  and  C_6 
REMARK    3  A    between atoms: C_8  and  N_9 
REMARK       I    between atoms: N_9  and  C_10 
ROOT
HETATM    1  N   UNL     1     -42.211  55.219 -52.186  1.00  0.00    -0.321 N 
HETATM    2  C   UNL     1     -41.909  56.553 -52.407  1.00  0.00     0.256 C 
HETATM    3  O   UNL     1     -40.947  57.002 -53.017  1.00  0.00    -0.267 OA
HETATM    4  H   UNL     1     -43.130  55.029 -51.810  1.00  0.00     0.169 HD
ENDROOT
BRANCH   2   5
HETATM    5  C   UNL     1     -42.903  57.528 -51.872  1.00  0.00     0.034 A 
HETATM    6  C   UNL     1     -42.516  58.790 -51.401  1.00  0.00     0.046 A 
HETATM    7  C   UNL     1     -43.463  59.683 -50.896  1.00  0.00     0.035 A 
HETATM    8  C   UNL     1     -44.803  59.282 -50.825  1.00  0.00     0.029 A 
HETATM    9  C   UNL     1     -45.192  58.015 -51.266  1.00  0.00     0.003 A 
HETATM   10  C   UNL     1     -44.245  57.137 -51.790  1.00  0.00     0.017 A 
BRANCH   7  11
HETATM   11  N   UNL     1     -43.143  60.974 -50.428  1.00  0.00    -0.327 N 
HETATM   12  C   UNL     1     -43.224  62.160 -51.138  1.00  0.00     0.218 C 
HETATM   13  C   UNL     1     -42.758  63.355 -50.343  1.00  0.00     0.117 C 
HETATM   14  O   UNL     1     -43.651  62.299 -52.279  1.00  0.00    -0.274 OA
HETATM   15  H   UNL     1     -42.878  61.040 -49.453  1.00  0.00     0.169 HD
ENDBRANCH   7  11
ENDBRANCH   2   5
BRANCH   1  16
HETATM   16  C   UNL     1     -41.537  54.095 -52.731  1.00  0.00     0.065 A 
HETATM   17  C   UNL     1     -41.752  53.576 -54.018  1.00  0.00    -0.031 A 
HETATM   18  C   UNL     1     -42.603  54.223 -55.076  1.00  0.00     0.050 C 
HETATM   19  C   UNL     1     -41.088  52.393 -54.385  1.00  0.00     0.035 A 
HETATM   20  C   UNL     1     -40.181  51.804 -53.514  1.00  0.00     0.031 A 
HETATM   21  N   UNL     1     -39.889  52.339 -52.313  1.00  0.00    -0.256 NA
HETATM   22  C   UNL     1     -39.482  50.534 -53.893  1.00  0.00     0.070 C 
HETATM   23  C   UNL     1     -40.555  53.463 -51.936  1.00  0.00     0.058 A 
HETATM   24  C   UNL     1     -40.197  53.961 -50.562  1.00  0.00     0.073 C 
ENDBRANCH   1  16
TORSDOF 3
ENDMDL
MODEL 9
REMARK VINA RESULT:      -7.0      2.776      3.024
REMARK  3 active torsions:
REMARK  status: ('A' for Active; 'I' for Inactive)
REMARK    1  A    between atoms: C_3  and  N_4 
REMARK       I    between atoms: N_4  and  C_5 
REMARK    2  A    between atoms: C_5  and  C_6 
REMARK    3  A    between atoms: C_8  and  N_9 
REMARK       I    between atoms: N_9  and  C_10 
ROOT
HETATM    1  N   UNL     1     -41.817  55.124 -52.826  1.00  0.00    -0.321 N 
HETATM    2  C   UNL     1     -43.047  55.213 -53.456  1.00  0.00     0.256 C 
HETATM    3  O   UNL     1     -43.697  54.296 -53.943  1.00  0.00    -0.267 OA
HETATM    4  H   UNL     1     -41.508  55.953 -52.337  1.00  0.00     0.169 HD
ENDROOT
BRANCH   2   5
HETATM    5  C   UNL     1     -43.645  56.579 -53.493  1.00  0.00     0.034 A 
HETATM    6  C   UNL     1     -44.480  56.988 -54.543  1.00  0.00     0.046 A 
HETATM    7  C   UNL     1     -45.021  58.275 -54.561  1.00  0.00     0.035 A 
HETATM    8  C   UNL     1     -44.682  59.169 -53.537  1.00  0.00     0.029 A 
HETATM    9  C   UNL     1     -43.829  58.777 -52.503  1.00  0.00     0.003 A 
HETATM   10  C   UNL     1     -43.310  57.484 -52.479  1.00  0.00     0.017 A 
BRANCH   7  11
HETATM   11  N   UNL     1     -45.884  58.741 -55.575  1.00  0.00    -0.327 N 
HETATM   12  C   UNL     1     -45.525  59.418 -56.728  1.00  0.00     0.218 C 
HETATM   13  C   UNL     1     -46.710  59.812 -57.574  1.00  0.00     0.117 C 
HETATM   14  O   UNL     1     -44.383  59.672 -57.098  1.00  0.00    -0.274 OA
HETATM   15  H   UNL     1     -46.863  58.506 -55.467  1.00  0.00     0.169 HD
ENDBRANCH   7  11
ENDBRANCH   2   5
BRANCH   1  16
HETATM   16  C   UNL     1     -41.115  53.933 -52.499  1.00  0.00     0.065 A 
HETATM   17  C   UNL     1     -40.430  53.127 -53.423  1.00  0.00    -0.031 A 
HETATM   18  C   UNL     1     -40.192  53.480 -54.864  1.00  0.00     0.050 C 
HETATM   19  C   UNL     1     -39.869  51.920 -52.973  1.00  0.00     0.035 A 
HETATM   20  C   UNL     1     -39.929  51.582 -51.628  1.00  0.00     0.031 A 
HETATM   21  N   UNL     1     -40.498  52.387 -50.711  1.00  0.00    -0.256 NA
HETATM   22  C   UNL     1     -39.346  50.288 -51.145  1.00  0.00     0.070 C 
HETATM   23  C   UNL     1     -41.075  53.539 -51.143  1.00  0.00     0.058 A 
HETATM   24  C   UNL     1     -41.726  54.351 -50.056  1.00  0.00     0.073 C 
ENDBRANCH   1  16
TORSDOF 3
ENDMDL
MODEL 10
REMARK VINA RESULT:      -6.9      4.106      5.714
REMARK  3 active torsions:
REMARK  status: ('A' for Active; 'I' for Inactive)
REMARK    1  A    between atoms: C_3  and  N_4 
REMARK       I    between atoms: N_4  and  C_5 
REMARK    2  A    between atoms: C_5  and  C_6 
REMARK    3  A    between atoms: C_8  and  N_9 
REMARK       I    between atoms: N_9  and  C_10 
ROOT
HETATM    1  N   UNL     1     -41.439  55.531 -55.070  1.00  0.00    -0.321 N 
HETATM    2  C   UNL     1     -42.523  55.175 -55.855  1.00  0.00     0.256 C 
HETATM    3  O   UNL     1     -43.368  54.324 -55.606  1.00  0.00    -0.267 OA
HETATM    4  H   UNL     1     -40.944  56.367 -55.350  1.00  0.00     0.169 HD
ENDROOT
BRANCH   2   5
HETATM    5  C   UNL     1     -42.683  55.960 -57.113  1.00  0.00     0.034 A 
HETATM    6  C   UNL     1     -42.251  57.290 -57.211  1.00  0.00     0.046 A 
HETATM    7  C   UNL     1     -42.420  58.007 -58.397  1.00  0.00     0.035 A 
HETATM    8  C   UNL     1     -43.070  57.394 -59.475  1.00  0.00     0.029 A 
HETATM    9  C   UNL     1     -43.528  56.078 -59.375  1.00  0.00     0.003 A 
HETATM   10  C   UNL     1     -43.336  55.360 -58.196  1.00  0.00     0.017 A 
BRANCH   7  11
HETATM   11  N   UNL     1     -41.987  59.339 -58.568  1.00  0.00    -0.327 N 
HETATM   12  C   UNL     1     -41.676  60.248 -57.571  1.00  0.00     0.218 C 
HETATM   13  C   UNL     1     -41.291  61.604 -58.109  1.00  0.00     0.117 C 
HETATM   14  O   UNL     1     -41.662  60.029 -56.364  1.00  0.00    -0.274 OA
HETATM   15  H   UNL     1     -41.839  59.638 -59.524  1.00  0.00     0.169 HD
ENDBRANCH   7  11
ENDBRANCH   2   5
BRANCH   1  16
HETATM   16  C   UNL     1     -41.154  55.073 -53.756  1.00  0.00     0.065 A 
HETATM   17  C   UNL     1     -40.655  53.799 -53.442  1.00  0.00    -0.031 A 
HETATM   18  C   UNL     1     -40.189  52.784 -54.448  1.00  0.00     0.050 C 
HETATM   19  C   UNL     1     -40.521  53.446 -52.088  1.00  0.00     0.035 A 
HETATM   20  C   UNL     1     -40.804  54.374 -51.095  1.00  0.00     0.031 A 
HETATM   21  N   UNL     1     -41.193  55.631 -51.378  1.00  0.00    -0.256 NA
HETATM   22  C   UNL     1     -40.679  53.999 -49.649  1.00  0.00     0.070 C 
HETATM   23  C   UNL     1     -41.361  55.969 -52.684  1.00  0.00     0.058 A 
HETATM   24  C   UNL     1     -41.840  57.379 -52.902  1.00  0.00     0.073 C 
ENDBRANCH   1  16
TORSDOF 3
ENDMDL
