MODEL 1
REMARK VINA RESULT:      -7.6      0.000      0.000
REMARK  6 active torsions:
REMARK  status: ('A' for Active; 'I' for Inactive)
REMARK    1  A    between atoms: C_2  and  O_3 
REMARK    2  A    between atoms: O_3  and  C_4 
REMARK    3  A    between atoms: C_7  and  N_8 
REMARK    4  A    between atoms: N_8  and  C_9 
REMARK    5  A    between atoms: C_9  and  C_10 
REMARK    6  A    between atoms: C_17  and  O_18 
ROOT
HETATM    1  C   UNL     1     -43.161  56.770 -56.829  1.00  0.00     0.024 A 
HETATM    2  C   UNL     1     -44.344  57.685 -56.750  1.00  0.00     0.253 A 
HETATM    3  O   UNL     1     -44.498  58.457 -55.808  1.00  0.00    -0.268 OA
HETATM    4  N   UNL     1     -45.253  57.625 -57.772  1.00  0.00    -0.322 N 
HETATM    5  C   UNL     1     -45.150  56.746 -58.854  1.00  0.00     0.048 A 
HETATM    6  C   UNL     1     -44.058  55.877 -58.924  1.00  0.00    -0.009 A 
HETATM    7  C   UNL     1     -46.132  56.735 -59.843  1.00  0.00     0.067 A 
HETATM    8  C   UNL     1     -46.037  55.844 -60.916  1.00  0.00     0.070 A 
HETATM    9  C   UNL     1     -44.947  54.972 -60.989  1.00  0.00     0.038 A 
HETATM   10  C   UNL     1     -43.959  54.989 -59.997  1.00  0.00     0.016 A 
HETATM   11  C   UNL     1     -43.048  55.919 -57.866  1.00  0.00     0.027 A 
HETATM   12  H   UNL     1     -46.043  58.252 -57.699  1.00  0.00     0.169 HD
ENDROOT
BRANCH   1  13
HETATM   13  C   UNL     1     -42.199  56.893 -55.675  1.00  0.00     0.136 C 
BRANCH  13  14
HETATM   14  N   UNL     1     -42.606  56.016 -54.572  1.00  0.00    -0.289 NA
HETATM   15  H   UNL     1     -43.585  55.755 -54.660  1.00  0.00     0.128 HD
BRANCH  14  16
HETATM   16  C   UNL     1     -41.826  54.884 -54.286  1.00  0.00     0.008 A 
HETATM   17  C   UNL     1     -40.899  54.334 -55.173  1.00  0.00     0.026 A 
HETATM   18  C   UNL     1     -40.089  53.255 -54.795  1.00  0.00     0.038 A 
HETATM   19  C   UNL     1     -40.165  52.719 -53.511  1.00  0.00     0.068 A 
HETATM   20  C   UNL     1     -41.054  53.282 -52.601  1.00  0.00     0.038 A 
HETATM   21  C   UNL     1     -41.861  54.363 -52.984  1.00  0.00     0.026 A 
BRANCH  19  22
HETATM   22  O   UNL     1     -39.317  51.674 -53.273  1.00  0.00    -0.352 OA
BRANCH  22  23
HETATM   23  C   UNL     1     -39.891  50.371 -53.220  1.00  0.00     0.171 C 
HETATM   24  C   UNL     1     -39.831  49.775 -54.615  1.00  0.00     0.034 C 
ENDBRANCH  22  23
ENDBRANCH  19  22
ENDBRANCH  14  16
ENDBRANCH  13  14
ENDBRANCH   1  13
BRANCH   8  25
HETATM   25  O   UNL     1     -47.063  55.925 -61.816  1.00  0.00    -0.356 OA
HETATM   26  C   UNL     1     -48.016  56.962 -61.617  1.00  0.00     0.210 C 
ENDBRANCH   8  25
TORSDOF 6
ENDMDL
MODEL 2
REMARK VINA RESULT:      -7.6      1.619      8.586
REMARK  6 active torsions:
REMARK  status: ('A' for Active; 'I' for Inactive)
REMARK    1  A    between atoms: C_2  and  O_3 
REMARK    2  A    between atoms: O_3  and  C_4 
REMARK    3  A    between atoms: C_7  and  N_8 
REMARK    4  A    between atoms: N_8  and  C_9 
REMARK    5  A    between atoms: C_9  and  C_10 
REMARK    6  A    between atoms: C_17  and  O_18 
ROOT
HETATM    1  C   UNL     1     -41.874  55.488 -54.688  1.00  0.00     0.024 A 
HETATM    2  C   UNL     1     -41.757  55.880 -53.248  1.00  0.00     0.253 A 
HETATM    3  O   UNL     1     -42.142  56.974 -52.845  1.00  0.00    -0.268 OA
HETATM    4  N   UNL     1     -41.200  54.968 -52.392  1.00  0.00    -0.322 N 
HETATM    5  C   UNL     1     -40.715  53.720 -52.794  1.00  0.00     0.048 A 
HETATM    6  C   UNL     1     -40.803  53.356 -54.140  1.00  0.00    -0.009 A 
HETATM    7  C   UNL     1     -40.141  52.858 -51.860  1.00  0.00     0.067 A 
HETATM    8  C   UNL     1     -39.641  51.618 -52.266  1.00  0.00     0.070 A 
HETATM    9  C   UNL     1     -39.727  51.250 -53.611  1.00  0.00     0.038 A 
HETATM   10  C   UNL     1     -40.308  52.116 -54.546  1.00  0.00     0.016 A 
HETATM   11  C   UNL     1     -41.411  54.289 -55.088  1.00  0.00     0.027 A 
HETATM   12  H   UNL     1     -41.132  55.253 -51.423  1.00  0.00     0.169 HD
ENDROOT
BRANCH   1  13
HETATM   13  C   UNL     1     -42.501  56.537 -55.571  1.00  0.00     0.136 C 
BRANCH  13  14
HETATM   14  N   UNL     1     -42.147  56.305 -56.975  1.00  0.00    -0.289 NA
HETATM   15  H   UNL     1     -41.511  55.515 -57.062  1.00  0.00     0.128 HD
BRANCH  14  16
HETATM   16  C   UNL     1     -43.175  56.207 -57.924  1.00  0.00     0.008 A 
HETATM   17  C   UNL     1     -43.937  57.293 -58.362  1.00  0.00     0.026 A 
HETATM   18  C   UNL     1     -44.892  57.144 -59.376  1.00  0.00     0.038 A 
HETATM   19  C   UNL     1     -45.089  55.913 -59.999  1.00  0.00     0.068 A 
HETATM   20  C   UNL     1     -44.310  54.830 -59.603  1.00  0.00     0.038 A 
HETATM   21  C   UNL     1     -43.354  54.985 -58.589  1.00  0.00     0.026 A 
BRANCH  19  22
HETATM   22  O   UNL     1     -46.046  55.909 -60.974  1.00  0.00    -0.352 OA
BRANCH  22  23
HETATM   23  C   UNL     1     -47.351  56.347 -60.604  1.00  0.00     0.171 C 
HETATM   24  C   UNL     1     -48.103  56.700 -61.874  1.00  0.00     0.034 C 
ENDBRANCH  22  23
ENDBRANCH  19  22
ENDBRANCH  14  16
ENDBRANCH  13  14
ENDBRANCH   1  13
BRANCH   8  25
HETATM   25  O   UNL     1     -39.099  50.866 -51.260  1.00  0.00    -0.356 OA
HETATM   26  C   UNL     1     -39.775  49.663 -50.917  1.00  0.00     0.210 C 
ENDBRANCH   8  25
TORSDOF 6
ENDMDL
MODEL 3
REMARK VINA RESULT:      -7.4      2.579      8.559
REMARK  6 active torsions:
REMARK  status: ('A' for Active; 'I' for Inactive)
REMARK    1  A    between atoms: C_2  and  O_3 
REMARK    2  A    between atoms: O_3  and  C_4 
REMARK    3  A    between atoms: C_7  and  N_8 
REMARK    4  A    between atoms: N_8  and  C_9 
REMARK    5  A    between atoms: C_9  and  C_10 
REMARK    6  A    between atoms: C_17  and  O_18 
ROOT
HETATM    1  C   UNL     1     -42.330  55.211 -54.173  1.00  0.00     0.024 A 
HETATM    2  C   UNL     1     -42.127  55.473 -52.713  1.00  0.00     0.253 A 
HETATM    3  O   UNL     1     -42.563  56.486 -52.175  1.00  0.00    -0.268 OA
HETATM    4  N   UNL     1     -41.430  54.536 -51.997  1.00  0.00    -0.322 N 
HETATM    5  C   UNL     1     -40.882  53.379 -52.558  1.00  0.00     0.048 A 
HETATM    6  C   UNL     1     -41.052  53.138 -53.924  1.00  0.00    -0.009 A 
HETATM    7  C   UNL     1     -40.167  52.486 -51.761  1.00  0.00     0.067 A 
HETATM    8  C   UNL     1     -39.605  51.338 -52.326  1.00  0.00     0.070 A 
HETATM    9  C   UNL     1     -39.771  51.093 -53.692  1.00  0.00     0.038 A 
HETATM   10  C   UNL     1     -40.494  51.990 -54.489  1.00  0.00     0.016 A 
HETATM   11  C   UNL     1     -41.808  54.099 -54.726  1.00  0.00     0.027 A 
HETATM   12  H   UNL     1     -41.306  54.733 -51.013  1.00  0.00     0.169 HD
ENDROOT
BRANCH   1  13
HETATM   13  C   UNL     1     -43.109  56.279 -54.896  1.00  0.00     0.136 C 
BRANCH  13  14
HETATM   14  N   UNL     1     -43.539  55.798 -56.214  1.00  0.00    -0.289 NA
HETATM   15  H   UNL     1     -44.546  55.650 -56.233  1.00  0.00     0.128 HD
BRANCH  14  16
HETATM   16  C   UNL     1     -43.130  56.501 -57.357  1.00  0.00     0.008 A 
HETATM   17  C   UNL     1     -42.467  57.730 -57.318  1.00  0.00     0.026 A 
HETATM   18  C   UNL     1     -42.008  58.340 -58.493  1.00  0.00     0.038 A 
HETATM   19  C   UNL     1     -42.173  57.723 -59.732  1.00  0.00     0.068 A 
HETATM   20  C   UNL     1     -42.796  56.480 -59.784  1.00  0.00     0.038 A 
HETATM   21  C   UNL     1     -43.252  55.873 -58.605  1.00  0.00     0.026 A 
BRANCH  19  22
HETATM   22  O   UNL     1     -41.674  58.424 -60.794  1.00  0.00    -0.352 OA
BRANCH  22  23
HETATM   23  C   UNL     1     -41.924  59.828 -60.820  1.00  0.00     0.171 C 
HETATM   24  C   UNL     1     -43.338  60.041 -61.331  1.00  0.00     0.034 C 
ENDBRANCH  22  23
ENDBRANCH  19  22
ENDBRANCH  14  16
ENDBRANCH  13  14
ENDBRANCH   1  13
BRANCH   8  25
HETATM   25  O   UNL     1     -38.924  50.544 -51.445  1.00  0.00    -0.356 OA
HETATM   26  C   UNL     1     -39.698  49.680 -50.623  1.00  0.00     0.210 C 
ENDBRANCH   8  25
TORSDOF 6
ENDMDL
MODEL 4
REMARK VINA RESULT:      -7.1      5.815      9.307
REMARK  6 active torsions:
REMARK  status: ('A' for Active; 'I' for Inactive)
REMARK    1  A    between atoms: C_2  and  O_3 
REMARK    2  A    between atoms: O_3  and  C_4 
REMARK    3  A    between atoms: C_7  and  N_8 
REMARK    4  A    between atoms: N_8  and  C_9 
REMARK    5  A    between atoms: C_9  and  C_10 
REMARK    6  A    between atoms: C_17  and  O_18 
ROOT
HETATM    1  C   UNL     1     -41.363  56.255 -52.479  1.00  0.00     0.024 A 
HETATM    2  C   UNL     1     -41.189  55.793 -51.065  1.00  0.00     0.253 A 
HETATM    3  O   UNL     1     -41.393  56.542 -50.114  1.00  0.00    -0.268 OA
HETATM    4  N   UNL     1     -40.791  54.497 -50.872  1.00  0.00    -0.322 N 
HETATM    5  C   UNL     1     -40.513  53.606 -51.913  1.00  0.00     0.048 A 
HETATM    6  C   UNL     1     -40.656  54.037 -53.235  1.00  0.00    -0.009 A 
HETATM    7  C   UNL     1     -40.091  52.308 -51.629  1.00  0.00     0.067 A 
HETATM    8  C   UNL     1     -39.798  51.423 -52.670  1.00  0.00     0.070 A 
HETATM    9  C   UNL     1     -39.938  51.849 -53.994  1.00  0.00     0.038 A 
HETATM   10  C   UNL     1     -40.367  53.153 -54.276  1.00  0.00     0.016 A 
HETATM   11  C   UNL     1     -41.101  55.407 -53.491  1.00  0.00     0.027 A 
HETATM   12  H   UNL     1     -40.681  54.206 -49.910  1.00  0.00     0.169 HD
ENDROOT
BRANCH   1  13
HETATM   13  C   UNL     1     -41.809  57.688 -52.616  1.00  0.00     0.136 C 
BRANCH  13  14
HETATM   14  N   UNL     1     -43.265  57.790 -52.464  1.00  0.00    -0.289 NA
HETATM   15  H   UNL     1     -43.678  56.871 -52.319  1.00  0.00     0.128 HD
BRANCH  14  16
HETATM   16  C   UNL     1     -43.784  58.707 -51.538  1.00  0.00     0.008 A 
HETATM   17  C   UNL     1     -43.089  59.829 -51.080  1.00  0.00     0.026 A 
HETATM   18  C   UNL     1     -43.696  60.754 -50.221  1.00  0.00     0.038 A 
HETATM   19  C   UNL     1     -45.023  60.597 -49.822  1.00  0.00     0.068 A 
HETATM   20  C   UNL     1     -45.742  59.507 -50.301  1.00  0.00     0.038 A 
HETATM   21  C   UNL     1     -45.130  58.586 -51.163  1.00  0.00     0.026 A 
BRANCH  19  22
HETATM   22  O   UNL     1     -45.491  61.573 -48.988  1.00  0.00    -0.352 OA
BRANCH  22  23
HETATM   23  C   UNL     1     -44.839  61.719 -47.729  1.00  0.00     0.171 C 
HETATM   24  C   UNL     1     -45.476  60.741 -46.757  1.00  0.00     0.034 C 
ENDBRANCH  22  23
ENDBRANCH  19  22
ENDBRANCH  14  16
ENDBRANCH  13  14
ENDBRANCH   1  13
BRANCH   8  25
HETATM   25  O   UNL     1     -39.388  50.183 -52.265  1.00  0.00    -0.356 OA
HETATM   26  C   UNL     1     -39.579  49.856 -50.894  1.00  0.00     0.210 C 
ENDBRANCH   8  25
TORSDOF 6
ENDMDL
MODEL 5
REMARK VINA RESULT:      -7.0     14.692     18.952
REMARK  6 active torsions:
REMARK  status: ('A' for Active; 'I' for Inactive)
REMARK    1  A    between atoms: C_2  and  O_3 
REMARK    2  A    between atoms: O_3  and  C_4 
REMARK    3  A    between atoms: C_7  and  N_8 
REMARK    4  A    between atoms: N_8  and  C_9 
REMARK    5  A    between atoms: C_9  and  C_10 
REMARK    6  A    between atoms: C_17  and  O_18 
ROOT
HETATM    1  C   UNL     1     -36.288  40.614 -51.548  1.00  0.00     0.024 A 
HETATM    2  C   UNL     1     -36.817  39.469 -50.740  1.00  0.00     0.253 A 
HETATM    3  O   UNL     1     -38.000  39.145 -50.782  1.00  0.00    -0.268 OA
HETATM    4  N   UNL     1     -35.927  38.796 -49.947  1.00  0.00    -0.322 N 
HETATM    5  C   UNL     1     -34.576  39.136 -49.832  1.00  0.00     0.048 A 
HETATM    6  C   UNL     1     -34.080  40.215 -50.569  1.00  0.00    -0.009 A 
HETATM    7  C   UNL     1     -33.741  38.410 -48.984  1.00  0.00     0.067 A 
HETATM    8  C   UNL     1     -32.394  38.761 -48.858  1.00  0.00     0.070 A 
HETATM    9  C   UNL     1     -31.894  39.840 -49.592  1.00  0.00     0.038 A 
HETATM   10  C   UNL     1     -32.734  40.565 -50.447  1.00  0.00     0.016 A 
HETATM   11  C   UNL     1     -34.989  40.951 -51.448  1.00  0.00     0.027 A 
HETATM   12  H   UNL     1     -36.305  38.026 -49.411  1.00  0.00     0.169 HD
ENDROOT
BRANCH   1  13
HETATM   13  C   UNL     1     -37.320  41.304 -52.401  1.00  0.00     0.136 C 
BRANCH  13  14
HETATM   14  N   UNL     1     -36.687  42.309 -53.263  1.00  0.00    -0.289 NA
HETATM   15  H   UNL     1     -35.788  42.597 -52.881  1.00  0.00     0.128 HD
BRANCH  14  16
HETATM   16  C   UNL     1     -36.567  42.043 -54.635  1.00  0.00     0.008 A 
HETATM   17  C   UNL     1     -37.642  41.697 -55.457  1.00  0.00     0.026 A 
HETATM   18  C   UNL     1     -37.472  41.528 -56.838  1.00  0.00     0.038 A 
HETATM   19  C   UNL     1     -36.229  41.731 -57.435  1.00  0.00     0.068 A 
HETATM   20  C   UNL     1     -35.156  42.115 -56.637  1.00  0.00     0.038 A 
HETATM   21  C   UNL     1     -35.333  42.284 -55.256  1.00  0.00     0.026 A 
BRANCH  19  22
HETATM   22  O   UNL     1     -36.203  41.538 -58.788  1.00  0.00    -0.352 OA
BRANCH  22  23
HETATM   23  C   UNL     1     -37.448  41.619 -59.478  1.00  0.00     0.171 C 
HETATM   24  C   UNL     1     -37.398  42.832 -60.391  1.00  0.00     0.034 C 
ENDBRANCH  22  23
ENDBRANCH  19  22
ENDBRANCH  14  16
ENDBRANCH  13  14
ENDBRANCH   1  13
BRANCH   8  25
HETATM   25  O   UNL     1     -31.680  37.979 -47.992  1.00  0.00    -0.356 OA
HETATM   26  C   UNL     1     -32.424  37.163 -47.096  1.00  0.00     0.210 C 
ENDBRANCH   8  25
TORSDOF 6
ENDMDL
MODEL 6
REMARK VINA RESULT:      -6.9     15.141     17.278
REMARK  6 active torsions:
REMARK  status: ('A' for Active; 'I' for Inactive)
REMARK    1  A    between atoms: C_2  and  O_3 
REMARK    2  A    between atoms: O_3  and  C_4 
REMARK    3  A    between atoms: C_7  and  N_8 
REMARK    4  A    between atoms: N_8  and  C_9 
REMARK    5  A    between atoms: C_9  and  C_10 
REMARK    6  A    between atoms: C_17  and  O_18 
ROOT
HETATM    1  C   UNL     1     -36.200  41.400 -52.560  1.00  0.00     0.024 A 
HETATM    2  C   UNL     1     -37.628  41.133 -52.926  1.00  0.00     0.253 A 
HETATM    3  O   UNL     1     -38.455  40.796 -52.085  1.00  0.00    -0.268 OA
HETATM    4  N   UNL     1     -37.977  41.279 -54.242  1.00  0.00    -0.322 N 
HETATM    5  C   UNL     1     -37.074  41.629 -55.251  1.00  0.00     0.048 A 
HETATM    6  C   UNL     1     -35.737  41.860 -54.919  1.00  0.00    -0.009 A 
HETATM    7  C   UNL     1     -37.508  41.734 -56.572  1.00  0.00     0.067 A 
HETATM    8  C   UNL     1     -36.602  42.068 -57.583  1.00  0.00     0.070 A 
HETATM    9  C   UNL     1     -35.264  42.300 -57.256  1.00  0.00     0.038 A 
HETATM   10  C   UNL     1     -34.832  42.197 -55.927  1.00  0.00     0.016 A 
HETATM   11  C   UNL     1     -35.322  41.739 -53.522  1.00  0.00     0.027 A 
HETATM   12  H   UNL     1     -38.946  41.095 -54.467  1.00  0.00     0.169 HD
ENDROOT
BRANCH   1  13
HETATM   13  C   UNL     1     -35.889  41.227 -51.096  1.00  0.00     0.136 C 
BRANCH  13  14
HETATM   14  N   UNL     1     -35.561  39.828 -50.802  1.00  0.00    -0.289 NA
HETATM   15  H   UNL     1     -35.616  39.259 -51.645  1.00  0.00     0.128 HD
BRANCH  14  16
HETATM   16  C   UNL     1     -34.380  39.543 -50.101  1.00  0.00     0.008 A 
HETATM   17  C   UNL     1     -33.220  40.317 -50.185  1.00  0.00     0.026 A 
HETATM   18  C   UNL     1     -32.101  40.030 -49.392  1.00  0.00     0.038 A 
HETATM   19  C   UNL     1     -32.123  38.981 -48.475  1.00  0.00     0.068 A 
HETATM   20  C   UNL     1     -33.285  38.225 -48.350  1.00  0.00     0.038 A 
HETATM   21  C   UNL     1     -34.403  38.518 -49.144  1.00  0.00     0.026 A 
BRANCH  19  22
HETATM   22  O   UNL     1     -30.968  38.814 -47.765  1.00  0.00    -0.352 OA
BRANCH  22  23
HETATM   23  C   UNL     1     -30.973  39.250 -46.407  1.00  0.00     0.171 C 
HETATM   24  C   UNL     1     -29.999  40.408 -46.285  1.00  0.00     0.034 C 
ENDBRANCH  22  23
ENDBRANCH  19  22
ENDBRANCH  14  16
ENDBRANCH  13  14
ENDBRANCH   1  13
BRANCH   8  25
HETATM   25  O   UNL     1     -37.146  42.135 -58.836  1.00  0.00    -0.356 OA
HETATM   26  C   UNL     1     -37.505  40.903 -59.450  1.00  0.00     0.210 C 
ENDBRANCH   8  25
TORSDOF 6
ENDMDL
MODEL 7
REMARK VINA RESULT:      -6.8      2.281      8.897
REMARK  6 active torsions:
REMARK  status: ('A' for Active; 'I' for Inactive)
REMARK    1  A    between atoms: C_2  and  O_3 
REMARK    2  A    between atoms: O_3  and  C_4 
REMARK    3  A    between atoms: C_7  and  N_8 
REMARK    4  A    between atoms: N_8  and  C_9 
REMARK    5  A    between atoms: C_9  and  C_10 
REMARK    6  A    between atoms: C_17  and  O_18 
ROOT
HETATM    1  C   UNL     1     -42.527  54.459 -55.032  1.00  0.00     0.024 A 
HETATM    2  C   UNL     1     -43.276  55.177 -53.952  1.00  0.00     0.253 A 
HETATM    3  O   UNL     1     -44.158  55.990 -54.212  1.00  0.00    -0.268 OA
HETATM    4  N   UNL     1     -42.937  54.892 -52.656  1.00  0.00    -0.322 N 
HETATM    5  C   UNL     1     -41.922  54.001 -52.297  1.00  0.00     0.048 A 
HETATM    6  C   UNL     1     -41.206  53.342 -53.300  1.00  0.00    -0.009 A 
HETATM    7  C   UNL     1     -41.625  53.784 -50.952  1.00  0.00     0.067 A 
HETATM    8  C   UNL     1     -40.599  52.905 -50.594  1.00  0.00     0.070 A 
HETATM    9  C   UNL     1     -39.880  52.245 -51.594  1.00  0.00     0.038 A 
HETATM   10  C   UNL     1     -40.183  52.462 -52.944  1.00  0.00     0.016 A 
HETATM   11  C   UNL     1     -41.548  53.598 -54.699  1.00  0.00     0.027 A 
HETATM   12  H   UNL     1     -43.456  55.387 -51.943  1.00  0.00     0.169 HD
ENDROOT
BRANCH   1  13
HETATM   13  C   UNL     1     -42.956  54.816 -56.432  1.00  0.00     0.136 C 
BRANCH  13  14
HETATM   14  N   UNL     1     -42.368  56.097 -56.839  1.00  0.00    -0.289 NA
HETATM   15  H   UNL     1     -41.390  55.981 -57.093  1.00  0.00     0.128 HD
BRANCH  14  16
HETATM   16  C   UNL     1     -43.032  56.870 -57.804  1.00  0.00     0.008 A 
HETATM   17  C   UNL     1     -42.693  56.881 -59.159  1.00  0.00     0.026 A 
HETATM   18  C   UNL     1     -43.450  57.608 -60.087  1.00  0.00     0.038 A 
HETATM   19  C   UNL     1     -44.582  58.316 -59.689  1.00  0.00     0.068 A 
HETATM   20  C   UNL     1     -44.958  58.282 -58.350  1.00  0.00     0.038 A 
HETATM   21  C   UNL     1     -44.197  57.552 -57.426  1.00  0.00     0.026 A 
BRANCH  19  22
HETATM   22  O   UNL     1     -45.230  58.976 -60.695  1.00  0.00    -0.352 OA
BRANCH  22  23
HETATM   23  C   UNL     1     -46.543  59.457 -60.416  1.00  0.00     0.171 C 
HETATM   24  C   UNL     1     -47.537  58.488 -61.033  1.00  0.00     0.034 C 
ENDBRANCH  22  23
ENDBRANCH  19  22
ENDBRANCH  14  16
ENDBRANCH  13  14
ENDBRANCH   1  13
BRANCH   8  25
HETATM   25  O   UNL     1     -40.399  52.781 -49.246  1.00  0.00    -0.356 OA
HETATM   26  C   UNL     1     -40.564  53.954 -48.459  1.00  0.00     0.210 C 
ENDBRANCH   8  25
TORSDOF 6
ENDMDL
MODEL 8
REMARK VINA RESULT:      -6.8     15.019     18.673
REMARK  6 active torsions:
REMARK  status: ('A' for Active; 'I' for Inactive)
REMARK    1  A    between atoms: C_2  and  O_3 
REMARK    2  A    between atoms: O_3  and  C_4 
REMARK    3  A    between atoms: C_7  and  N_8 
REMARK    4  A    between atoms: N_8  and  C_9 
REMARK    5  A    between atoms: C_9  and  C_10 
REMARK    6  A    between atoms: C_17  and  O_18 
ROOT
HETATM    1  C   UNL     1     -34.930  41.520 -54.978  1.00  0.00     0.024 A 
HETATM    2  C   UNL     1     -34.911  40.722 -53.710  1.00  0.00     0.253 A 
HETATM    3  O   UNL     1     -35.756  40.884 -52.835  1.00  0.00    -0.268 OA
HETATM    4  N   UNL     1     -33.907  39.802 -53.563  1.00  0.00    -0.322 N 
HETATM    5  C   UNL     1     -32.899  39.593 -54.508  1.00  0.00     0.048 A 
HETATM    6  C   UNL     1     -32.901  40.347 -55.684  1.00  0.00    -0.009 A 
HETATM    7  C   UNL     1     -31.900  38.650 -54.269  1.00  0.00     0.067 A 
HETATM    8  C   UNL     1     -30.883  38.454 -55.207  1.00  0.00     0.070 A 
HETATM    9  C   UNL     1     -30.880  39.206 -56.385  1.00  0.00     0.038 A 
HETATM   10  C   UNL     1     -31.887  40.150 -56.623  1.00  0.00     0.016 A 
HETATM   11  C   UNL     1     -33.965  41.328 -55.896  1.00  0.00     0.027 A 
HETATM   12  H   UNL     1     -33.914  39.274 -52.700  1.00  0.00     0.169 HD
ENDROOT
BRANCH   1  13
HETATM   13  C   UNL     1     -36.064  42.508 -55.075  1.00  0.00     0.136 C 
BRANCH  13  14
HETATM   14  N   UNL     1     -37.301  41.831 -55.479  1.00  0.00    -0.289 NA
HETATM   15  H   UNL     1     -38.117  42.354 -55.166  1.00  0.00     0.128 HD
BRANCH  14  16
HETATM   16  C   UNL     1     -37.455  41.449 -56.820  1.00  0.00     0.008 A 
HETATM   17  C   UNL     1     -36.960  42.182 -57.900  1.00  0.00     0.026 A 
HETATM   18  C   UNL     1     -37.071  41.702 -59.212  1.00  0.00     0.038 A 
HETATM   19  C   UNL     1     -37.654  40.463 -59.473  1.00  0.00     0.068 A 
HETATM   20  C   UNL     1     -38.116  39.701 -58.405  1.00  0.00     0.038 A 
HETATM   21  C   UNL     1     -38.000  40.186 -57.094  1.00  0.00     0.026 A 
BRANCH  19  22
HETATM   22  O   UNL     1     -37.694  40.114 -60.794  1.00  0.00    -0.352 OA
BRANCH  22  23
HETATM   23  C   UNL     1     -37.405  38.755 -61.115  1.00  0.00     0.171 C 
HETATM   24  C   UNL     1     -35.897  38.581 -61.098  1.00  0.00     0.034 C 
ENDBRANCH  22  23
ENDBRANCH  19  22
ENDBRANCH  14  16
ENDBRANCH  13  14
ENDBRANCH   1  13
BRANCH   8  25
HETATM   25  O   UNL     1     -29.960  37.506 -54.857  1.00  0.00    -0.356 OA
HETATM   26  C   UNL     1     -28.826  37.367 -55.703  1.00  0.00     0.210 C 
ENDBRANCH   8  25
TORSDOF 6
ENDMDL
MODEL 9
REMARK VINA RESULT:      -6.8     15.206     18.532
REMARK  6 active torsions:
REMARK  status: ('A' for Active; 'I' for Inactive)
REMARK    1  A    between atoms: C_2  and  O_3 
REMARK    2  A    between atoms: O_3  and  C_4 
REMARK    3  A    between atoms: C_7  and  N_8 
REMARK    4  A    between atoms: N_8  and  C_9 
REMARK    5  A    between atoms: C_9  and  C_10 
REMARK    6  A    between atoms: C_17  and  O_18 
ROOT
HETATM    1  C   UNL     1     -35.491  41.760 -54.652  1.00  0.00     0.024 A 
HETATM    2  C   UNL     1     -34.220  41.245 -55.253  1.00  0.00     0.253 A 
HETATM    3  O   UNL     1     -34.024  41.274 -56.464  1.00  0.00    -0.268 OA
HETATM    4  N   UNL     1     -33.281  40.735 -54.396  1.00  0.00    -0.322 N 
HETATM    5  C   UNL     1     -33.459  40.645 -53.013  1.00  0.00     0.048 A 
HETATM    6  C   UNL     1     -34.651  41.106 -52.447  1.00  0.00    -0.009 A 
HETATM    7  C   UNL     1     -32.460  40.092 -52.213  1.00  0.00     0.067 A 
HETATM    8  C   UNL     1     -32.645  39.987 -50.832  1.00  0.00     0.070 A 
HETATM    9  C   UNL     1     -33.836  40.446 -50.262  1.00  0.00     0.038 A 
HETATM   10  C   UNL     1     -34.836  41.006 -51.068  1.00  0.00     0.016 A 
HETATM   11  C   UNL     1     -35.675  41.680 -53.321  1.00  0.00     0.027 A 
HETATM   12  H   UNL     1     -32.430  40.394 -54.824  1.00  0.00     0.169 HD
ENDROOT
BRANCH   1  13
HETATM   13  C   UNL     1     -36.475  42.311 -55.651  1.00  0.00     0.136 C 
BRANCH  13  14
HETATM   14  N   UNL     1     -37.435  41.276 -56.052  1.00  0.00    -0.289 NA
HETATM   15  H   UNL     1     -38.379  41.529 -55.767  1.00  0.00     0.128 HD
BRANCH  14  16
HETATM   16  C   UNL     1     -37.433  40.831 -57.383  1.00  0.00     0.008 A 
HETATM   17  C   UNL     1     -37.758  39.529 -57.769  1.00  0.00     0.026 A 
HETATM   18  C   UNL     1     -37.821  39.171 -59.121  1.00  0.00     0.038 A 
HETATM   19  C   UNL     1     -37.591  40.112 -60.123  1.00  0.00     0.068 A 
HETATM   20  C   UNL     1     -37.306  41.424 -59.756  1.00  0.00     0.038 A 
HETATM   21  C   UNL     1     -37.246  41.777 -58.401  1.00  0.00     0.026 A 
BRANCH  19  22
HETATM   22  O   UNL     1     -37.690  39.631 -61.398  1.00  0.00    -0.352 OA
BRANCH  22  23
HETATM   23  C   UNL     1     -37.994  38.247 -61.547  1.00  0.00     0.171 C 
HETATM   24  C   UNL     1     -39.241  38.132 -62.405  1.00  0.00     0.034 C 
ENDBRANCH  22  23
ENDBRANCH  19  22
ENDBRANCH  14  16
ENDBRANCH  13  14
ENDBRANCH   1  13
BRANCH   8  25
HETATM   25  O   UNL     1     -31.598  39.422 -50.158  1.00  0.00    -0.356 OA
HETATM   26  C   UNL     1     -31.532  39.654 -48.756  1.00  0.00     0.210 C 
ENDBRANCH   8  25
TORSDOF 6
ENDMDL
MODEL 10
REMARK VINA RESULT:      -6.7      2.963      8.688
REMARK  6 active torsions:
REMARK  status: ('A' for Active; 'I' for Inactive)
REMARK    1  A    between atoms: C_2  and  O_3 
REMARK    2  A    between atoms: O_3  and  C_4 
REMARK    3  A    between atoms: C_7  and  N_8 
REMARK    4  A    between atoms: N_8  and  C_9 
REMARK    5  A    between atoms: C_9  and  C_10 
REMARK    6  A    between atoms: C_17  and  O_18 
ROOT
HETATM    1  C   UNL     1     -43.156  55.742 -54.220  1.00  0.00     0.024 A 
HETATM    2  C   UNL     1     -43.585  56.354 -52.922  1.00  0.00     0.253 A 
HETATM    3  O   UNL     1     -44.365  57.301 -52.885  1.00  0.00    -0.268 OA
HETATM    4  N   UNL     1     -43.070  55.816 -51.773  1.00  0.00    -0.322 N 
HETATM    5  C   UNL     1     -42.155  54.760 -51.751  1.00  0.00     0.048 A 
HETATM    6  C   UNL     1     -41.736  54.197 -52.960  1.00  0.00    -0.009 A 
HETATM    7  C   UNL     1     -41.662  54.286 -50.537  1.00  0.00     0.067 A 
HETATM    8  C   UNL     1     -40.734  53.240 -50.517  1.00  0.00     0.070 A 
HETATM    9  C   UNL     1     -40.312  52.674 -51.722  1.00  0.00     0.038 A 
HETATM   10  C   UNL     1     -40.812  53.150 -52.941  1.00  0.00     0.016 A 
HETATM   11  C   UNL     1     -42.276  54.723 -54.213  1.00  0.00     0.027 A 
HETATM   12  H   UNL     1     -43.374  56.245 -50.908  1.00  0.00     0.169 HD
ENDROOT
BRANCH   1  13
HETATM   13  C   UNL     1     -43.766  56.379 -55.441  1.00  0.00     0.136 C 
BRANCH  13  14
HETATM   14  N   UNL     1     -43.325  55.685 -56.657  1.00  0.00    -0.289 NA
HETATM   15  H   UNL     1     -44.035  55.029 -56.975  1.00  0.00     0.128 HD
BRANCH  14  16
HETATM   16  C   UNL     1     -42.851  56.447 -57.735  1.00  0.00     0.008 A 
HETATM   17  C   UNL     1     -42.900  56.026 -59.066  1.00  0.00     0.026 A 
HETATM   18  C   UNL     1     -42.488  56.870 -60.106  1.00  0.00     0.038 A 
HETATM   19  C   UNL     1     -42.045  58.165 -59.844  1.00  0.00     0.068 A 
HETATM   20  C   UNL     1     -42.028  58.614 -58.528  1.00  0.00     0.038 A 
HETATM   21  C   UNL     1     -42.443  57.766 -57.491  1.00  0.00     0.026 A 
BRANCH  19  22
HETATM   22  O   UNL     1     -41.679  58.881 -60.949  1.00  0.00    -0.352 OA
BRANCH  22  23
HETATM   23  C   UNL     1     -42.435  60.054 -61.242  1.00  0.00     0.171 C 
HETATM   24  C   UNL     1     -41.496  61.245 -61.175  1.00  0.00     0.034 C 
ENDBRANCH  22  23
ENDBRANCH  19  22
ENDBRANCH  14  16
ENDBRANCH  13  14
ENDBRANCH   1  13
BRANCH   8  25
HETATM   25  O   UNL     1     -40.322  52.868 -49.267  1.00  0.00    -0.356 OA
HETATM   26  C   UNL     1     -40.465  53.829 -48.227  1.00  0.00     0.210 C 
ENDBRANCH   8  25
TORSDOF 6
ENDMDL
