MODEL 1
REMARK VINA RESULT:      -8.4      0.000      0.000
REMARK  6 active torsions:
REMARK  status: ('A' for Active; 'I' for Inactive)
REMARK    1  A    between atoms: C_4  and  N_5 
REMARK       I    between atoms: N_5  and  C_6 
REMARK    2  A    between atoms: C_6  and  C_7 
REMARK    3  A    between atoms: C_9  and  N_10 
REMARK       I    between atoms: N_10  and  C_11 
REMARK    4  A    between atoms: C_11  and  C_12 
REMARK    5  A    between atoms: C_12  and  O_13 
REMARK    6  A    between atoms: O_13  and  C_14 
ROOT
HETATM    1  C   UNL     1     -44.158  57.015 -53.717  1.00  0.00     0.034 A 
HETATM    2  C   UNL     1     -43.316  55.972 -53.313  1.00  0.00     0.046 A 
HETATM    3  C   UNL     1     -43.202  55.605 -51.973  1.00  0.00     0.035 A 
HETATM    4  C   UNL     1     -43.862  56.373 -51.010  1.00  0.00     0.029 A 
HETATM    5  C   UNL     1     -44.662  57.457 -51.397  1.00  0.00     0.003 A 
HETATM    6  C   UNL     1     -44.819  57.773 -52.750  1.00  0.00     0.017 A 
ENDROOT
BRANCH   3   7
HETATM    7  N   UNL     1     -42.435  54.493 -51.565  1.00  0.00    -0.325 N 
HETATM    8  C   UNL     1     -41.263  54.553 -50.825  1.00  0.00     0.246 C 
HETATM    9  O   UNL     1     -40.676  55.581 -50.488  1.00  0.00    -0.271 OA
HETATM   10  H   UNL     1     -42.673  53.581 -51.943  1.00  0.00     0.169 HD
BRANCH   8  11
HETATM   11  C   UNL     1     -40.733  53.195 -50.377  1.00  0.00     0.278 C 
BRANCH  11  12
HETATM   12  O   UNL     1     -39.533  52.811 -51.034  1.00  0.00    -0.342 OA
BRANCH  12  13
HETATM   13  C   UNL     1     -39.674  51.799 -51.953  1.00  0.00     0.069 A 
HETATM   14  C   UNL     1     -40.008  52.213 -53.244  1.00  0.00     0.037 A 
HETATM   15  C   UNL     1     -40.167  51.277 -54.269  1.00  0.00     0.003 A 
HETATM   16  C   UNL     1     -39.997  49.919 -54.006  1.00  0.00     0.000 A 
HETATM   17  C   UNL     1     -39.674  49.498 -52.719  1.00  0.00     0.003 A 
HETATM   18  C   UNL     1     -39.516  50.433 -51.693  1.00  0.00     0.037 A 
ENDBRANCH  12  13
ENDBRANCH  11  12
ENDBRANCH   8  11
ENDBRANCH   3   7
BRANCH   1  19
HETATM   19  C   UNL     1     -44.327  57.325 -55.173  1.00  0.00     0.257 C 
HETATM   20  N   UNL     1     -43.511  56.575 -55.994  1.00  0.00    -0.307 N 
HETATM   21  H   UNL     1     -42.996  55.812 -55.580  1.00  0.00     0.170 HD
HETATM   22  O   UNL     1     -45.153  58.170 -55.496  1.00  0.00    -0.267 OA
BRANCH  20  23
HETATM   23  C   UNL     1     -43.263  56.788 -57.354  1.00  0.00     0.130 A 
HETATM   24  C   UNL     1     -43.963  55.972 -58.245  1.00  0.00     0.057 A 
HETATM   25  C   UNL     1     -43.714  56.068 -59.616  1.00  0.00    -0.057 A 
HETATM   26  C   UNL     1     -44.450  55.200 -60.591  1.00  0.00     0.048 C 
HETATM   27  C   UNL     1     -42.797  57.021 -60.052  1.00  0.00     0.026 A 
HETATM   28  C   UNL     1     -42.154  57.797 -59.101  1.00  0.00     0.119 A 
HETATM   29  N   UNL     1     -42.363  57.691 -57.771  1.00  0.00    -0.243 NA
ENDBRANCH  20  23
ENDBRANCH   1  19
TORSDOF 6
ENDMDL
MODEL 2
REMARK VINA RESULT:      -8.3      2.130      7.734
REMARK  6 active torsions:
REMARK  status: ('A' for Active; 'I' for Inactive)
REMARK    1  A    between atoms: C_4  and  N_5 
REMARK       I    between atoms: N_5  and  C_6 
REMARK    2  A    between atoms: C_6  and  C_7 
REMARK    3  A    between atoms: C_9  and  N_10 
REMARK       I    between atoms: N_10  and  C_11 
REMARK    4  A    between atoms: C_11  and  C_12 
REMARK    5  A    between atoms: C_12  and  O_13 
REMARK    6  A    between atoms: O_13  and  C_14 
ROOT
HETATM    1  C   UNL     1     -41.321  55.647 -51.696  1.00  0.00     0.034 A 
HETATM    2  C   UNL     1     -41.465  56.284 -52.934  1.00  0.00     0.046 A 
HETATM    3  C   UNL     1     -41.302  57.663 -53.067  1.00  0.00     0.035 A 
HETATM    4  C   UNL     1     -41.100  58.428 -51.915  1.00  0.00     0.029 A 
HETATM    5  C   UNL     1     -41.013  57.807 -50.661  1.00  0.00     0.003 A 
HETATM    6  C   UNL     1     -41.114  56.417 -50.551  1.00  0.00     0.017 A 
ENDROOT
BRANCH   3   7
HETATM    7  N   UNL     1     -41.346  58.302 -54.324  1.00  0.00    -0.325 N 
HETATM    8  C   UNL     1     -42.477  58.860 -54.904  1.00  0.00     0.246 C 
HETATM    9  O   UNL     1     -43.620  58.806 -54.450  1.00  0.00    -0.271 OA
HETATM   10  H   UNL     1     -40.526  58.245 -54.921  1.00  0.00     0.169 HD
BRANCH   8  11
HETATM   11  C   UNL     1     -42.206  59.637 -56.187  1.00  0.00     0.278 C 
BRANCH  11  12
HETATM   12  O   UNL     1     -43.180  59.416 -57.199  1.00  0.00    -0.342 OA
BRANCH  12  13
HETATM   13  C   UNL     1     -42.949  58.321 -57.996  1.00  0.00     0.069 A 
HETATM   14  C   UNL     1     -42.219  58.577 -59.158  1.00  0.00     0.037 A 
HETATM   15  C   UNL     1     -41.910  57.540 -60.043  1.00  0.00     0.003 A 
HETATM   16  C   UNL     1     -42.334  56.241 -59.771  1.00  0.00     0.000 A 
HETATM   17  C   UNL     1     -43.072  55.980 -58.619  1.00  0.00     0.003 A 
HETATM   18  C   UNL     1     -43.382  57.016 -57.735  1.00  0.00     0.037 A 
ENDBRANCH  12  13
ENDBRANCH  11  12
ENDBRANCH   8  11
ENDBRANCH   3   7
BRANCH   1  19
HETATM   19  C   UNL     1     -41.413  54.155 -51.602  1.00  0.00     0.257 C 
HETATM   20  N   UNL     1     -40.187  53.524 -51.641  1.00  0.00    -0.307 N 
HETATM   21  H   UNL     1     -39.359  54.098 -51.585  1.00  0.00     0.170 HD
HETATM   22  O   UNL     1     -42.521  53.646 -51.487  1.00  0.00    -0.267 OA
BRANCH  20  23
HETATM   23  C   UNL     1     -39.951  52.156 -51.810  1.00  0.00     0.130 A 
HETATM   24  C   UNL     1     -39.901  51.696 -53.128  1.00  0.00     0.057 A 
HETATM   25  C   UNL     1     -39.747  50.331 -53.381  1.00  0.00    -0.057 A 
HETATM   26  C   UNL     1     -39.696  49.814 -54.786  1.00  0.00     0.048 C 
HETATM   27  C   UNL     1     -39.602  49.474 -52.294  1.00  0.00     0.026 A 
HETATM   28  C   UNL     1     -39.653  50.014 -51.019  1.00  0.00     0.119 A 
HETATM   29  N   UNL     1     -39.833  51.328 -50.762  1.00  0.00    -0.243 NA
ENDBRANCH  20  23
ENDBRANCH   1  19
TORSDOF 6
ENDMDL
MODEL 3
REMARK VINA RESULT:      -8.1      1.107      1.807
REMARK  6 active torsions:
REMARK  status: ('A' for Active; 'I' for Inactive)
REMARK    1  A    between atoms: C_4  and  N_5 
REMARK       I    between atoms: N_5  and  C_6 
REMARK    2  A    between atoms: C_6  and  C_7 
REMARK    3  A    between atoms: C_9  and  N_10 
REMARK       I    between atoms: N_10  and  C_11 
REMARK    4  A    between atoms: C_11  and  C_12 
REMARK    5  A    between atoms: C_12  and  O_13 
REMARK    6  A    between atoms: O_13  and  C_14 
ROOT
HETATM    1  C   UNL     1     -44.204  57.371 -54.007  1.00  0.00     0.034 A 
HETATM    2  C   UNL     1     -43.217  56.566 -53.424  1.00  0.00     0.046 A 
HETATM    3  C   UNL     1     -43.076  56.472 -52.040  1.00  0.00     0.035 A 
HETATM    4  C   UNL     1     -43.869  57.289 -51.229  1.00  0.00     0.029 A 
HETATM    5  C   UNL     1     -44.821  58.144 -51.803  1.00  0.00     0.003 A 
HETATM    6  C   UNL     1     -44.996  58.179 -53.190  1.00  0.00     0.017 A 
ENDROOT
BRANCH   3   7
HETATM    7  N   UNL     1     -42.153  55.589 -51.441  1.00  0.00    -0.325 N 
HETATM    8  C   UNL     1     -42.378  54.244 -51.183  1.00  0.00     0.246 C 
HETATM    9  O   UNL     1     -43.438  53.644 -51.360  1.00  0.00    -0.271 OA
HETATM   10  H   UNL     1     -41.303  55.979 -51.044  1.00  0.00     0.169 HD
BRANCH   8  11
HETATM   11  C   UNL     1     -41.151  53.486 -50.688  1.00  0.00     0.278 C 
BRANCH  11  12
HETATM   12  O   UNL     1     -40.089  53.451 -51.633  1.00  0.00    -0.342 OA
BRANCH  12  13
HETATM   13  C   UNL     1     -40.003  52.291 -52.364  1.00  0.00     0.069 A 
HETATM   14  C   UNL     1     -39.631  51.158 -51.637  1.00  0.00     0.037 A 
HETATM   15  C   UNL     1     -39.522  49.916 -52.269  1.00  0.00     0.003 A 
HETATM   16  C   UNL     1     -39.779  49.801 -53.633  1.00  0.00     0.000 A 
HETATM   17  C   UNL     1     -40.140  50.929 -54.367  1.00  0.00     0.003 A 
HETATM   18  C   UNL     1     -40.248  52.171 -53.737  1.00  0.00     0.037 A 
ENDBRANCH  12  13
ENDBRANCH  11  12
ENDBRANCH   8  11
ENDBRANCH   3   7
BRANCH   1  19
HETATM   19  C   UNL     1     -44.388  57.379 -55.493  1.00  0.00     0.257 C 
HETATM   20  N   UNL     1     -43.428  56.655 -56.171  1.00  0.00    -0.307 N 
HETATM   21  H   UNL     1     -42.796  56.086 -55.629  1.00  0.00     0.170 HD
HETATM   22  O   UNL     1     -45.343  57.988 -55.957  1.00  0.00    -0.267 OA
BRANCH  20  23
HETATM   23  C   UNL     1     -43.188  56.663 -57.549  1.00  0.00     0.130 A 
HETATM   24  C   UNL     1     -42.724  57.865 -58.087  1.00  0.00     0.057 A 
HETATM   25  C   UNL     1     -42.534  57.979 -59.467  1.00  0.00    -0.057 A 
HETATM   26  C   UNL     1     -42.042  59.260 -60.069  1.00  0.00     0.048 C 
HETATM   27  C   UNL     1     -42.774  56.859 -60.258  1.00  0.00     0.026 A 
HETATM   28  C   UNL     1     -43.223  55.702 -59.641  1.00  0.00     0.119 A 
HETATM   29  N   UNL     1     -43.441  55.590 -58.313  1.00  0.00    -0.243 NA
ENDBRANCH  20  23
ENDBRANCH   1  19
TORSDOF 6
ENDMDL
MODEL 4
REMARK VINA RESULT:      -8.0      2.051      8.144
REMARK  6 active torsions:
REMARK  status: ('A' for Active; 'I' for Inactive)
REMARK    1  A    between atoms: C_4  and  N_5 
REMARK       I    between atoms: N_5  and  C_6 
REMARK    2  A    between atoms: C_6  and  C_7 
REMARK    3  A    between atoms: C_9  and  N_10 
REMARK       I    between atoms: N_10  and  C_11 
REMARK    4  A    between atoms: C_11  and  C_12 
REMARK    5  A    between atoms: C_12  and  O_13 
REMARK    6  A    between atoms: O_13  and  C_14 
ROOT
HETATM    1  C   UNL     1     -43.323  55.791 -53.847  1.00  0.00     0.034 A 
HETATM    2  C   UNL     1     -43.120  55.807 -55.232  1.00  0.00     0.046 A 
HETATM    3  C   UNL     1     -43.589  56.854 -56.025  1.00  0.00     0.035 A 
HETATM    4  C   UNL     1     -44.373  57.846 -55.429  1.00  0.00     0.029 A 
HETATM    5  C   UNL     1     -44.633  57.809 -54.053  1.00  0.00     0.003 A 
HETATM    6  C   UNL     1     -44.101  56.788 -53.259  1.00  0.00     0.017 A 
ENDROOT
BRANCH   3   7
HETATM    7  N   UNL     1     -43.304  56.932 -57.405  1.00  0.00    -0.325 N 
HETATM    8  C   UNL     1     -42.489  57.881 -58.005  1.00  0.00     0.246 C 
HETATM    9  O   UNL     1     -41.964  58.841 -57.441  1.00  0.00    -0.271 OA
HETATM   10  H   UNL     1     -43.830  56.336 -58.038  1.00  0.00     0.169 HD
BRANCH   8  11
HETATM   11  C   UNL     1     -42.216  57.628 -59.484  1.00  0.00     0.278 C 
BRANCH  11  12
HETATM   12  O   UNL     1     -43.212  58.168 -60.343  1.00  0.00    -0.342 OA
BRANCH  12  13
HETATM   13  C   UNL     1     -44.394  57.468 -60.372  1.00  0.00     0.069 A 
HETATM   14  C   UNL     1     -45.539  58.228 -60.126  1.00  0.00     0.037 A 
HETATM   15  C   UNL     1     -46.802  57.630 -60.141  1.00  0.00     0.003 A 
HETATM   16  C   UNL     1     -46.926  56.266 -60.397  1.00  0.00     0.000 A 
HETATM   17  C   UNL     1     -45.787  55.500 -60.632  1.00  0.00     0.003 A 
HETATM   18  C   UNL     1     -44.524  56.097 -60.617  1.00  0.00     0.037 A 
ENDBRANCH  12  13
ENDBRANCH  11  12
ENDBRANCH   8  11
ENDBRANCH   3   7
BRANCH   1  19
HETATM   19  C   UNL     1     -42.729  54.699 -53.012  1.00  0.00     0.257 C 
HETATM   20  N   UNL     1     -41.459  54.331 -53.408  1.00  0.00    -0.307 N 
HETATM   21  H   UNL     1     -40.998  54.899 -54.103  1.00  0.00     0.170 HD
HETATM   22  O   UNL     1     -43.387  54.257 -52.078  1.00  0.00    -0.267 OA
BRANCH  20  23
HETATM   23  C   UNL     1     -40.743  53.204 -52.992  1.00  0.00     0.130 A 
HETATM   24  C   UNL     1     -40.551  52.207 -53.951  1.00  0.00     0.057 A 
HETATM   25  C   UNL     1     -39.914  51.016 -53.594  1.00  0.00    -0.057 A 
HETATM   26  C   UNL     1     -39.701  49.929 -54.603  1.00  0.00     0.048 C 
HETATM   27  C   UNL     1     -39.447  50.886 -52.289  1.00  0.00     0.026 A 
HETATM   28  C   UNL     1     -39.670  51.928 -51.404  1.00  0.00     0.119 A 
HETATM   29  N   UNL     1     -40.313  53.071 -51.729  1.00  0.00    -0.243 NA
ENDBRANCH  20  23
ENDBRANCH   1  19
TORSDOF 6
ENDMDL
MODEL 5
REMARK VINA RESULT:      -7.9      2.159      2.514
REMARK  6 active torsions:
REMARK  status: ('A' for Active; 'I' for Inactive)
REMARK    1  A    between atoms: C_4  and  N_5 
REMARK       I    between atoms: N_5  and  C_6 
REMARK    2  A    between atoms: C_6  and  C_7 
REMARK    3  A    between atoms: C_9  and  N_10 
REMARK       I    between atoms: N_10  and  C_11 
REMARK    4  A    between atoms: C_11  and  C_12 
REMARK    5  A    between atoms: C_12  and  O_13 
REMARK    6  A    between atoms: O_13  and  C_14 
ROOT
HETATM    1  C   UNL     1     -41.678  58.533 -52.936  1.00  0.00     0.034 A 
HETATM    2  C   UNL     1     -41.284  57.254 -52.524  1.00  0.00     0.046 A 
HETATM    3  C   UNL     1     -41.016  56.971 -51.184  1.00  0.00     0.035 A 
HETATM    4  C   UNL     1     -41.037  58.019 -50.261  1.00  0.00     0.029 A 
HETATM    5  C   UNL     1     -41.373  59.316 -50.672  1.00  0.00     0.003 A 
HETATM    6  C   UNL     1     -41.703  59.573 -52.006  1.00  0.00     0.017 A 
ENDROOT
BRANCH   3   7
HETATM    7  N   UNL     1     -40.716  55.664 -50.743  1.00  0.00    -0.325 N 
HETATM    8  C   UNL     1     -41.606  54.599 -50.721  1.00  0.00     0.246 C 
HETATM    9  O   UNL     1     -42.803  54.655 -51.000  1.00  0.00    -0.271 OA
HETATM   10  H   UNL     1     -39.825  55.506 -50.283  1.00  0.00     0.169 HD
BRANCH   8  11
HETATM   11  C   UNL     1     -40.972  53.260 -50.360  1.00  0.00     0.278 C 
BRANCH  11  12
HETATM   12  O   UNL     1     -39.752  53.008 -51.045  1.00  0.00    -0.342 OA
BRANCH  12  13
HETATM   13  C   UNL     1     -39.844  52.106 -52.077  1.00  0.00     0.069 A 
HETATM   14  C   UNL     1     -39.541  50.786 -51.739  1.00  0.00     0.037 A 
HETATM   15  C   UNL     1     -39.610  49.774 -52.700  1.00  0.00     0.003 A 
HETATM   16  C   UNL     1     -39.978  50.079 -54.009  1.00  0.00     0.000 A 
HETATM   17  C   UNL     1     -40.271  51.396 -54.357  1.00  0.00     0.003 A 
HETATM   18  C   UNL     1     -40.201  52.408 -53.396  1.00  0.00     0.037 A 
ENDBRANCH  12  13
ENDBRANCH  11  12
ENDBRANCH   8  11
ENDBRANCH   3   7
BRANCH   1  19
HETATM   19  C   UNL     1     -42.046  58.783 -54.366  1.00  0.00     0.257 C 
HETATM   20  N   UNL     1     -43.032  57.940 -54.837  1.00  0.00    -0.307 N 
HETATM   21  H   UNL     1     -43.505  57.349 -54.170  1.00  0.00     0.170 HD
HETATM   22  O   UNL     1     -41.476  59.687 -54.964  1.00  0.00    -0.267 OA
BRANCH  20  23
HETATM   23  C   UNL     1     -43.421  57.763 -56.168  1.00  0.00     0.130 A 
HETATM   24  C   UNL     1     -44.748  58.074 -56.470  1.00  0.00     0.057 A 
HETATM   25  C   UNL     1     -45.237  57.851 -57.760  1.00  0.00    -0.057 A 
HETATM   26  C   UNL     1     -46.659  58.172 -58.106  1.00  0.00     0.048 C 
HETATM   27  C   UNL     1     -44.356  57.363 -58.720  1.00  0.00     0.026 A 
HETATM   28  C   UNL     1     -43.052  57.090 -58.339  1.00  0.00     0.119 A 
HETATM   29  N   UNL     1     -42.577  57.272 -57.088  1.00  0.00    -0.243 NA
ENDBRANCH  20  23
ENDBRANCH   1  19
TORSDOF 6
ENDMDL
MODEL 6
REMARK VINA RESULT:      -7.8      3.811      8.898
REMARK  6 active torsions:
REMARK  status: ('A' for Active; 'I' for Inactive)
REMARK    1  A    between atoms: C_4  and  N_5 
REMARK       I    between atoms: N_5  and  C_6 
REMARK    2  A    between atoms: C_6  and  C_7 
REMARK    3  A    between atoms: C_9  and  N_10 
REMARK       I    between atoms: N_10  and  C_11 
REMARK    4  A    between atoms: C_11  and  C_12 
REMARK    5  A    between atoms: C_12  and  O_13 
REMARK    6  A    between atoms: O_13  and  C_14 
ROOT
HETATM    1  C   UNL     1     -41.828  55.988 -52.500  1.00  0.00     0.034 A 
HETATM    2  C   UNL     1     -42.743  56.832 -51.857  1.00  0.00     0.046 A 
HETATM    3  C   UNL     1     -42.851  58.181 -52.194  1.00  0.00     0.035 A 
HETATM    4  C   UNL     1     -41.946  58.716 -53.115  1.00  0.00     0.029 A 
HETATM    5  C   UNL     1     -40.986  57.894 -53.722  1.00  0.00     0.003 A 
HETATM    6  C   UNL     1     -40.932  56.529 -53.423  1.00  0.00     0.017 A 
ENDROOT
BRANCH   3   7
HETATM    7  N   UNL     1     -43.836  59.016 -51.625  1.00  0.00    -0.325 N 
HETATM    8  C   UNL     1     -44.999  58.580 -51.006  1.00  0.00     0.246 C 
HETATM    9  O   UNL     1     -45.385  57.414 -50.937  1.00  0.00    -0.271 OA
HETATM   10  H   UNL     1     -43.768  60.016 -51.785  1.00  0.00     0.169 HD
BRANCH   8  11
HETATM   11  C   UNL     1     -45.801  59.686 -50.328  1.00  0.00     0.278 C 
BRANCH  11  12
HETATM   12  O   UNL     1     -45.879  59.543 -48.916  1.00  0.00    -0.342 OA
BRANCH  12  13
HETATM   13  C   UNL     1     -45.596  60.683 -48.202  1.00  0.00     0.069 A 
HETATM   14  C   UNL     1     -45.957  60.642 -46.853  1.00  0.00     0.037 A 
HETATM   15  C   UNL     1     -45.709  61.737 -46.021  1.00  0.00     0.003 A 
HETATM   16  C   UNL     1     -45.104  62.881 -46.535  1.00  0.00     0.000 A 
HETATM   17  C   UNL     1     -44.751  62.934 -47.881  1.00  0.00     0.003 A 
HETATM   18  C   UNL     1     -44.999  61.840 -48.714  1.00  0.00     0.037 A 
ENDBRANCH  12  13
ENDBRANCH  11  12
ENDBRANCH   8  11
ENDBRANCH   3   7
BRANCH   1  19
HETATM   19  C   UNL     1     -41.799  54.525 -52.180  1.00  0.00     0.257 C 
HETATM   20  N   UNL     1     -40.524  54.002 -52.111  1.00  0.00    -0.307 N 
HETATM   21  H   UNL     1     -39.747  54.646 -52.136  1.00  0.00     0.170 HD
HETATM   22  O   UNL     1     -42.863  53.949 -51.998  1.00  0.00    -0.267 OA
BRANCH  20  23
HETATM   23  C   UNL     1     -40.173  52.649 -52.067  1.00  0.00     0.130 A 
HETATM   24  C   UNL     1     -40.000  52.016 -53.299  1.00  0.00     0.057 A 
HETATM   25  C   UNL     1     -39.726  50.646 -53.343  1.00  0.00    -0.057 A 
HETATM   26  C   UNL     1     -39.542  49.944 -54.653  1.00  0.00     0.048 C 
HETATM   27  C   UNL     1     -39.587  49.966 -52.137  1.00  0.00     0.026 A 
HETATM   28  C   UNL     1     -39.764  50.673 -50.958  1.00  0.00     0.119 A 
HETATM   29  N   UNL     1     -40.062  51.989 -50.904  1.00  0.00    -0.243 NA
ENDBRANCH  20  23
ENDBRANCH   1  19
TORSDOF 6
ENDMDL
MODEL 7
REMARK VINA RESULT:      -7.5     14.988     19.241
REMARK  6 active torsions:
REMARK  status: ('A' for Active; 'I' for Inactive)
REMARK    1  A    between atoms: C_4  and  N_5 
REMARK       I    between atoms: N_5  and  C_6 
REMARK    2  A    between atoms: C_6  and  C_7 
REMARK    3  A    between atoms: C_9  and  N_10 
REMARK       I    between atoms: N_10  and  C_11 
REMARK    4  A    between atoms: C_11  and  C_12 
REMARK    5  A    between atoms: C_12  and  O_13 
REMARK    6  A    between atoms: O_13  and  C_14 
ROOT
HETATM    1  C   UNL     1     -33.565  40.052 -50.361  1.00  0.00     0.034 A 
HETATM    2  C   UNL     1     -33.666  40.757 -51.567  1.00  0.00     0.046 A 
HETATM    3  C   UNL     1     -34.904  41.035 -52.146  1.00  0.00     0.035 A 
HETATM    4  C   UNL     1     -36.054  40.498 -51.561  1.00  0.00     0.029 A 
HETATM    5  C   UNL     1     -35.960  39.740 -50.386  1.00  0.00     0.003 A 
HETATM    6  C   UNL     1     -34.718  39.524 -49.780  1.00  0.00     0.017 A 
ENDROOT
BRANCH   3   7
HETATM    7  N   UNL     1     -35.024  41.830 -53.306  1.00  0.00    -0.325 N 
HETATM    8  C   UNL     1     -34.868  41.378 -54.609  1.00  0.00     0.246 C 
HETATM    9  O   UNL     1     -34.522  40.245 -54.943  1.00  0.00    -0.271 OA
HETATM   10  H   UNL     1     -35.100  42.836 -53.193  1.00  0.00     0.169 HD
BRANCH   8  11
HETATM   11  C   UNL     1     -35.222  42.409 -55.677  1.00  0.00     0.278 C 
BRANCH  11  12
HETATM   12  O   UNL     1     -36.619  42.524 -55.911  1.00  0.00    -0.342 OA
BRANCH  12  13
HETATM   13  C   UNL     1     -37.101  41.741 -56.931  1.00  0.00     0.069 A 
HETATM   14  C   UNL     1     -36.795  42.188 -58.218  1.00  0.00     0.037 A 
HETATM   15  C   UNL     1     -37.220  41.469 -59.338  1.00  0.00     0.003 A 
HETATM   16  C   UNL     1     -37.960  40.299 -59.177  1.00  0.00     0.000 A 
HETATM   17  C   UNL     1     -38.278  39.852 -57.897  1.00  0.00     0.003 A 
HETATM   18  C   UNL     1     -37.854  40.571 -56.776  1.00  0.00     0.037 A 
ENDBRANCH  12  13
ENDBRANCH  11  12
ENDBRANCH   8  11
ENDBRANCH   3   7
BRANCH   1  19
HETATM   19  C   UNL     1     -32.228  39.848 -49.718  1.00  0.00     0.257 C 
HETATM   20  N   UNL     1     -32.305  39.362 -48.429  1.00  0.00    -0.307 N 
HETATM   21  H   UNL     1     -33.207  39.060 -48.091  1.00  0.00     0.170 HD
HETATM   22  O   UNL     1     -31.224  40.103 -50.371  1.00  0.00    -0.267 OA
BRANCH  20  23
HETATM   23  C   UNL     1     -31.267  39.291 -47.494  1.00  0.00     0.130 A 
HETATM   24  C   UNL     1     -31.611  38.827 -46.223  1.00  0.00     0.057 A 
HETATM   25  C   UNL     1     -30.649  38.800 -45.211  1.00  0.00    -0.057 A 
HETATM   26  C   UNL     1     -30.996  38.311 -43.837  1.00  0.00     0.048 C 
HETATM   27  C   UNL     1     -29.354  39.200 -45.525  1.00  0.00     0.026 A 
HETATM   28  C   UNL     1     -29.095  39.637 -46.814  1.00  0.00     0.119 A 
HETATM   29  N   UNL     1     -30.024  39.698 -47.792  1.00  0.00    -0.243 NA
ENDBRANCH  20  23
ENDBRANCH   1  19
TORSDOF 6
ENDMDL
MODEL 8
REMARK VINA RESULT:      -7.4      3.144      9.156
REMARK  6 active torsions:
REMARK  status: ('A' for Active; 'I' for Inactive)
REMARK    1  A    between atoms: C_4  and  N_5 
REMARK       I    between atoms: N_5  and  C_6 
REMARK    2  A    between atoms: C_6  and  C_7 
REMARK    3  A    between atoms: C_9  and  N_10 
REMARK       I    between atoms: N_10  and  C_11 
REMARK    4  A    between atoms: C_11  and  C_12 
REMARK    5  A    between atoms: C_12  and  O_13 
REMARK    6  A    between atoms: O_13  and  C_14 
ROOT
HETATM    1  C   UNL     1     -42.508  56.180 -54.867  1.00  0.00     0.034 A 
HETATM    2  C   UNL     1     -42.360  57.138 -55.878  1.00  0.00     0.046 A 
HETATM    3  C   UNL     1     -43.358  58.076 -56.144  1.00  0.00     0.035 A 
HETATM    4  C   UNL     1     -44.571  57.977 -55.458  1.00  0.00     0.029 A 
HETATM    5  C   UNL     1     -44.754  56.984 -54.485  1.00  0.00     0.003 A 
HETATM    6  C   UNL     1     -43.720  56.091 -54.182  1.00  0.00     0.017 A 
ENDROOT
BRANCH   3   7
HETATM    7  N   UNL     1     -43.180  59.108 -57.090  1.00  0.00    -0.325 N 
HETATM    8  C   UNL     1     -43.501  59.027 -58.438  1.00  0.00     0.246 C 
HETATM    9  O   UNL     1     -43.908  58.023 -59.023  1.00  0.00    -0.271 OA
HETATM   10  H   UNL     1     -42.658  59.932 -56.809  1.00  0.00     0.169 HD
BRANCH   8  11
HETATM   11  C   UNL     1     -43.366  60.344 -59.195  1.00  0.00     0.278 C 
BRANCH  11  12
HETATM   12  O   UNL     1     -42.610  61.323 -58.496  1.00  0.00    -0.342 OA
BRANCH  12  13
HETATM   13  C   UNL     1     -41.583  61.885 -59.216  1.00  0.00     0.069 A 
HETATM   14  C   UNL     1     -41.754  61.871 -60.601  1.00  0.00     0.037 A 
HETATM   15  C   UNL     1     -40.783  62.425 -61.440  1.00  0.00     0.003 A 
HETATM   16  C   UNL     1     -39.632  62.991 -60.897  1.00  0.00     0.000 A 
HETATM   17  C   UNL     1     -39.449  62.999 -59.516  1.00  0.00     0.003 A 
HETATM   18  C   UNL     1     -40.419  62.444 -58.677  1.00  0.00     0.037 A 
ENDBRANCH  12  13
ENDBRANCH  11  12
ENDBRANCH   8  11
ENDBRANCH   3   7
BRANCH   1  19
HETATM   19  C   UNL     1     -41.383  55.246 -54.545  1.00  0.00     0.257 C 
HETATM   20  N   UNL     1     -41.797  54.065 -53.963  1.00  0.00    -0.307 N 
HETATM   21  H   UNL     1     -42.787  53.873 -53.936  1.00  0.00     0.170 HD
HETATM   22  O   UNL     1     -40.243  55.589 -54.829  1.00  0.00    -0.267 OA
BRANCH  20  23
HETATM   23  C   UNL     1     -40.990  53.107 -53.341  1.00  0.00     0.130 A 
HETATM   24  C   UNL     1     -40.587  52.030 -54.132  1.00  0.00     0.057 A 
HETATM   25  C   UNL     1     -39.845  50.991 -53.565  1.00  0.00    -0.057 A 
HETATM   26  C   UNL     1     -39.406  49.822 -54.394  1.00  0.00     0.048 C 
HETATM   27  C   UNL     1     -39.491  51.094 -52.223  1.00  0.00     0.026 A 
HETATM   28  C   UNL     1     -39.923  52.202 -51.512  1.00  0.00     0.119 A 
HETATM   29  N   UNL     1     -40.668  53.196 -52.042  1.00  0.00    -0.243 NA
ENDBRANCH  20  23
ENDBRANCH   1  19
TORSDOF 6
ENDMDL
MODEL 9
REMARK VINA RESULT:      -7.4      2.030      7.292
REMARK  6 active torsions:
REMARK  status: ('A' for Active; 'I' for Inactive)
REMARK    1  A    between atoms: C_4  and  N_5 
REMARK       I    between atoms: N_5  and  C_6 
REMARK    2  A    between atoms: C_6  and  C_7 
REMARK    3  A    between atoms: C_9  and  N_10 
REMARK       I    between atoms: N_10  and  C_11 
REMARK    4  A    between atoms: C_11  and  C_12 
REMARK    5  A    between atoms: C_12  and  O_13 
REMARK    6  A    between atoms: O_13  and  C_14 
ROOT
HETATM    1  C   UNL     1     -43.365  56.086 -52.295  1.00  0.00     0.034 A 
HETATM    2  C   UNL     1     -43.272  56.803 -53.494  1.00  0.00     0.046 A 
HETATM    3  C   UNL     1     -43.636  58.148 -53.569  1.00  0.00     0.035 A 
HETATM    4  C   UNL     1     -44.206  58.751 -52.445  1.00  0.00     0.029 A 
HETATM    5  C   UNL     1     -44.359  58.026 -51.255  1.00  0.00     0.003 A 
HETATM    6  C   UNL     1     -43.930  56.697 -51.175  1.00  0.00     0.017 A 
ENDROOT
BRANCH   3   7
HETATM    7  N   UNL     1     -43.453  58.906 -54.745  1.00  0.00    -0.325 N 
HETATM    8  C   UNL     1     -42.275  59.536 -55.120  1.00  0.00     0.246 C 
HETATM    9  O   UNL     1     -41.245  59.598 -54.448  1.00  0.00    -0.271 OA
HETATM   10  H   UNL     1     -44.271  59.126 -55.306  1.00  0.00     0.169 HD
BRANCH   8  11
HETATM   11  C   UNL     1     -42.306  60.141 -56.520  1.00  0.00     0.278 C 
BRANCH  11  12
HETATM   12  O   UNL     1     -41.420  59.504 -57.431  1.00  0.00    -0.342 OA
BRANCH  12  13
HETATM   13  C   UNL     1     -41.982  58.494 -58.174  1.00  0.00     0.069 A 
HETATM   14  C   UNL     1     -42.117  58.764 -59.537  1.00  0.00     0.037 A 
HETATM   15  C   UNL     1     -42.664  57.808 -60.397  1.00  0.00     0.003 A 
HETATM   16  C   UNL     1     -43.084  56.578 -59.898  1.00  0.00     0.000 A 
HETATM   17  C   UNL     1     -42.963  56.305 -58.537  1.00  0.00     0.003 A 
HETATM   18  C   UNL     1     -42.417  57.260 -57.676  1.00  0.00     0.037 A 
ENDBRANCH  12  13
ENDBRANCH  11  12
ENDBRANCH   8  11
ENDBRANCH   3   7
BRANCH   1  19
HETATM   19  C   UNL     1     -42.882  54.670 -52.225  1.00  0.00     0.257 C 
HETATM   20  N   UNL     1     -41.624  54.490 -52.762  1.00  0.00    -0.307 N 
HETATM   21  H   UNL     1     -41.096  55.312 -53.013  1.00  0.00     0.170 HD
HETATM   22  O   UNL     1     -43.608  53.833 -51.705  1.00  0.00    -0.267 OA
BRANCH  20  23
HETATM   23  C   UNL     1     -41.003  53.272 -53.058  1.00  0.00     0.130 A 
HETATM   24  C   UNL     1     -40.559  52.524 -51.966  1.00  0.00     0.057 A 
HETATM   25  C   UNL     1     -39.859  51.334 -52.179  1.00  0.00    -0.057 A 
HETATM   26  C   UNL     1     -39.369  50.516 -51.023  1.00  0.00     0.048 C 
HETATM   27  C   UNL     1     -39.669  50.910 -53.491  1.00  0.00     0.026 A 
HETATM   28  C   UNL     1     -40.151  51.708 -54.517  1.00  0.00     0.119 A 
HETATM   29  N   UNL     1     -40.800  52.876 -54.323  1.00  0.00    -0.243 NA
ENDBRANCH  20  23
ENDBRANCH   1  19
TORSDOF 6
ENDMDL
MODEL 10
REMARK VINA RESULT:      -7.4     14.824     17.231
REMARK  6 active torsions:
REMARK  status: ('A' for Active; 'I' for Inactive)
REMARK    1  A    between atoms: C_4  and  N_5 
REMARK       I    between atoms: N_5  and  C_6 
REMARK    2  A    between atoms: C_6  and  C_7 
REMARK    3  A    between atoms: C_9  and  N_10 
REMARK       I    between atoms: N_10  and  C_11 
REMARK    4  A    between atoms: C_11  and  C_12 
REMARK    5  A    between atoms: C_12  and  O_13 
REMARK    6  A    between atoms: O_13  and  C_14 
ROOT
HETATM    1  C   UNL     1     -37.716  39.462 -51.029  1.00  0.00     0.034 A 
HETATM    2  C   UNL     1     -37.627  40.274 -52.167  1.00  0.00     0.046 A 
HETATM    3  C   UNL     1     -36.520  41.092 -52.393  1.00  0.00     0.035 A 
HETATM    4  C   UNL     1     -35.538  41.178 -51.402  1.00  0.00     0.029 A 
HETATM    5  C   UNL     1     -35.645  40.414 -50.232  1.00  0.00     0.003 A 
HETATM    6  C   UNL     1     -36.728  39.549 -50.048  1.00  0.00     0.017 A 
ENDROOT
BRANCH   3   7
HETATM    7  N   UNL     1     -36.373  41.838 -53.581  1.00  0.00    -0.325 N 
HETATM    8  C   UNL     1     -35.492  41.542 -54.612  1.00  0.00     0.246 C 
HETATM    9  O   UNL     1     -34.654  40.640 -54.607  1.00  0.00    -0.271 OA
HETATM   10  H   UNL     1     -36.846  42.734 -53.647  1.00  0.00     0.169 HD
BRANCH   8  11
HETATM   11  C   UNL     1     -35.662  42.413 -55.852  1.00  0.00     0.278 C 
BRANCH  11  12
HETATM   12  O   UNL     1     -37.008  42.506 -56.298  1.00  0.00    -0.342 OA
BRANCH  12  13
HETATM   13  C   UNL     1     -37.332  41.670 -57.339  1.00  0.00     0.069 A 
HETATM   14  C   UNL     1     -36.992  42.144 -58.608  1.00  0.00     0.037 A 
HETATM   15  C   UNL     1     -37.259  41.378 -59.745  1.00  0.00     0.003 A 
HETATM   16  C   UNL     1     -37.874  40.134 -59.621  1.00  0.00     0.000 A 
HETATM   17  C   UNL     1     -38.226  39.659 -58.360  1.00  0.00     0.003 A 
HETATM   18  C   UNL     1     -37.960  40.425 -57.222  1.00  0.00     0.037 A 
ENDBRANCH  12  13
ENDBRANCH  11  12
ENDBRANCH   8  11
ENDBRANCH   3   7
BRANCH   1  19
HETATM   19  C   UNL     1     -38.875  38.527 -50.861  1.00  0.00     0.257 C 
HETATM   20  N   UNL     1     -40.095  39.169 -50.797  1.00  0.00    -0.307 N 
HETATM   21  H   UNL     1     -40.121  40.156 -51.005  1.00  0.00     0.170 HD
HETATM   22  O   UNL     1     -38.650  37.325 -50.813  1.00  0.00    -0.267 OA
BRANCH  20  23
HETATM   23  C   UNL     1     -41.318  38.611 -50.413  1.00  0.00     0.130 A 
HETATM   24  C   UNL     1     -42.067  38.007 -51.425  1.00  0.00     0.057 A 
HETATM   25  C   UNL     1     -43.335  37.495 -51.139  1.00  0.00    -0.057 A 
HETATM   26  C   UNL     1     -44.158  36.848 -52.210  1.00  0.00     0.048 C 
HETATM   27  C   UNL     1     -43.791  37.567 -49.826  1.00  0.00     0.026 A 
HETATM   28  C   UNL     1     -42.980  38.174 -48.880  1.00  0.00     0.119 A 
HETATM   29  N   UNL     1     -41.767  38.701 -49.152  1.00  0.00    -0.243 NA
ENDBRANCH  20  23
ENDBRANCH   1  19
TORSDOF 6
ENDMDL
