MODEL 1
REMARK VINA RESULT:      -7.6      0.000      0.000
REMARK  3 active torsions:
REMARK  status: ('A' for Active; 'I' for Inactive)
REMARK    1  A    between atoms: C_4  and  N_5 
REMARK       I    between atoms: N_5  and  C_6 
REMARK    2  A    between atoms: C_6  and  C_7 
REMARK    3  A    between atoms: C_7  and  C_8 
ROOT
HETATM    1  C   UNL     1     -42.985  56.611 -56.346  1.00  0.00     0.286 C 
HETATM    2  N   UNL     1     -42.293  55.976 -57.562  1.00  0.00    -0.056 N 
HETATM    3  H   UNL     1     -41.420  56.498 -57.717  1.00  0.00     0.278 HD
HETATM    4  H   UNL     1     -41.949  55.026 -57.301  1.00  0.00     0.278 HD
HETATM    5  C   UNL     1     -43.045  55.923 -58.855  1.00  0.00     0.209 C 
HETATM    6  C   UNL     1     -43.781  57.262 -59.088  1.00  0.00     0.115 C 
HETATM    7  N   UNL     1     -44.592  57.644 -57.940  1.00  0.00    -0.353 N 
HETATM    8  C   UNL     1     -44.215  57.475 -56.639  1.00  0.00     0.249 C 
HETATM    9  O   UNL     1     -44.858  58.007 -55.740  1.00  0.00    -0.271 OA
HETATM   10  C   UNL     1     -43.973  54.709 -58.874  1.00  0.00     0.035 C 
HETATM   11  C   UNL     1     -44.808  54.682 -60.153  1.00  0.00     0.002 C 
HETATM   12  C   UNL     1     -45.575  55.986 -60.353  1.00  0.00     0.002 C 
HETATM   13  C   UNL     1     -44.639  57.195 -60.354  1.00  0.00     0.027 C 
HETATM   14  H   UNL     1     -45.352  58.312 -58.064  1.00  0.00     0.163 HD
ENDROOT
BRANCH   1  15
HETATM   15  C   UNL     1     -43.323  55.557 -55.284  1.00  0.00     0.146 C 
BRANCH  15  16
HETATM   16  C   UNL     1     -42.010  54.941 -54.895  1.00  0.00     0.224 C 
HETATM   17  N   UNL     1     -42.106  53.663 -54.403  1.00  0.00    -0.327 N 
HETATM   18  H   UNL     1     -42.967  53.146 -54.560  1.00  0.00     0.169 HD
HETATM   19  O   UNL     1     -41.036  55.693 -54.857  1.00  0.00    -0.273 OA
BRANCH  17  20
HETATM   20  C   UNL     1     -41.139  52.986 -53.627  1.00  0.00     0.034 A 
HETATM   21  C   UNL     1     -40.831  53.314 -52.304  1.00  0.00     0.029 A 
HETATM   22  C   UNL     1     -39.913  52.550 -51.581  1.00  0.00     0.002 A 
HETATM   23  C   UNL     1     -39.293  51.453 -52.173  1.00  0.00     0.000 A 
HETATM   24  C   UNL     1     -39.582  51.127 -53.494  1.00  0.00     0.002 A 
HETATM   25  C   UNL     1     -40.495  51.893 -54.221  1.00  0.00     0.029 A 
ENDBRANCH  17  20
ENDBRANCH  15  16
ENDBRANCH   1  15
TORSDOF 3
ENDMDL
MODEL 2
REMARK VINA RESULT:      -7.3      3.229      3.895
REMARK  3 active torsions:
REMARK  status: ('A' for Active; 'I' for Inactive)
REMARK    1  A    between atoms: C_4  and  N_5 
REMARK       I    between atoms: N_5  and  C_6 
REMARK    2  A    between atoms: C_6  and  C_7 
REMARK    3  A    between atoms: C_7  and  C_8 
ROOT
HETATM    1  C   UNL     1     -41.126  56.351 -53.431  1.00  0.00     0.286 C 
HETATM    2  N   UNL     1     -42.087  55.690 -54.431  1.00  0.00    -0.056 N 
HETATM    3  H   UNL     1     -41.508  55.223 -55.142  1.00  0.00     0.278 HD
HETATM    4  H   UNL     1     -42.567  54.889 -53.965  1.00  0.00     0.278 HD
HETATM    5  C   UNL     1     -43.084  56.559 -55.134  1.00  0.00     0.209 C 
HETATM    6  C   UNL     1     -42.408  57.876 -55.577  1.00  0.00     0.115 C 
HETATM    7  N   UNL     1     -41.715  58.531 -54.475  1.00  0.00    -0.353 N 
HETATM    8  C   UNL     1     -41.000  57.874 -53.516  1.00  0.00     0.249 C 
HETATM    9  O   UNL     1     -40.281  58.505 -52.748  1.00  0.00    -0.271 OA
HETATM   10  C   UNL     1     -44.310  56.774 -54.247  1.00  0.00     0.035 C 
HETATM   11  C   UNL     1     -45.303  57.724 -54.915  1.00  0.00     0.002 C 
HETATM   12  C   UNL     1     -44.645  59.045 -55.305  1.00  0.00     0.002 C 
HETATM   13  C   UNL     1     -43.432  58.824 -56.208  1.00  0.00     0.027 C 
HETATM   14  H   UNL     1     -41.502  59.525 -54.538  1.00  0.00     0.163 HD
ENDROOT
BRANCH   1  15
HETATM   15  C   UNL     1     -41.444  55.927 -51.992  1.00  0.00     0.146 C 
BRANCH  15  16
HETATM   16  C   UNL     1     -41.559  54.431 -52.027  1.00  0.00     0.224 C 
HETATM   17  N   UNL     1     -40.364  53.772 -52.174  1.00  0.00    -0.327 N 
HETATM   18  H   UNL     1     -39.503  54.285 -52.003  1.00  0.00     0.169 HD
HETATM   19  O   UNL     1     -42.695  53.967 -52.131  1.00  0.00    -0.273 OA
BRANCH  17  20
HETATM   20  C   UNL     1     -40.187  52.440 -52.608  1.00  0.00     0.034 A 
HETATM   21  C   UNL     1     -40.383  52.015 -53.925  1.00  0.00     0.029 A 
HETATM   22  C   UNL     1     -40.118  50.694 -54.290  1.00  0.00     0.002 A 
HETATM   23  C   UNL     1     -39.655  49.784 -53.343  1.00  0.00     0.000 A 
HETATM   24  C   UNL     1     -39.471  50.192 -52.026  1.00  0.00     0.002 A 
HETATM   25  C   UNL     1     -39.742  51.512 -51.657  1.00  0.00     0.029 A 
ENDBRANCH  17  20
ENDBRANCH  15  16
ENDBRANCH   1  15
TORSDOF 3
ENDMDL
MODEL 3
REMARK VINA RESULT:      -7.2      1.998      7.627
REMARK  3 active torsions:
REMARK  status: ('A' for Active; 'I' for Inactive)
REMARK    1  A    between atoms: C_4  and  N_5 
REMARK       I    between atoms: N_5  and  C_6 
REMARK    2  A    between atoms: C_6  and  C_7 
REMARK    3  A    between atoms: C_7  and  C_8 
ROOT
HETATM    1  C   UNL     1     -42.140  55.535 -53.636  1.00  0.00     0.286 C 
HETATM    2  N   UNL     1     -42.632  54.308 -52.854  1.00  0.00    -0.056 N 
HETATM    3  H   UNL     1     -43.650  54.408 -52.746  1.00  0.00     0.278 HD
HETATM    4  H   UNL     1     -42.548  53.461 -53.458  1.00  0.00     0.278 HD
HETATM    5  C   UNL     1     -42.041  54.047 -51.503  1.00  0.00     0.209 C 
HETATM    6  C   UNL     1     -41.917  55.374 -50.721  1.00  0.00     0.115 C 
HETATM    7  N   UNL     1     -41.223  56.398 -51.490  1.00  0.00    -0.353 N 
HETATM    8  C   UNL     1     -41.383  56.595 -52.832  1.00  0.00     0.249 C 
HETATM    9  O   UNL     1     -40.924  57.601 -53.363  1.00  0.00    -0.271 OA
HETATM   10  C   UNL     1     -40.714  53.301 -51.646  1.00  0.00     0.035 C 
HETATM   11  C   UNL     1     -40.056  53.096 -50.282  1.00  0.00     0.002 C 
HETATM   12  C   UNL     1     -39.888  54.416 -49.534  1.00  0.00     0.002 C 
HETATM   13  C   UNL     1     -41.221  55.147 -49.376  1.00  0.00     0.027 C 
HETATM   14  H   UNL     1     -40.803  57.190 -51.006  1.00  0.00     0.163 HD
ENDROOT
BRANCH   1  15
HETATM   15  C   UNL     1     -41.320  55.119 -54.863  1.00  0.00     0.146 C 
BRANCH  15  16
HETATM   16  C   UNL     1     -42.304  55.017 -55.992  1.00  0.00     0.224 C 
HETATM   17  N   UNL     1     -42.133  55.954 -56.981  1.00  0.00    -0.327 N 
HETATM   18  H   UNL     1     -41.254  56.463 -57.020  1.00  0.00     0.169 HD
HETATM   19  O   UNL     1     -43.265  54.266 -55.822  1.00  0.00    -0.273 OA
BRANCH  17  20
HETATM   20  C   UNL     1     -43.091  56.345 -57.942  1.00  0.00     0.034 A 
HETATM   21  C   UNL     1     -44.070  57.317 -57.718  1.00  0.00     0.029 A 
HETATM   22  C   UNL     1     -44.936  57.700 -58.745  1.00  0.00     0.002 A 
HETATM   23  C   UNL     1     -44.834  57.114 -60.003  1.00  0.00     0.000 A 
HETATM   24  C   UNL     1     -43.873  56.135 -60.233  1.00  0.00     0.002 A 
HETATM   25  C   UNL     1     -43.009  55.746 -59.206  1.00  0.00     0.029 A 
ENDBRANCH  17  20
ENDBRANCH  15  16
ENDBRANCH   1  15
TORSDOF 3
ENDMDL
MODEL 4
REMARK VINA RESULT:      -7.2      5.039      5.957
REMARK  3 active torsions:
REMARK  status: ('A' for Active; 'I' for Inactive)
REMARK    1  A    between atoms: C_4  and  N_5 
REMARK       I    between atoms: N_5  and  C_6 
REMARK    2  A    between atoms: C_6  and  C_7 
REMARK    3  A    between atoms: C_7  and  C_8 
ROOT
HETATM    1  C   UNL     1     -41.427  56.863 -51.420  1.00  0.00     0.286 C 
HETATM    2  N   UNL     1     -42.688  56.604 -52.259  1.00  0.00    -0.056 N 
HETATM    3  H   UNL     1     -42.377  56.424 -53.223  1.00  0.00     0.278 HD
HETATM    4  H   UNL     1     -43.103  55.689 -51.977  1.00  0.00     0.278 HD
HETATM    5  C   UNL     1     -43.742  57.668 -52.297  1.00  0.00     0.209 C 
HETATM    6  C   UNL     1     -43.079  59.056 -52.438  1.00  0.00     0.115 C 
HETATM    7  N   UNL     1     -42.047  59.272 -51.432  1.00  0.00    -0.353 N 
HETATM    8  C   UNL     1     -41.170  58.315 -51.010  1.00  0.00     0.249 C 
HETATM    9  O   UNL     1     -40.207  58.629 -50.318  1.00  0.00    -0.271 OA
HETATM   10  C   UNL     1     -44.650  57.550 -51.073  1.00  0.00     0.035 C 
HETATM   11  C   UNL     1     -45.683  58.676 -51.052  1.00  0.00     0.002 C 
HETATM   12  C   UNL     1     -45.022  60.049 -51.140  1.00  0.00     0.002 C 
HETATM   13  C   UNL     1     -44.131  60.167 -52.376  1.00  0.00     0.027 C 
HETATM   14  H   UNL     1     -41.756  60.223 -51.209  1.00  0.00     0.163 HD
ENDROOT
BRANCH   1  15
HETATM   15  C   UNL     1     -41.382  55.951 -50.188  1.00  0.00     0.146 C 
BRANCH  15  16
HETATM   16  C   UNL     1     -41.502  54.551 -50.716  1.00  0.00     0.224 C 
HETATM   17  N   UNL     1     -40.353  54.057 -51.284  1.00  0.00    -0.327 N 
HETATM   18  H   UNL     1     -39.475  54.535 -51.096  1.00  0.00     0.169 HD
HETATM   19  O   UNL     1     -42.638  54.079 -50.779  1.00  0.00    -0.273 OA
BRANCH  17  20
HETATM   20  C   UNL     1     -40.258  52.965 -52.174  1.00  0.00     0.034 A 
HETATM   21  C   UNL     1     -40.616  53.025 -53.523  1.00  0.00     0.029 A 
HETATM   22  C   UNL     1     -40.424  51.920 -54.356  1.00  0.00     0.002 A 
HETATM   23  C   UNL     1     -39.875  50.746 -53.848  1.00  0.00     0.000 A 
HETATM   24  C   UNL     1     -39.529  50.671 -52.503  1.00  0.00     0.002 A 
HETATM   25  C   UNL     1     -39.725  51.772 -51.667  1.00  0.00     0.029 A 
ENDBRANCH  17  20
ENDBRANCH  15  16
ENDBRANCH   1  15
TORSDOF 3
ENDMDL
MODEL 5
REMARK VINA RESULT:      -7.1     14.519     16.142
REMARK  3 active torsions:
REMARK  status: ('A' for Active; 'I' for Inactive)
REMARK    1  A    between atoms: C_4  and  N_5 
REMARK       I    between atoms: N_5  and  C_6 
REMARK    2  A    between atoms: C_6  and  C_7 
REMARK    3  A    between atoms: C_7  and  C_8 
ROOT
HETATM    1  C   UNL     1     -36.547  41.256 -55.248  1.00  0.00     0.286 C 
HETATM    2  N   UNL     1     -37.647  42.023 -55.999  1.00  0.00    -0.056 N 
HETATM    3  H   UNL     1     -38.500  41.963 -55.427  1.00  0.00     0.278 HD
HETATM    4  H   UNL     1     -37.427  43.043 -55.976  1.00  0.00     0.278 HD
HETATM    5  C   UNL     1     -37.984  41.592 -57.392  1.00  0.00     0.209 C 
HETATM    6  C   UNL     1     -38.032  40.049 -57.466  1.00  0.00     0.115 C 
HETATM    7  N   UNL     1     -36.823  39.440 -56.928  1.00  0.00    -0.353 N 
HETATM    8  C   UNL     1     -36.159  39.891 -55.822  1.00  0.00     0.249 C 
HETATM    9  O   UNL     1     -35.276  39.206 -55.317  1.00  0.00    -0.271 OA
HETATM   10  C   UNL     1     -37.006  42.216 -58.387  1.00  0.00     0.035 C 
HETATM   11  C   UNL     1     -37.285  41.724 -59.806  1.00  0.00     0.002 C 
HETATM   12  C   UNL     1     -37.280  40.200 -59.886  1.00  0.00     0.002 C 
HETATM   13  C   UNL     1     -38.275  39.582 -58.903  1.00  0.00     0.027 C 
HETATM   14  H   UNL     1     -36.584  38.485 -57.189  1.00  0.00     0.163 HD
ENDROOT
BRANCH   1  15
HETATM   15  C   UNL     1     -35.297  42.122 -55.056  1.00  0.00     0.146 C 
BRANCH  15  16
HETATM   16  C   UNL     1     -34.981  42.057 -53.590  1.00  0.00     0.224 C 
HETATM   17  N   UNL     1     -34.013  41.142 -53.256  1.00  0.00    -0.327 N 
HETATM   18  H   UNL     1     -33.422  40.771 -53.995  1.00  0.00     0.169 HD
HETATM   19  O   UNL     1     -35.746  42.657 -52.833  1.00  0.00    -0.273 OA
BRANCH  17  20
HETATM   20  C   UNL     1     -33.778  40.596 -51.975  1.00  0.00     0.034 A 
HETATM   21  C   UNL     1     -34.765  39.991 -51.192  1.00  0.00     0.029 A 
HETATM   22  C   UNL     1     -34.437  39.410 -49.965  1.00  0.00     0.002 A 
HETATM   23  C   UNL     1     -33.122  39.431 -49.508  1.00  0.00     0.000 A 
HETATM   24  C   UNL     1     -32.135  40.045 -50.273  1.00  0.00     0.002 A 
HETATM   25  C   UNL     1     -32.462  40.631 -51.498  1.00  0.00     0.029 A 
ENDBRANCH  17  20
ENDBRANCH  15  16
ENDBRANCH   1  15
TORSDOF 3
ENDMDL
MODEL 6
REMARK VINA RESULT:      -7.1      4.074      5.269
REMARK  3 active torsions:
REMARK  status: ('A' for Active; 'I' for Inactive)
REMARK    1  A    between atoms: C_4  and  N_5 
REMARK       I    between atoms: N_5  and  C_6 
REMARK    2  A    between atoms: C_6  and  C_7 
REMARK    3  A    between atoms: C_7  and  C_8 
ROOT
HETATM    1  C   UNL     1     -43.030  55.988 -52.138  1.00  0.00     0.286 C 
HETATM    2  N   UNL     1     -43.142  57.044 -51.027  1.00  0.00    -0.056 N 
HETATM    3  H   UNL     1     -43.796  56.674 -50.325  1.00  0.00     0.278 HD
HETATM    4  H   UNL     1     -42.241  57.083 -50.502  1.00  0.00     0.278 HD
HETATM    5  C   UNL     1     -43.589  58.422 -51.404  1.00  0.00     0.209 C 
HETATM    6  C   UNL     1     -44.760  58.336 -52.409  1.00  0.00     0.115 C 
HETATM    7  N   UNL     1     -44.442  57.479 -53.544  1.00  0.00    -0.353 N 
HETATM    8  C   UNL     1     -43.743  56.309 -53.454  1.00  0.00     0.249 C 
HETATM    9  O   UNL     1     -43.696  55.549 -54.415  1.00  0.00    -0.271 OA
HETATM   10  C   UNL     1     -42.403  59.235 -51.923  1.00  0.00     0.035 C 
HETATM   11  C   UNL     1     -42.854  60.619 -52.388  1.00  0.00     0.002 C 
HETATM   12  C   UNL     1     -43.975  60.529 -53.419  1.00  0.00     0.002 C 
HETATM   13  C   UNL     1     -45.166  59.733 -52.888  1.00  0.00     0.027 C 
HETATM   14  H   UNL     1     -44.972  57.575 -54.408  1.00  0.00     0.163 HD
ENDROOT
BRANCH   1  15
HETATM   15  C   UNL     1     -41.567  55.617 -52.408  1.00  0.00     0.146 C 
BRANCH  15  16
HETATM   16  C   UNL     1     -41.433  54.179 -52.001  1.00  0.00     0.224 C 
HETATM   17  N   UNL     1     -40.239  53.598 -52.351  1.00  0.00    -0.327 N 
HETATM   18  H   UNL     1     -39.466  54.202 -52.615  1.00  0.00     0.169 HD
HETATM   19  O   UNL     1     -42.455  53.620 -51.598  1.00  0.00    -0.273 OA
BRANCH  17  20
HETATM   20  C   UNL     1     -39.974  52.214 -52.446  1.00  0.00     0.034 A 
HETATM   21  C   UNL     1     -39.706  51.394 -51.347  1.00  0.00     0.029 A 
HETATM   22  C   UNL     1     -39.524  50.019 -51.517  1.00  0.00     0.002 A 
HETATM   23  C   UNL     1     -39.606  49.453 -52.786  1.00  0.00     0.000 A 
HETATM   24  C   UNL     1     -39.857  50.263 -53.889  1.00  0.00     0.002 A 
HETATM   25  C   UNL     1     -40.033  51.639 -53.722  1.00  0.00     0.029 A 
ENDBRANCH  17  20
ENDBRANCH  15  16
ENDBRANCH   1  15
TORSDOF 3
ENDMDL
MODEL 7
REMARK VINA RESULT:      -7.0      1.554      2.095
REMARK  3 active torsions:
REMARK  status: ('A' for Active; 'I' for Inactive)
REMARK    1  A    between atoms: C_4  and  N_5 
REMARK       I    between atoms: N_5  and  C_6 
REMARK    2  A    between atoms: C_6  and  C_7 
REMARK    3  A    between atoms: C_7  and  C_8 
ROOT
HETATM    1  C   UNL     1     -42.333  56.822 -56.230  1.00  0.00     0.286 C 
HETATM    2  N   UNL     1     -42.458  55.858 -57.420  1.00  0.00    -0.056 N 
HETATM    3  H   UNL     1     -41.552  55.379 -57.516  1.00  0.00     0.278 HD
HETATM    4  H   UNL     1     -43.103  55.080 -57.163  1.00  0.00     0.278 HD
HETATM    5  C   UNL     1     -42.831  56.428 -58.754  1.00  0.00     0.209 C 
HETATM    6  C   UNL     1     -42.059  57.744 -58.996  1.00  0.00     0.115 C 
HETATM    7  N   UNL     1     -42.208  58.675 -57.886  1.00  0.00    -0.353 N 
HETATM    8  C   UNL     1     -42.218  58.310 -56.570  1.00  0.00     0.249 C 
HETATM    9  O   UNL     1     -42.141  59.167 -55.696  1.00  0.00    -0.271 OA
HETATM   10  C   UNL     1     -44.349  56.588 -58.850  1.00  0.00     0.035 C 
HETATM   11  C   UNL     1     -44.743  57.242 -60.173  1.00  0.00     0.002 C 
HETATM   12  C   UNL     1     -44.018  58.567 -60.385  1.00  0.00     0.002 C 
HETATM   13  C   UNL     1     -42.501  58.398 -60.308  1.00  0.00     0.027 C 
HETATM   14  H   UNL     1     -42.026  59.666 -58.035  1.00  0.00     0.163 HD
ENDROOT
BRANCH   1  15
HETATM   15  C   UNL     1     -43.458  56.598 -55.213  1.00  0.00     0.146 C 
BRANCH  15  16
HETATM   16  C   UNL     1     -43.158  55.279 -54.562  1.00  0.00     0.224 C 
HETATM   17  N   UNL     1     -41.952  55.229 -53.907  1.00  0.00    -0.327 N 
HETATM   18  H   UNL     1     -41.480  56.104 -53.694  1.00  0.00     0.169 HD
HETATM   19  O   UNL     1     -43.900  54.339 -54.850  1.00  0.00    -0.273 OA
BRANCH  17  20
HETATM   20  C   UNL     1     -41.243  54.065 -53.540  1.00  0.00     0.034 A 
HETATM   21  C   UNL     1     -40.710  53.154 -54.456  1.00  0.00     0.029 A 
HETATM   22  C   UNL     1     -39.958  52.063 -54.014  1.00  0.00     0.002 A 
HETATM   23  C   UNL     1     -39.734  51.871 -52.653  1.00  0.00     0.000 A 
HETATM   24  C   UNL     1     -40.273  52.763 -51.732  1.00  0.00     0.002 A 
HETATM   25  C   UNL     1     -41.030  53.852 -52.171  1.00  0.00     0.029 A 
ENDBRANCH  17  20
ENDBRANCH  15  16
ENDBRANCH   1  15
TORSDOF 3
ENDMDL
MODEL 8
REMARK VINA RESULT:      -6.9      4.154      5.860
REMARK  3 active torsions:
REMARK  status: ('A' for Active; 'I' for Inactive)
REMARK    1  A    between atoms: C_4  and  N_5 
REMARK       I    between atoms: N_5  and  C_6 
REMARK    2  A    between atoms: C_6  and  C_7 
REMARK    3  A    between atoms: C_7  and  C_8 
ROOT
HETATM    1  C   UNL     1     -42.471  57.402 -52.121  1.00  0.00     0.286 C 
HETATM    2  N   UNL     1     -41.421  58.493 -52.382  1.00  0.00    -0.056 N 
HETATM    3  H   UNL     1     -40.617  58.289 -51.773  1.00  0.00     0.278 HD
HETATM    4  H   UNL     1     -41.023  58.361 -53.337  1.00  0.00     0.278 HD
HETATM    5  C   UNL     1     -41.818  59.921 -52.172  1.00  0.00     0.209 C 
HETATM    6  C   UNL     1     -42.652  60.048 -50.878  1.00  0.00     0.115 C 
HETATM    7  N   UNL     1     -43.765  59.108 -50.853  1.00  0.00    -0.353 N 
HETATM    8  C   UNL     1     -43.699  57.822 -51.308  1.00  0.00     0.249 C 
HETATM    9  O   UNL     1     -44.610  57.039 -51.065  1.00  0.00    -0.271 OA
HETATM   10  C   UNL     1     -42.536  60.454 -53.412  1.00  0.00     0.035 C 
HETATM   11  C   UNL     1     -43.019  61.886 -53.187  1.00  0.00     0.002 C 
HETATM   12  C   UNL     1     -43.887  61.998 -51.937  1.00  0.00     0.002 C 
HETATM   13  C   UNL     1     -43.156  61.483 -50.697  1.00  0.00     0.027 C 
HETATM   14  H   UNL     1     -44.557  59.285 -50.236  1.00  0.00     0.163 HD
ENDROOT
BRANCH   1  15
HETATM   15  C   UNL     1     -42.909  56.728 -53.426  1.00  0.00     0.146 C 
BRANCH  15  16
HETATM   16  C   UNL     1     -41.848  55.710 -53.731  1.00  0.00     0.224 C 
HETATM   17  N   UNL     1     -42.185  54.421 -53.398  1.00  0.00    -0.327 N 
HETATM   18  H   UNL     1     -43.162  54.206 -53.218  1.00  0.00     0.169 HD
HETATM   19  O   UNL     1     -40.738  56.144 -54.040  1.00  0.00    -0.273 OA
BRANCH  17  20
HETATM   20  C   UNL     1     -41.294  53.341 -53.214  1.00  0.00     0.034 A 
HETATM   21  C   UNL     1     -40.942  52.439 -54.221  1.00  0.00     0.029 A 
HETATM   22  C   UNL     1     -39.997  51.439 -53.978  1.00  0.00     0.002 A 
HETATM   23  C   UNL     1     -39.399  51.330 -52.726  1.00  0.00     0.000 A 
HETATM   24  C   UNL     1     -39.753  52.213 -51.712  1.00  0.00     0.002 A 
HETATM   25  C   UNL     1     -40.702  53.210 -51.951  1.00  0.00     0.029 A 
ENDBRANCH  17  20
ENDBRANCH  15  16
ENDBRANCH   1  15
TORSDOF 3
ENDMDL
MODEL 9
REMARK VINA RESULT:      -6.6      2.561      7.481
REMARK  3 active torsions:
REMARK  status: ('A' for Active; 'I' for Inactive)
REMARK    1  A    between atoms: C_4  and  N_5 
REMARK       I    between atoms: N_5  and  C_6 
REMARK    2  A    between atoms: C_6  and  C_7 
REMARK    3  A    between atoms: C_7  and  C_8 
ROOT
HETATM    1  C   UNL     1     -43.484  56.217 -55.205  1.00  0.00     0.286 C 
HETATM    2  N   UNL     1     -44.069  55.074 -54.361  1.00  0.00    -0.056 N 
HETATM    3  H   UNL     1     -45.058  55.300 -54.193  1.00  0.00     0.278 HD
HETATM    4  H   UNL     1     -44.127  54.213 -54.947  1.00  0.00     0.278 HD
HETATM    5  C   UNL     1     -43.427  54.768 -53.044  1.00  0.00     0.209 C 
HETATM    6  C   UNL     1     -43.093  56.084 -52.306  1.00  0.00     0.115 C 
HETATM    7  N   UNL     1     -42.332  57.001 -53.144  1.00  0.00    -0.353 N 
HETATM    8  C   UNL     1     -42.555  57.192 -54.478  1.00  0.00     0.249 C 
HETATM    9  O   UNL     1     -42.012  58.124 -55.062  1.00  0.00    -0.271 OA
HETATM   10  C   UNL     1     -42.212  53.863 -53.249  1.00  0.00     0.035 C 
HETATM   11  C   UNL     1     -41.496  53.605 -51.925  1.00  0.00     0.002 C 
HETATM   12  C   UNL     1     -41.122  54.908 -51.223  1.00  0.00     0.002 C 
HETATM   13  C   UNL     1     -42.343  55.799 -51.002  1.00  0.00     0.027 C 
HETATM   14  H   UNL     1     -41.789  57.745 -52.708  1.00  0.00     0.163 HD
ENDROOT
BRANCH   1  15
HETATM   15  C   UNL     1     -42.801  55.682 -56.470  1.00  0.00     0.146 C 
BRANCH  15  16
HETATM   16  C   UNL     1     -43.096  56.687 -57.545  1.00  0.00     0.224 C 
HETATM   17  N   UNL     1     -41.985  57.175 -58.187  1.00  0.00    -0.327 N 
HETATM   18  H   UNL     1     -41.107  56.674 -58.085  1.00  0.00     0.169 HD
HETATM   19  O   UNL     1     -44.249  57.118 -57.597  1.00  0.00    -0.273 OA
BRANCH  17  20
HETATM   20  C   UNL     1     -41.908  58.363 -58.947  1.00  0.00     0.034 A 
HETATM   21  C   UNL     1     -41.996  58.405 -60.341  1.00  0.00     0.029 A 
HETATM   22  C   UNL     1     -41.982  59.629 -61.014  1.00  0.00     0.002 A 
HETATM   23  C   UNL     1     -41.879  60.820 -60.302  1.00  0.00     0.000 A 
HETATM   24  C   UNL     1     -41.775  60.789 -58.915  1.00  0.00     0.002 A 
HETATM   25  C   UNL     1     -41.783  59.566 -58.240  1.00  0.00     0.029 A 
ENDBRANCH  17  20
ENDBRANCH  15  16
ENDBRANCH   1  15
TORSDOF 3
ENDMDL
MODEL 10
REMARK VINA RESULT:      -6.6      5.509      8.611
REMARK  3 active torsions:
REMARK  status: ('A' for Active; 'I' for Inactive)
REMARK    1  A    between atoms: C_4  and  N_5 
REMARK       I    between atoms: N_5  and  C_6 
REMARK    2  A    between atoms: C_6  and  C_7 
REMARK    3  A    between atoms: C_7  and  C_8 
ROOT
HETATM    1  C   UNL     1     -43.335  56.500 -51.101  1.00  0.00     0.286 C 
HETATM    2  N   UNL     1     -43.926  55.140 -51.503  1.00  0.00    -0.056 N 
HETATM    3  H   UNL     1     -44.413  54.767 -50.677  1.00  0.00     0.278 HD
HETATM    4  H   UNL     1     -44.706  55.293 -52.178  1.00  0.00     0.278 HD
HETATM    5  C   UNL     1     -42.992  54.087 -52.013  1.00  0.00     0.209 C 
HETATM    6  C   UNL     1     -41.707  54.066 -51.154  1.00  0.00     0.115 C 
HETATM    7  N   UNL     1     -41.109  55.389 -51.037  1.00  0.00    -0.353 N 
HETATM    8  C   UNL     1     -41.820  56.546 -50.887  1.00  0.00     0.249 C 
HETATM    9  O   UNL     1     -41.242  57.586 -50.590  1.00  0.00    -0.271 OA
HETATM   10  C   UNL     1     -42.723  54.299 -53.502  1.00  0.00     0.035 C 
HETATM   11  C   UNL     1     -41.709  53.282 -54.023  1.00  0.00     0.002 C 
HETATM   12  C   UNL     1     -40.421  53.300 -53.205  1.00  0.00     0.002 C 
HETATM   13  C   UNL     1     -40.694  53.067 -51.719  1.00  0.00     0.027 C 
HETATM   14  H   UNL     1     -40.127  55.474 -50.778  1.00  0.00     0.163 HD
ENDROOT
BRANCH   1  15
HETATM   15  C   UNL     1     -43.763  57.603 -52.077  1.00  0.00     0.146 C 
BRANCH  15  16
HETATM   16  C   UNL     1     -44.731  58.462 -51.317  1.00  0.00     0.224 C 
HETATM   17  N   UNL     1     -44.500  59.811 -51.425  1.00  0.00    -0.327 N 
HETATM   18  H   UNL     1     -43.889  60.140 -52.168  1.00  0.00     0.169 HD
HETATM   19  O   UNL     1     -45.480  57.885 -50.528  1.00  0.00    -0.273 OA
BRANCH  17  20
HETATM   20  C   UNL     1     -44.979  60.818 -50.559  1.00  0.00     0.034 A 
HETATM   21  C   UNL     1     -46.189  61.493 -50.741  1.00  0.00     0.029 A 
HETATM   22  C   UNL     1     -46.627  62.427 -49.799  1.00  0.00     0.002 A 
HETATM   23  C   UNL     1     -45.861  62.695 -48.668  1.00  0.00     0.000 A 
HETATM   24  C   UNL     1     -44.649  62.039 -48.485  1.00  0.00     0.002 A 
HETATM   25  C   UNL     1     -44.205  61.109 -49.428  1.00  0.00     0.029 A 
ENDBRANCH  17  20
ENDBRANCH  15  16
ENDBRANCH   1  15
TORSDOF 3
ENDMDL
