MODEL 1
REMARK VINA RESULT:      -8.0      0.000      0.000
REMARK  7 active torsions:
REMARK  status: ('A' for Active; 'I' for Inactive)
REMARK    1  A    between atoms: C_2  and  C_3 
REMARK    2  A    between atoms: C_6  and  C_7 
REMARK    3  A    between atoms: C_7  and  N_8 
REMARK    4  A    between atoms: C_7  and  C_25 
REMARK    5  A    between atoms: N_8  and  C_11 
REMARK    6  A    between atoms: C_11  and  C_12 
REMARK       I    between atoms: C_12  and  N_13 
REMARK    7  A    between atoms: N_13  and  C_14 
ROOT
HETATM    1  N   UNL     1     -40.683  53.267 -50.985  1.00  0.00    -0.054 N 
HETATM    2  H   UNL     1     -41.670  53.570 -50.976  1.00  0.00     0.278 HD
HETATM    3  H   UNL     1     -40.714  52.315 -50.607  1.00  0.00     0.278 HD
ENDROOT
BRANCH   1   4
HETATM    4  C   UNL     1     -40.183  53.256 -52.392  1.00  0.00     0.259 C 
BRANCH   4   5
HETATM    5  C   UNL     1     -41.056  54.098 -53.307  1.00  0.00    -0.023 A 
HETATM    6  C   UNL     1     -42.453  54.061 -53.150  1.00  0.00     0.010 A 
HETATM    7  C   UNL     1     -43.287  54.846 -53.950  1.00  0.00     0.007 A 
HETATM    8  C   UNL     1     -42.746  55.690 -54.924  1.00  0.00    -0.059 A 
HETATM    9  C   UNL     1     -41.358  55.738 -55.085  1.00  0.00     0.007 A 
HETATM   10  C   UNL     1     -40.521  54.950 -54.289  1.00  0.00     0.010 A 
BRANCH   8  11
HETATM   11  C   UNL     1     -43.646  56.573 -55.754  1.00  0.00     0.034 C 
HETATM   12  C   UNL     1     -44.439  57.542 -54.889  1.00  0.00     0.010 C 
ENDBRANCH   8  11
ENDBRANCH   4   5
BRANCH   4  13
HETATM   13  C   UNL     1     -39.989  51.848 -52.902  1.00  0.00     0.017 A 
HETATM   14  S   UNL     1     -39.523  50.615 -51.796  1.00  0.00    -0.104 SA
HETATM   15  C   UNL     1     -39.531  49.421 -53.015  1.00  0.00     0.050 A 
HETATM   16  C   UNL     1     -39.887  49.936 -54.240  1.00  0.00     0.008 A 
HETATM   17  C   UNL     1     -40.152  51.335 -54.177  1.00  0.00     0.017 A 
ENDBRANCH   4  13
ENDBRANCH   1   4
BRANCH   1  18
HETATM   18  C   UNL     1     -39.931  54.155 -50.026  1.00  0.00     0.336 C 
BRANCH  18  19
HETATM   19  C   UNL     1     -40.738  55.421 -49.747  1.00  0.00     0.248 C 
HETATM   20  N   UNL     1     -40.764  56.318 -50.795  1.00  0.00    -0.326 N 
HETATM   21  H   UNL     1     -40.231  56.103 -51.632  1.00  0.00     0.169 HD
HETATM   22  O   UNL     1     -41.272  55.532 -48.645  1.00  0.00    -0.271 OA
BRANCH  20  23
HETATM   23  C   UNL     1     -41.450  57.555 -50.840  1.00  0.00     0.037 A 
HETATM   24  C   UNL     1     -42.736  57.711 -51.373  1.00  0.00     0.061 A 
HETATM   25  C   UNL     1     -43.271  58.981 -51.355  1.00  0.00     0.065 A 
HETATM   26  C   UNL     1     -42.588  60.076 -50.835  1.00  0.00     0.063 A 
HETATM   27  N   UNL     1     -44.505  59.429 -51.816  1.00  0.00    -0.306 N 
HETATM   28  N   UNL     1     -43.398  61.195 -50.971  1.00  0.00    -0.307 N 
HETATM   29  C   UNL     1     -41.329  59.961 -50.303  1.00  0.00     0.034 A 
HETATM   30  C   UNL     1     -44.600  60.809 -51.583  1.00  0.00     0.325 A 
HETATM   31  H   UNL     1     -43.197  62.143 -50.694  1.00  0.00     0.170 HD
HETATM   32  O   UNL     1     -45.541  61.528 -51.861  1.00  0.00    -0.247 OA
HETATM   33  C   UNL     1     -40.759  58.680 -50.312  1.00  0.00     0.032 A 
HETATM   34  H   UNL     1     -45.236  58.891 -52.252  1.00  0.00     0.170 HD
ENDBRANCH  20  23
ENDBRANCH  18  19
ENDBRANCH   1  18
TORSDOF 7
ENDMDL
MODEL 2
REMARK VINA RESULT:      -7.9      1.727      2.096
REMARK  7 active torsions:
REMARK  status: ('A' for Active; 'I' for Inactive)
REMARK    1  A    between atoms: C_2  and  C_3 
REMARK    2  A    between atoms: C_6  and  C_7 
REMARK    3  A    between atoms: C_7  and  N_8 
REMARK    4  A    between atoms: C_7  and  C_25 
REMARK    5  A    between atoms: N_8  and  C_11 
REMARK    6  A    between atoms: C_11  and  C_12 
REMARK       I    between atoms: C_12  and  N_13 
REMARK    7  A    between atoms: N_13  and  C_14 
ROOT
HETATM    1  N   UNL     1     -41.425  53.472 -51.429  1.00  0.00    -0.054 N 
HETATM    2  H   UNL     1     -42.393  53.665 -51.733  1.00  0.00     0.278 HD
HETATM    3  H   UNL     1     -41.493  52.570 -50.948  1.00  0.00     0.278 HD
ENDROOT
BRANCH   1   4
HETATM    4  C   UNL     1     -40.545  53.361 -52.630  1.00  0.00     0.259 C 
BRANCH   4   5
HETATM    5  C   UNL     1     -41.165  54.026 -53.848  1.00  0.00    -0.023 A 
HETATM    6  C   UNL     1     -42.411  53.574 -54.317  1.00  0.00     0.010 A 
HETATM    7  C   UNL     1     -43.028  54.181 -55.413  1.00  0.00     0.007 A 
HETATM    8  C   UNL     1     -42.419  55.257 -56.065  1.00  0.00    -0.059 A 
HETATM    9  C   UNL     1     -41.182  55.717 -55.603  1.00  0.00     0.007 A 
HETATM   10  C   UNL     1     -40.559  55.108 -54.510  1.00  0.00     0.010 A 
BRANCH   8  11
HETATM   11  C   UNL     1     -43.110  55.942 -57.218  1.00  0.00     0.034 C 
HETATM   12  C   UNL     1     -42.581  57.353 -57.436  1.00  0.00     0.010 C 
ENDBRANCH   8  11
ENDBRANCH   4   5
BRANCH   4  13
HETATM   13  C   UNL     1     -40.136  51.931 -52.890  1.00  0.00     0.017 A 
HETATM   14  S   UNL     1     -39.667  50.941 -51.562  1.00  0.00    -0.104 SA
HETATM   15  C   UNL     1     -39.399  49.592 -52.572  1.00  0.00     0.050 A 
HETATM   16  C   UNL     1     -39.665  49.874 -53.892  1.00  0.00     0.008 A 
HETATM   17  C   UNL     1     -40.090  51.222 -54.077  1.00  0.00     0.017 A 
ENDBRANCH   4  13
ENDBRANCH   1   4
BRANCH   1  18
HETATM   18  C   UNL     1     -41.045  54.537 -50.432  1.00  0.00     0.336 C 
BRANCH  18  19
HETATM   19  C   UNL     1     -41.591  55.891 -50.882  1.00  0.00     0.248 C 
HETATM   20  N   UNL     1     -42.851  55.836 -51.440  1.00  0.00    -0.326 N 
HETATM   21  H   UNL     1     -43.296  54.929 -51.547  1.00  0.00     0.169 HD
HETATM   22  O   UNL     1     -40.879  56.881 -50.720  1.00  0.00    -0.271 OA
BRANCH  20  23
HETATM   23  C   UNL     1     -43.620  56.924 -51.918  1.00  0.00     0.037 A 
HETATM   24  C   UNL     1     -44.442  57.711 -51.101  1.00  0.00     0.061 A 
HETATM   25  C   UNL     1     -45.137  58.732 -51.713  1.00  0.00     0.065 A 
HETATM   26  C   UNL     1     -45.043  58.993 -53.076  1.00  0.00     0.063 A 
HETATM   27  N   UNL     1     -46.021  59.655 -51.163  1.00  0.00    -0.306 N 
HETATM   28  N   UNL     1     -45.863  60.076 -53.367  1.00  0.00    -0.307 N 
HETATM   29  C   UNL     1     -44.247  58.246 -53.906  1.00  0.00     0.034 A 
HETATM   30  C   UNL     1     -46.483  60.500 -52.182  1.00  0.00     0.325 A 
HETATM   31  H   UNL     1     -46.019  60.512 -54.261  1.00  0.00     0.170 HD
HETATM   32  O   UNL     1     -47.268  61.422 -52.060  1.00  0.00    -0.247 OA
HETATM   33  C   UNL     1     -43.531  57.197 -53.310  1.00  0.00     0.032 A 
HETATM   34  H   UNL     1     -46.312  59.738 -50.202  1.00  0.00     0.170 HD
ENDBRANCH  20  23
ENDBRANCH  18  19
ENDBRANCH   1  18
TORSDOF 7
ENDMDL
MODEL 3
REMARK VINA RESULT:      -7.8      4.567      7.579
REMARK  7 active torsions:
REMARK  status: ('A' for Active; 'I' for Inactive)
REMARK    1  A    between atoms: C_2  and  C_3 
REMARK    2  A    between atoms: C_6  and  C_7 
REMARK    3  A    between atoms: C_7  and  N_8 
REMARK    4  A    between atoms: C_7  and  C_25 
REMARK    5  A    between atoms: N_8  and  C_11 
REMARK    6  A    between atoms: C_11  and  C_12 
REMARK       I    between atoms: C_12  and  N_13 
REMARK    7  A    between atoms: N_13  and  C_14 
ROOT
HETATM    1  N   UNL     1     -40.762  58.215 -53.892  1.00  0.00    -0.054 N 
HETATM    2  H   UNL     1     -39.889  58.690 -53.608  1.00  0.00     0.278 HD
HETATM    3  H   UNL     1     -40.492  57.681 -54.723  1.00  0.00     0.278 HD
ENDROOT
BRANCH   1   4
HETATM    4  C   UNL     1     -41.202  57.299 -52.798  1.00  0.00     0.259 C 
BRANCH   4   5
HETATM    5  C   UNL     1     -41.050  55.839 -53.190  1.00  0.00    -0.023 A 
HETATM    6  C   UNL     1     -40.844  55.507 -54.541  1.00  0.00     0.010 A 
HETATM    7  C   UNL     1     -40.667  54.179 -54.935  1.00  0.00     0.007 A 
HETATM    8  C   UNL     1     -40.687  53.149 -53.990  1.00  0.00    -0.059 A 
HETATM    9  C   UNL     1     -40.887  53.469 -52.644  1.00  0.00     0.007 A 
HETATM   10  C   UNL     1     -41.070  54.797 -52.246  1.00  0.00     0.010 A 
BRANCH   8  11
HETATM   11  C   UNL     1     -40.447  51.721 -54.412  1.00  0.00     0.034 C 
HETATM   12  C   UNL     1     -39.546  50.985 -53.429  1.00  0.00     0.010 C 
ENDBRANCH   8  11
ENDBRANCH   4   5
BRANCH   4  13
HETATM   13  C   UNL     1     -42.595  57.634 -52.320  1.00  0.00     0.017 A 
HETATM   14  S   UNL     1     -42.816  58.971 -51.260  1.00  0.00    -0.104 SA
HETATM   15  C   UNL     1     -44.505  58.735 -51.201  1.00  0.00     0.050 A 
HETATM   16  C   UNL     1     -44.905  57.669 -51.973  1.00  0.00     0.008 A 
HETATM   17  C   UNL     1     -43.805  57.033 -52.620  1.00  0.00     0.017 A 
ENDBRANCH   4  13
ENDBRANCH   1   4
BRANCH   1  18
HETATM   18  C   UNL     1     -41.746  59.286 -54.289  1.00  0.00     0.336 C 
BRANCH  18  19
HETATM   19  C   UNL     1     -42.186  59.077 -55.738  1.00  0.00     0.248 C 
HETATM   20  N   UNL     1     -43.126  58.081 -55.906  1.00  0.00    -0.326 N 
HETATM   21  H   UNL     1     -43.418  57.547 -55.093  1.00  0.00     0.169 HD
HETATM   22  O   UNL     1     -41.676  59.788 -56.602  1.00  0.00    -0.271 OA
BRANCH  20  23
HETATM   23  C   UNL     1     -43.738  57.684 -57.118  1.00  0.00     0.037 A 
HETATM   24  C   UNL     1     -43.353  56.553 -57.848  1.00  0.00     0.061 A 
HETATM   25  C   UNL     1     -44.037  56.299 -59.017  1.00  0.00     0.065 A 
HETATM   26  C   UNL     1     -45.071  57.112 -59.473  1.00  0.00     0.063 A 
HETATM   27  N   UNL     1     -43.870  55.268 -59.936  1.00  0.00    -0.306 N 
HETATM   28  N   UNL     1     -45.542  56.583 -60.668  1.00  0.00    -0.307 N 
HETATM   29  C   UNL     1     -45.477  58.226 -58.784  1.00  0.00     0.034 A 
HETATM   30  C   UNL     1     -44.801  55.432 -60.972  1.00  0.00     0.325 A 
HETATM   31  H   UNL     1     -46.284  56.936 -61.251  1.00  0.00     0.170 HD
HETATM   32  O   UNL     1     -44.937  54.713 -61.945  1.00  0.00    -0.247 OA
HETATM   33  C   UNL     1     -44.794  58.510 -57.593  1.00  0.00     0.032 A 
HETATM   34  H   UNL     1     -43.204  54.513 -59.906  1.00  0.00     0.170 HD
ENDBRANCH  20  23
ENDBRANCH  18  19
ENDBRANCH   1  18
TORSDOF 7
ENDMDL
MODEL 4
REMARK VINA RESULT:      -7.7      1.294      1.820
REMARK  7 active torsions:
REMARK  status: ('A' for Active; 'I' for Inactive)
REMARK    1  A    between atoms: C_2  and  C_3 
REMARK    2  A    between atoms: C_6  and  C_7 
REMARK    3  A    between atoms: C_7  and  N_8 
REMARK    4  A    between atoms: C_7  and  C_25 
REMARK    5  A    between atoms: N_8  and  C_11 
REMARK    6  A    between atoms: C_11  and  C_12 
REMARK       I    between atoms: C_12  and  N_13 
REMARK    7  A    between atoms: N_13  and  C_14 
ROOT
HETATM    1  N   UNL     1     -40.868  53.424 -50.985  1.00  0.00    -0.054 N 
HETATM    2  H   UNL     1     -41.896  53.430 -51.081  1.00  0.00     0.278 HD
HETATM    3  H   UNL     1     -40.676  52.580 -50.436  1.00  0.00     0.278 HD
ENDROOT
BRANCH   1   4
HETATM    4  C   UNL     1     -40.247  53.321 -52.339  1.00  0.00     0.259 C 
BRANCH   4   5
HETATM    5  C   UNL     1     -41.056  54.066 -53.389  1.00  0.00    -0.023 A 
HETATM    6  C   UNL     1     -40.383  54.792 -54.387  1.00  0.00     0.010 A 
HETATM    7  C   UNL     1     -41.091  55.461 -55.388  1.00  0.00     0.007 A 
HETATM    8  C   UNL     1     -42.487  55.419 -55.419  1.00  0.00    -0.059 A 
HETATM    9  C   UNL     1     -43.166  54.696 -54.434  1.00  0.00     0.007 A 
HETATM   10  C   UNL     1     -42.461  54.029 -53.428  1.00  0.00     0.010 A 
BRANCH   8  11
HETATM   11  C   UNL     1     -43.248  56.103 -56.529  1.00  0.00     0.034 C 
HETATM   12  C   UNL     1     -42.500  57.317 -57.061  1.00  0.00     0.010 C 
ENDBRANCH   8  11
ENDBRANCH   4   5
BRANCH   4  13
HETATM   13  C   UNL     1     -39.978  51.885 -52.719  1.00  0.00     0.017 A 
HETATM   14  S   UNL     1     -39.598  50.750 -51.483  1.00  0.00    -0.104 SA
HETATM   15  C   UNL     1     -39.465  49.469 -52.602  1.00  0.00     0.050 A 
HETATM   16  C   UNL     1     -39.710  49.882 -53.891  1.00  0.00     0.008 A 
HETATM   17  C   UNL     1     -40.007  51.275 -53.961  1.00  0.00     0.017 A 
ENDBRANCH   4  13
ENDBRANCH   1   4
BRANCH   1  18
HETATM   18  C   UNL     1     -40.484  54.638 -50.177  1.00  0.00     0.336 C 
BRANCH  18  19
HETATM   19  C   UNL     1     -41.373  55.820 -50.559  1.00  0.00     0.248 C 
HETATM   20  N   UNL     1     -40.702  56.855 -51.177  1.00  0.00    -0.326 N 
HETATM   21  H   UNL     1     -39.696  56.781 -51.294  1.00  0.00     0.169 HD
HETATM   22  O   UNL     1     -42.570  55.753 -50.285  1.00  0.00    -0.271 OA
BRANCH  20  23
HETATM   23  C   UNL     1     -41.260  58.059 -51.668  1.00  0.00     0.037 A 
HETATM   24  C   UNL     1     -41.705  59.101 -50.844  1.00  0.00     0.061 A 
HETATM   25  C   UNL     1     -42.235  60.210 -51.468  1.00  0.00     0.065 A 
HETATM   26  C   UNL     1     -42.333  60.317 -52.853  1.00  0.00     0.063 A 
HETATM   27  N   UNL     1     -42.754  61.375 -50.914  1.00  0.00    -0.306 N 
HETATM   28  N   UNL     1     -42.908  61.545 -53.151  1.00  0.00    -0.307 N 
HETATM   29  C   UNL     1     -41.906  59.319 -53.690  1.00  0.00     0.034 A 
HETATM   30  C   UNL     1     -43.179  62.218 -51.951  1.00  0.00     0.325 A 
HETATM   31  H   UNL     1     -43.116  61.926 -54.060  1.00  0.00     0.170 HD
HETATM   32  O   UNL     1     -43.684  63.319 -51.830  1.00  0.00    -0.247 OA
HETATM   33  C   UNL     1     -41.366  58.177 -53.081  1.00  0.00     0.032 A 
HETATM   34  H   UNL     1     -42.835  61.614 -49.939  1.00  0.00     0.170 HD
ENDBRANCH  20  23
ENDBRANCH  18  19
ENDBRANCH   1  18
TORSDOF 7
ENDMDL
MODEL 5
REMARK VINA RESULT:      -7.6      4.847      8.003
REMARK  7 active torsions:
REMARK  status: ('A' for Active; 'I' for Inactive)
REMARK    1  A    between atoms: C_2  and  C_3 
REMARK    2  A    between atoms: C_6  and  C_7 
REMARK    3  A    between atoms: C_7  and  N_8 
REMARK    4  A    between atoms: C_7  and  C_25 
REMARK    5  A    between atoms: N_8  and  C_11 
REMARK    6  A    between atoms: C_11  and  C_12 
REMARK       I    between atoms: C_12  and  N_13 
REMARK    7  A    between atoms: N_13  and  C_14 
ROOT
HETATM    1  N   UNL     1     -41.525  55.502 -55.323  1.00  0.00    -0.054 N 
HETATM    2  H   UNL     1     -40.867  55.031 -55.965  1.00  0.00     0.278 HD
HETATM    3  H   UNL     1     -42.380  54.942 -55.393  1.00  0.00     0.278 HD
ENDROOT
BRANCH   1   4
HETATM    4  C   UNL     1     -40.978  55.453 -53.934  1.00  0.00     0.259 C 
BRANCH   4   5
HETATM    5  C   UNL     1     -40.623  54.035 -53.517  1.00  0.00    -0.023 A 
HETATM    6  C   UNL     1     -40.441  53.053 -54.506  1.00  0.00     0.010 A 
HETATM    7  C   UNL     1     -40.081  51.747 -54.164  1.00  0.00     0.007 A 
HETATM    8  C   UNL     1     -39.890  51.391 -52.826  1.00  0.00    -0.059 A 
HETATM    9  C   UNL     1     -40.064  52.362 -51.835  1.00  0.00     0.007 A 
HETATM   10  C   UNL     1     -40.429  53.668 -52.174  1.00  0.00     0.010 A 
BRANCH   8  11
HETATM   11  C   UNL     1     -39.454  49.993 -52.462  1.00  0.00     0.034 C 
HETATM   12  C   UNL     1     -39.490  49.764 -50.958  1.00  0.00     0.010 C 
ENDBRANCH   8  11
ENDBRANCH   4   5
BRANCH   4  13
HETATM   13  C   UNL     1     -41.897  56.138 -52.951  1.00  0.00     0.017 A 
HETATM   14  S   UNL     1     -41.279  57.420 -51.983  1.00  0.00    -0.104 SA
HETATM   15  C   UNL     1     -42.786  57.666 -51.222  1.00  0.00     0.050 A 
HETATM   16  C   UNL     1     -43.749  56.803 -51.692  1.00  0.00     0.008 A 
HETATM   17  C   UNL     1     -43.238  55.921 -52.689  1.00  0.00     0.017 A 
ENDBRANCH   4  13
ENDBRANCH   1   4
BRANCH   1  18
HETATM   18  C   UNL     1     -41.788  56.879 -55.878  1.00  0.00     0.336 C 
BRANCH  18  19
HETATM   19  C   UNL     1     -43.119  56.893 -56.627  1.00  0.00     0.248 C 
HETATM   20  N   UNL     1     -43.013  56.614 -57.974  1.00  0.00    -0.326 N 
HETATM   21  H   UNL     1     -42.089  56.466 -58.368  1.00  0.00     0.169 HD
HETATM   22  O   UNL     1     -44.137  57.150 -55.988  1.00  0.00    -0.271 OA
BRANCH  20  23
HETATM   23  C   UNL     1     -44.069  56.527 -58.912  1.00  0.00     0.037 A 
HETATM   24  C   UNL     1     -44.985  57.560 -59.147  1.00  0.00     0.061 A 
HETATM   25  C   UNL     1     -45.967  57.324 -60.086  1.00  0.00     0.065 A 
HETATM   26  C   UNL     1     -46.064  56.125 -60.784  1.00  0.00     0.063 A 
HETATM   27  N   UNL     1     -47.000  58.152 -60.514  1.00  0.00    -0.306 N 
HETATM   28  N   UNL     1     -47.152  56.212 -61.643  1.00  0.00    -0.307 N 
HETATM   29  C   UNL     1     -45.185  55.093 -60.582  1.00  0.00     0.034 A 
HETATM   30  C   UNL     1     -47.749  57.472 -61.485  1.00  0.00     0.325 A 
HETATM   31  H   UNL     1     -47.493  55.514 -62.284  1.00  0.00     0.170 HD
HETATM   32  O   UNL     1     -48.726  57.895 -62.074  1.00  0.00    -0.247 OA
HETATM   33  C   UNL     1     -44.178  55.304 -59.629  1.00  0.00     0.032 A 
HETATM   34  H   UNL     1     -47.214  59.086 -60.205  1.00  0.00     0.170 HD
ENDBRANCH  20  23
ENDBRANCH  18  19
ENDBRANCH   1  18
TORSDOF 7
ENDMDL
MODEL 6
REMARK VINA RESULT:      -7.5      4.533      7.754
REMARK  7 active torsions:
REMARK  status: ('A' for Active; 'I' for Inactive)
REMARK    1  A    between atoms: C_2  and  C_3 
REMARK    2  A    between atoms: C_6  and  C_7 
REMARK    3  A    between atoms: C_7  and  N_8 
REMARK    4  A    between atoms: C_7  and  C_25 
REMARK    5  A    between atoms: N_8  and  C_11 
REMARK    6  A    between atoms: C_11  and  C_12 
REMARK       I    between atoms: C_12  and  N_13 
REMARK    7  A    between atoms: N_13  and  C_14 
ROOT
HETATM    1  N   UNL     1     -43.242  57.776 -52.710  1.00  0.00    -0.054 N 
HETATM    2  H   UNL     1     -43.670  56.837 -52.660  1.00  0.00     0.278 HD
HETATM    3  H   UNL     1     -43.380  58.160 -51.770  1.00  0.00     0.278 HD
ENDROOT
BRANCH   1   4
HETATM    4  C   UNL     1     -41.786  57.639 -53.012  1.00  0.00     0.259 C 
BRANCH   4   5
HETATM    5  C   UNL     1     -41.394  56.191 -53.255  1.00  0.00    -0.023 A 
HETATM    6  C   UNL     1     -40.816  55.833 -54.486  1.00  0.00     0.010 A 
HETATM    7  C   UNL     1     -40.411  54.519 -54.733  1.00  0.00     0.007 A 
HETATM    8  C   UNL     1     -40.571  53.532 -53.758  1.00  0.00    -0.059 A 
HETATM    9  C   UNL     1     -41.140  53.879 -52.529  1.00  0.00     0.007 A 
HETATM   10  C   UNL     1     -41.551  55.192 -52.279  1.00  0.00     0.010 A 
BRANCH   8  11
HETATM   11  C   UNL     1     -40.089  52.124 -54.010  1.00  0.00     0.034 C 
HETATM   12  C   UNL     1     -39.471  51.507 -52.763  1.00  0.00     0.010 C 
ENDBRANCH   8  11
ENDBRANCH   4   5
BRANCH   4  13
HETATM   13  C   UNL     1     -40.935  58.307 -51.959  1.00  0.00     0.017 A 
HETATM   14  S   UNL     1     -39.372  58.884 -52.389  1.00  0.00    -0.104 SA
HETATM   15  C   UNL     1     -39.078  59.471 -50.814  1.00  0.00     0.050 A 
HETATM   16  C   UNL     1     -40.142  59.246 -49.972  1.00  0.00     0.008 A 
HETATM   17  C   UNL     1     -41.214  58.575 -50.630  1.00  0.00     0.017 A 
ENDBRANCH   4  13
ENDBRANCH   1   4
BRANCH   1  18
HETATM   18  C   UNL     1     -44.046  58.585 -53.696  1.00  0.00     0.336 C 
BRANCH  18  19
HETATM   19  C   UNL     1     -44.523  57.689 -54.838  1.00  0.00     0.248 C 
HETATM   20  N   UNL     1     -44.633  58.332 -56.054  1.00  0.00    -0.326 N 
HETATM   21  H   UNL     1     -44.437  59.327 -56.096  1.00  0.00     0.169 HD
HETATM   22  O   UNL     1     -44.767  56.511 -54.582  1.00  0.00    -0.271 OA
BRANCH  20  23
HETATM   23  C   UNL     1     -45.019  57.758 -57.288  1.00  0.00     0.037 A 
HETATM   24  C   UNL     1     -44.213  56.879 -58.022  1.00  0.00     0.061 A 
HETATM   25  C   UNL     1     -44.723  56.409 -59.213  1.00  0.00     0.065 A 
HETATM   26  C   UNL     1     -45.979  56.773 -59.687  1.00  0.00     0.063 A 
HETATM   27  N   UNL     1     -44.152  55.542 -60.140  1.00  0.00    -0.306 N 
HETATM   28  N   UNL     1     -46.185  56.131 -60.902  1.00  0.00    -0.307 N 
HETATM   29  C   UNL     1     -46.797  57.629 -58.996  1.00  0.00     0.034 A 
HETATM   30  C   UNL     1     -45.052  55.360 -61.200  1.00  0.00     0.325 A 
HETATM   31  H   UNL     1     -46.993  56.185 -61.502  1.00  0.00     0.170 HD
HETATM   32  O   UNL     1     -44.880  54.667 -62.186  1.00  0.00    -0.247 OA
HETATM   33  C   UNL     1     -46.302  58.126 -57.782  1.00  0.00     0.032 A 
HETATM   34  H   UNL     1     -43.248  55.101 -60.101  1.00  0.00     0.170 HD
ENDBRANCH  20  23
ENDBRANCH  18  19
ENDBRANCH   1  18
TORSDOF 7
ENDMDL
MODEL 7
REMARK VINA RESULT:      -7.5      6.186      9.154
REMARK  7 active torsions:
REMARK  status: ('A' for Active; 'I' for Inactive)
REMARK    1  A    between atoms: C_2  and  C_3 
REMARK    2  A    between atoms: C_6  and  C_7 
REMARK    3  A    between atoms: C_7  and  N_8 
REMARK    4  A    between atoms: C_7  and  C_25 
REMARK    5  A    between atoms: N_8  and  C_11 
REMARK    6  A    between atoms: C_11  and  C_12 
REMARK       I    between atoms: C_12  and  N_13 
REMARK    7  A    between atoms: N_13  and  C_14 
ROOT
HETATM    1  N   UNL     1     -43.687  55.923 -56.939  1.00  0.00    -0.054 N 
HETATM    2  H   UNL     1     -44.314  55.200 -56.551  1.00  0.00     0.278 HD
HETATM    3  H   UNL     1     -44.304  56.725 -57.097  1.00  0.00     0.278 HD
ENDROOT
BRANCH   1   4
HETATM    4  C   UNL     1     -42.638  56.259 -55.931  1.00  0.00     0.259 C 
BRANCH   4   5
HETATM    5  C   UNL     1     -41.954  55.014 -55.392  1.00  0.00    -0.023 A 
HETATM    6  C   UNL     1     -40.554  55.003 -55.254  1.00  0.00     0.010 A 
HETATM    7  C   UNL     1     -39.893  53.890 -54.731  1.00  0.00     0.007 A 
HETATM    8  C   UNL     1     -40.612  52.761 -54.329  1.00  0.00    -0.059 A 
HETATM    9  C   UNL     1     -42.004  52.763 -54.458  1.00  0.00     0.007 A 
HETATM   10  C   UNL     1     -42.669  53.873 -54.985  1.00  0.00     0.010 A 
BRANCH   8  11
HETATM   11  C   UNL     1     -39.899  51.578 -53.720  1.00  0.00     0.034 C 
HETATM   12  C   UNL     1     -40.255  50.279 -54.428  1.00  0.00     0.010 C 
ENDBRANCH   8  11
ENDBRANCH   4   5
BRANCH   4  13
HETATM   13  C   UNL     1     -43.182  57.146 -54.837  1.00  0.00     0.017 A 
HETATM   14  S   UNL     1     -42.379  58.626 -54.483  1.00  0.00    -0.104 SA
HETATM   15  C   UNL     1     -43.505  59.028 -53.265  1.00  0.00     0.050 A 
HETATM   16  C   UNL     1     -44.480  58.068 -53.128  1.00  0.00     0.008 A 
HETATM   17  C   UNL     1     -44.297  56.982 -54.033  1.00  0.00     0.017 A 
ENDBRANCH   4  13
ENDBRANCH   1   4
BRANCH   1  18
HETATM   18  C   UNL     1     -43.184  55.416 -58.267  1.00  0.00     0.336 C 
BRANCH  18  19
HETATM   19  C   UNL     1     -43.964  56.073 -59.404  1.00  0.00     0.248 C 
HETATM   20  N   UNL     1     -45.255  56.428 -59.074  1.00  0.00    -0.326 N 
HETATM   21  H   UNL     1     -45.600  56.199 -58.147  1.00  0.00     0.169 HD
HETATM   22  O   UNL     1     -43.394  56.219 -60.484  1.00  0.00    -0.271 OA
BRANCH  20  23
HETATM   23  C   UNL     1     -46.200  57.077 -59.905  1.00  0.00     0.037 A 
HETATM   24  C   UNL     1     -47.017  56.405 -60.822  1.00  0.00     0.061 A 
HETATM   25  C   UNL     1     -47.882  57.174 -61.570  1.00  0.00     0.065 A 
HETATM   26  C   UNL     1     -47.963  58.557 -61.437  1.00  0.00     0.063 A 
HETATM   27  N   UNL     1     -48.793  56.786 -62.548  1.00  0.00    -0.306 N 
HETATM   28  N   UNL     1     -48.923  59.021 -62.327  1.00  0.00    -0.307 N 
HETATM   29  C   UNL     1     -47.181  59.248 -60.548  1.00  0.00     0.034 A 
HETATM   30  C   UNL     1     -49.449  57.927 -63.031  1.00  0.00     0.325 A 
HETATM   31  H   UNL     1     -49.218  59.972 -62.479  1.00  0.00     0.170 HD
HETATM   32  O   UNL     1     -50.308  57.960 -63.892  1.00  0.00    -0.247 OA
HETATM   33  C   UNL     1     -46.288  58.490 -59.777  1.00  0.00     0.032 A 
HETATM   34  H   UNL     1     -48.980  55.856 -62.886  1.00  0.00     0.170 HD
ENDBRANCH  20  23
ENDBRANCH  18  19
ENDBRANCH   1  18
TORSDOF 7
ENDMDL
MODEL 8
REMARK VINA RESULT:      -7.5      5.389      8.371
REMARK  7 active torsions:
REMARK  status: ('A' for Active; 'I' for Inactive)
REMARK    1  A    between atoms: C_2  and  C_3 
REMARK    2  A    between atoms: C_6  and  C_7 
REMARK    3  A    between atoms: C_7  and  N_8 
REMARK    4  A    between atoms: C_7  and  C_25 
REMARK    5  A    between atoms: N_8  and  C_11 
REMARK    6  A    between atoms: C_11  and  C_12 
REMARK       I    between atoms: C_12  and  N_13 
REMARK    7  A    between atoms: N_13  and  C_14 
ROOT
HETATM    1  N   UNL     1     -42.309  56.577 -55.704  1.00  0.00    -0.054 N 
HETATM    2  H   UNL     1     -41.784  56.005 -56.386  1.00  0.00     0.278 HD
HETATM    3  H   UNL     1     -43.229  56.128 -55.663  1.00  0.00     0.278 HD
ENDROOT
BRANCH   1   4
HETATM    4  C   UNL     1     -41.631  56.506 -54.376  1.00  0.00     0.259 C 
BRANCH   4   5
HETATM    5  C   UNL     1     -41.139  55.102 -54.067  1.00  0.00    -0.023 A 
HETATM    6  C   UNL     1     -40.728  54.270 -55.123  1.00  0.00     0.010 A 
HETATM    7  C   UNL     1     -40.239  52.985 -54.876  1.00  0.00     0.007 A 
HETATM    8  C   UNL     1     -40.144  52.500 -53.569  1.00  0.00    -0.059 A 
HETATM    9  C   UNL     1     -40.546  53.322 -52.511  1.00  0.00     0.007 A 
HETATM   10  C   UNL     1     -41.041  54.606 -52.755  1.00  0.00     0.010 A 
BRANCH   8  11
HETATM   11  C   UNL     1     -39.570  51.131 -53.302  1.00  0.00     0.034 C 
HETATM   12  C   UNL     1     -40.025  50.115 -54.341  1.00  0.00     0.010 C 
ENDBRANCH   8  11
ENDBRANCH   4   5
BRANCH   4  13
HETATM   13  C   UNL     1     -42.497  57.076 -53.279  1.00  0.00     0.017 A 
HETATM   14  S   UNL     1     -41.876  58.346 -52.298  1.00  0.00    -0.104 SA
HETATM   15  C   UNL     1     -43.321  58.450 -51.395  1.00  0.00     0.050 A 
HETATM   16  C   UNL     1     -44.265  57.548 -51.826  1.00  0.00     0.008 A 
HETATM   17  C   UNL     1     -43.793  56.755 -52.913  1.00  0.00     0.017 A 
ENDBRANCH   4  13
ENDBRANCH   1   4
BRANCH   1  18
HETATM   18  C   UNL     1     -42.457  57.956 -56.294  1.00  0.00     0.336 C 
BRANCH  18  19
HETATM   19  C   UNL     1     -43.138  57.869 -57.659  1.00  0.00     0.248 C 
HETATM   20  N   UNL     1     -44.500  58.088 -57.627  1.00  0.00    -0.326 N 
HETATM   21  H   UNL     1     -44.945  58.245 -56.728  1.00  0.00     0.169 HD
HETATM   22  O   UNL     1     -42.438  57.612 -58.637  1.00  0.00    -0.271 OA
BRANCH  20  23
HETATM   23  C   UNL     1     -45.387  58.101 -58.729  1.00  0.00     0.037 A 
HETATM   24  C   UNL     1     -45.911  56.944 -59.317  1.00  0.00     0.061 A 
HETATM   25  C   UNL     1     -46.757  57.116 -60.393  1.00  0.00     0.065 A 
HETATM   26  C   UNL     1     -47.093  58.372 -60.889  1.00  0.00     0.063 A 
HETATM   27  N   UNL     1     -47.410  56.163 -61.167  1.00  0.00    -0.306 N 
HETATM   28  N   UNL     1     -47.953  58.194 -61.965  1.00  0.00    -0.307 N 
HETATM   29  C   UNL     1     -46.601  59.527 -60.338  1.00  0.00     0.034 A 
HETATM   30  C   UNL     1     -48.160  56.820 -62.153  1.00  0.00     0.325 A 
HETATM   31  H   UNL     1     -48.377  58.903 -62.542  1.00  0.00     0.170 HD
HETATM   32  O   UNL     1     -48.854  56.297 -63.005  1.00  0.00    -0.247 OA
HETATM   33  C   UNL     1     -45.735  59.380 -59.245  1.00  0.00     0.032 A 
HETATM   34  H   UNL     1     -47.377  55.160 -61.074  1.00  0.00     0.170 HD
ENDBRANCH  20  23
ENDBRANCH  18  19
ENDBRANCH   1  18
TORSDOF 7
ENDMDL
MODEL 9
REMARK VINA RESULT:      -7.4     15.808     18.822
REMARK  7 active torsions:
REMARK  status: ('A' for Active; 'I' for Inactive)
REMARK    1  A    between atoms: C_2  and  C_3 
REMARK    2  A    between atoms: C_6  and  C_7 
REMARK    3  A    between atoms: C_7  and  N_8 
REMARK    4  A    between atoms: C_7  and  C_25 
REMARK    5  A    between atoms: N_8  and  C_11 
REMARK    6  A    between atoms: C_11  and  C_12 
REMARK       I    between atoms: C_12  and  N_13 
REMARK    7  A    between atoms: N_13  and  C_14 
ROOT
HETATM    1  N   UNL     1     -34.638  41.908 -53.956  1.00  0.00    -0.054 N 
HETATM    2  H   UNL     1     -34.247  42.510 -53.213  1.00  0.00     0.278 HD
HETATM    3  H   UNL     1     -34.164  42.227 -54.806  1.00  0.00     0.278 HD
ENDROOT
BRANCH   1   4
HETATM    4  C   UNL     1     -34.295  40.484 -53.668  1.00  0.00     0.259 C 
BRANCH   4   5
HETATM    5  C   UNL     1     -33.620  40.328 -52.315  1.00  0.00    -0.023 A 
HETATM    6  C   UNL     1     -34.414  40.147 -51.169  1.00  0.00     0.010 A 
HETATM    7  C   UNL     1     -33.830  39.967 -49.912  1.00  0.00     0.007 A 
HETATM    8  C   UNL     1     -32.440  39.959 -49.770  1.00  0.00    -0.059 A 
HETATM    9  C   UNL     1     -31.642  40.133 -50.905  1.00  0.00     0.007 A 
HETATM   10  C   UNL     1     -32.223  40.319 -52.163  1.00  0.00     0.010 A 
BRANCH   8  11
HETATM   11  C   UNL     1     -31.811  39.716 -48.420  1.00  0.00     0.034 C 
HETATM   12  C   UNL     1     -32.086  38.306 -47.915  1.00  0.00     0.010 C 
ENDBRANCH   8  11
ENDBRANCH   4   5
BRANCH   4  13
HETATM   13  C   UNL     1     -33.498  39.866 -54.792  1.00  0.00     0.017 A 
HETATM   14  S   UNL     1     -33.436  38.152 -54.929  1.00  0.00    -0.104 SA
HETATM   15  C   UNL     1     -32.457  38.228 -56.325  1.00  0.00     0.050 A 
HETATM   16  C   UNL     1     -32.183  39.525 -56.693  1.00  0.00     0.008 A 
HETATM   17  C   UNL     1     -32.783  40.471 -55.811  1.00  0.00     0.017 A 
ENDBRANCH   4  13
ENDBRANCH   1   4
BRANCH   1  18
HETATM   18  C   UNL     1     -36.109  42.222 -54.061  1.00  0.00     0.336 C 
BRANCH  18  19
HETATM   19  C   UNL     1     -36.708  41.512 -55.273  1.00  0.00     0.248 C 
HETATM   20  N   UNL     1     -36.090  41.817 -56.469  1.00  0.00    -0.326 N 
HETATM   21  H   UNL     1     -35.336  42.497 -56.467  1.00  0.00     0.169 HD
HETATM   22  O   UNL     1     -37.662  40.760 -55.087  1.00  0.00    -0.271 OA
BRANCH  20  23
HETATM   23  C   UNL     1     -36.403  41.294 -57.747  1.00  0.00     0.037 A 
HETATM   24  C   UNL     1     -36.066  39.999 -58.159  1.00  0.00     0.061 A 
HETATM   25  C   UNL     1     -36.431  39.635 -59.438  1.00  0.00     0.065 A 
HETATM   26  C   UNL     1     -37.106  40.495 -60.299  1.00  0.00     0.063 A 
HETATM   27  N   UNL     1     -36.225  38.435 -60.110  1.00  0.00    -0.306 N 
HETATM   28  N   UNL     1     -37.319  39.826 -61.497  1.00  0.00    -0.307 N 
HETATM   29  C   UNL     1     -37.454  41.768 -59.929  1.00  0.00     0.034 A 
HETATM   30  C   UNL     1     -36.772  38.538 -61.397  1.00  0.00     0.325 A 
HETATM   31  H   UNL     1     -37.778  40.170 -62.325  1.00  0.00     0.170 HD
HETATM   32  O   UNL     1     -36.772  37.677 -62.257  1.00  0.00    -0.247 OA
HETATM   33  C   UNL     1     -37.092  42.166 -58.634  1.00  0.00     0.032 A 
HETATM   34  H   UNL     1     -35.762  37.606 -59.771  1.00  0.00     0.170 HD
ENDBRANCH  20  23
ENDBRANCH  18  19
ENDBRANCH   1  18
TORSDOF 7
ENDMDL
MODEL 10
REMARK VINA RESULT:      -7.4      5.419      7.926
REMARK  7 active torsions:
REMARK  status: ('A' for Active; 'I' for Inactive)
REMARK    1  A    between atoms: C_2  and  C_3 
REMARK    2  A    between atoms: C_6  and  C_7 
REMARK    3  A    between atoms: C_7  and  N_8 
REMARK    4  A    between atoms: C_7  and  C_25 
REMARK    5  A    between atoms: N_8  and  C_11 
REMARK    6  A    between atoms: C_11  and  C_12 
REMARK       I    between atoms: C_12  and  N_13 
REMARK    7  A    between atoms: N_13  and  C_14 
ROOT
HETATM    1  N   UNL     1     -43.528  55.891 -55.711  1.00  0.00    -0.054 N 
HETATM    2  H   UNL     1     -44.063  55.065 -55.398  1.00  0.00     0.278 HD
HETATM    3  H   UNL     1     -44.204  56.659 -55.653  1.00  0.00     0.278 HD
ENDROOT
BRANCH   1   4
HETATM    4  C   UNL     1     -42.388  56.124 -54.776  1.00  0.00     0.259 C 
BRANCH   4   5
HETATM    5  C   UNL     1     -41.693  54.826 -54.399  1.00  0.00    -0.023 A 
HETATM    6  C   UNL     1     -40.614  54.372 -55.178  1.00  0.00     0.010 A 
HETATM    7  C   UNL     1     -39.930  53.201 -54.844  1.00  0.00     0.007 A 
HETATM    8  C   UNL     1     -40.303  52.456 -53.722  1.00  0.00    -0.059 A 
HETATM    9  C   UNL     1     -41.372  52.901 -52.938  1.00  0.00     0.007 A 
HETATM   10  C   UNL     1     -42.062  54.070 -53.272  1.00  0.00     0.010 A 
BRANCH   8  11
HETATM   11  C   UNL     1     -39.531  51.219 -53.335  1.00  0.00     0.034 C 
HETATM   12  C   UNL     1     -39.792  50.067 -54.296  1.00  0.00     0.010 C 
ENDBRANCH   8  11
ENDBRANCH   4   5
BRANCH   4  13
HETATM   13  C   UNL     1     -42.812  56.930 -53.572  1.00  0.00     0.017 A 
HETATM   14  S   UNL     1     -41.625  57.824 -52.704  1.00  0.00    -0.104 SA
HETATM   15  C   UNL     1     -42.782  58.428 -51.605  1.00  0.00     0.050 A 
HETATM   16  C   UNL     1     -44.049  57.972 -51.887  1.00  0.00     0.008 A 
HETATM   17  C   UNL     1     -44.069  57.109 -53.021  1.00  0.00     0.017 A 
ENDBRANCH   4  13
ENDBRANCH   1   4
BRANCH   1  18
HETATM   18  C   UNL     1     -43.159  55.666 -57.156  1.00  0.00     0.336 C 
BRANCH  18  19
HETATM   19  C   UNL     1     -43.305  56.969 -57.940  1.00  0.00     0.248 C 
HETATM   20  N   UNL     1     -42.118  57.640 -58.148  1.00  0.00    -0.326 N 
HETATM   21  H   UNL     1     -41.267  57.259 -57.745  1.00  0.00     0.169 HD
HETATM   22  O   UNL     1     -44.433  57.300 -58.302  1.00  0.00    -0.271 OA
BRANCH  20  23
HETATM   23  C   UNL     1     -41.937  58.849 -58.862  1.00  0.00     0.037 A 
HETATM   24  C   UNL     1     -42.048  58.952 -60.254  1.00  0.00     0.061 A 
HETATM   25  C   UNL     1     -41.834  60.196 -60.808  1.00  0.00     0.065 A 
HETATM   26  C   UNL     1     -41.525  61.316 -60.042  1.00  0.00     0.063 A 
HETATM   27  N   UNL     1     -41.870  60.590 -62.142  1.00  0.00    -0.306 N 
HETATM   28  N   UNL     1     -41.373  62.397 -60.899  1.00  0.00    -0.307 N 
HETATM   29  C   UNL     1     -41.411  61.253 -58.677  1.00  0.00     0.034 A 
HETATM   30  C   UNL     1     -41.584  61.961 -62.215  1.00  0.00     0.325 A 
HETATM   31  H   UNL     1     -41.147  63.350 -60.661  1.00  0.00     0.170 HD
HETATM   32  O   UNL     1     -41.529  62.637 -63.226  1.00  0.00    -0.247 OA
HETATM   33  C   UNL     1     -41.618  59.998 -58.087  1.00  0.00     0.032 A 
HETATM   34  H   UNL     1     -42.061  60.021 -62.951  1.00  0.00     0.170 HD
ENDBRANCH  20  23
ENDBRANCH  18  19
ENDBRANCH   1  18
TORSDOF 7
ENDMDL
