MODEL 1
REMARK VINA RESULT:      -8.1      0.000      0.000
REMARK  6 active torsions:
REMARK  status: ('A' for Active; 'I' for Inactive)
REMARK    1  A    between atoms: C_5  and  C_6 
REMARK    2  A    between atoms: C_6  and  O_7 
REMARK    3  A    between atoms: C_6  and  C_8 
REMARK    4  A    between atoms: C_8  and  N_9 
REMARK    5  A    between atoms: C_11  and  C_12 
REMARK    6  A    between atoms: C_13  and  O_14 
ROOT
HETATM    1  N   UNL     1     -41.929  55.436 -53.499  1.00  0.00    -0.395 N 
HETATM    2  H   UNL     1     -42.647  55.214 -52.791  1.00  0.00     0.159 HD
HETATM    3  C   UNL     1     -40.852  54.734 -53.463  1.00  0.00     0.098 C 
ENDROOT
BRANCH   1   4
HETATM    4  C   UNL     1     -42.247  56.514 -54.468  1.00  0.00     0.155 C 
BRANCH   4   5
HETATM    5  C   UNL     1     -42.743  57.769 -53.730  1.00  0.00     0.170 C 
BRANCH   5   6
HETATM    6  C   UNL     1     -41.741  58.320 -52.748  1.00  0.00    -0.011 A 
HETATM    7  C   UNL     1     -40.479  58.711 -53.188  1.00  0.00     0.126 A 
HETATM    8  N   UNL     1     -39.503  59.172 -52.380  1.00  0.00    -0.265 NA
HETATM    9  C   UNL     1     -39.782  59.303 -51.063  1.00  0.00     0.030 A 
HETATM   10  C   UNL     1     -38.710  59.877 -50.184  1.00  0.00     0.070 C 
HETATM   11  C   UNL     1     -41.017  58.956 -50.529  1.00  0.00     0.027 A 
HETATM   12  C   UNL     1     -41.999  58.449 -51.379  1.00  0.00     0.013 A 
ENDBRANCH   5   6
BRANCH   5  13
HETATM   13  O   UNL     1     -43.986  57.459 -53.095  1.00  0.00    -0.389 OA
HETATM   14  H   UNL     1     -43.840  57.531 -52.130  1.00  0.00     0.210 HD
ENDBRANCH   5  13
ENDBRANCH   4   5
ENDBRANCH   1   4
BRANCH   3  15
HETATM   15  C   UNL     1     -40.592  53.674 -52.457  1.00  0.00     0.023 A 
HETATM   16  C   UNL     1     -40.631  53.985 -51.082  1.00  0.00     0.078 A 
HETATM   17  C   UNL     1     -40.335  53.024 -50.124  1.00  0.00     0.038 A 
HETATM   18  C   UNL     1     -40.000  51.736 -50.531  1.00  0.00     0.015 A 
HETATM   19  C   UNL     1     -39.968  51.386 -51.888  1.00  0.00    -0.025 A 
HETATM   20  C   UNL     1     -40.270  52.351 -52.887  1.00  0.00    -0.012 A 
HETATM   21  C   UNL     1     -39.637  50.070 -52.248  1.00  0.00     0.012 A 
HETATM   22  C   UNL     1     -40.237  51.907 -54.237  1.00  0.00     0.013 A 
HETATM   23  C   UNL     1     -39.909  50.591 -54.575  1.00  0.00     0.001 A 
HETATM   24  C   UNL     1     -39.605  49.674 -53.581  1.00  0.00     0.001 A 
BRANCH  16  25
HETATM   25  O   UNL     1     -40.963  55.254 -50.670  1.00  0.00    -0.360 OA
HETATM   26  H   UNL     1     -41.520  55.663 -51.366  1.00  0.00     0.217 HD
ENDBRANCH  16  25
ENDBRANCH   3  15
TORSDOF 6
ENDMDL
MODEL 2
REMARK VINA RESULT:      -7.8      3.063      4.804
REMARK  6 active torsions:
REMARK  status: ('A' for Active; 'I' for Inactive)
REMARK    1  A    between atoms: C_5  and  C_6 
REMARK    2  A    between atoms: C_6  and  O_7 
REMARK    3  A    between atoms: C_6  and  C_8 
REMARK    4  A    between atoms: C_8  and  N_9 
REMARK    5  A    between atoms: C_11  and  C_12 
REMARK    6  A    between atoms: C_13  and  O_14 
ROOT
HETATM    1  N   UNL     1     -42.142  55.276 -53.980  1.00  0.00    -0.395 N 
HETATM    2  H   UNL     1     -42.805  55.173 -53.196  1.00  0.00     0.159 HD
HETATM    3  C   UNL     1     -41.055  54.591 -53.907  1.00  0.00     0.098 C 
ENDROOT
BRANCH   1   4
HETATM    4  C   UNL     1     -42.540  56.180 -55.087  1.00  0.00     0.155 C 
BRANCH   4   5
HETATM    5  C   UNL     1     -42.585  55.411 -56.418  1.00  0.00     0.170 C 
BRANCH   5   6
HETATM    6  C   UNL     1     -42.885  56.291 -57.606  1.00  0.00    -0.011 A 
HETATM    7  C   UNL     1     -42.756  57.673 -57.497  1.00  0.00     0.126 A 
HETATM    8  N   UNL     1     -43.044  58.541 -58.487  1.00  0.00    -0.265 NA
HETATM    9  C   UNL     1     -43.441  58.035 -59.677  1.00  0.00     0.030 A 
HETATM   10  C   UNL     1     -43.696  59.007 -60.791  1.00  0.00     0.070 C 
HETATM   11  C   UNL     1     -43.583  56.669 -59.890  1.00  0.00     0.027 A 
HETATM   12  C   UNL     1     -43.313  55.792 -58.841  1.00  0.00     0.013 A 
ENDBRANCH   5   6
BRANCH   5  13
HETATM   13  O   UNL     1     -43.537  54.351 -56.296  1.00  0.00    -0.389 OA
HETATM   14  H   UNL     1     -43.031  53.513 -56.276  1.00  0.00     0.210 HD
ENDBRANCH   5  13
ENDBRANCH   4   5
ENDBRANCH   1   4
BRANCH   3  15
HETATM   15  C   UNL     1     -40.712  53.710 -52.762  1.00  0.00     0.023 A 
HETATM   16  C   UNL     1     -40.730  54.225 -51.449  1.00  0.00     0.078 A 
HETATM   17  C   UNL     1     -40.358  53.436 -50.368  1.00  0.00     0.038 A 
HETATM   18  C   UNL     1     -39.965  52.120 -50.588  1.00  0.00     0.015 A 
HETATM   19  C   UNL     1     -39.951  51.570 -51.878  1.00  0.00    -0.025 A 
HETATM   20  C   UNL     1     -40.331  52.355 -52.999  1.00  0.00    -0.012 A 
HETATM   21  C   UNL     1     -39.559  50.232 -52.046  1.00  0.00     0.012 A 
HETATM   22  C   UNL     1     -40.311  51.713 -54.267  1.00  0.00     0.013 A 
HETATM   23  C   UNL     1     -39.922  50.378 -54.414  1.00  0.00     0.001 A 
HETATM   24  C   UNL     1     -39.543  49.639 -53.304  1.00  0.00     0.001 A 
BRANCH  16  25
HETATM   25  O   UNL     1     -41.119  55.524 -51.222  1.00  0.00    -0.360 OA
HETATM   26  H   UNL     1     -40.312  56.079 -51.175  1.00  0.00     0.217 HD
ENDBRANCH  16  25
ENDBRANCH   3  15
TORSDOF 6
ENDMDL
MODEL 3
REMARK VINA RESULT:      -7.8      2.375      4.351
REMARK  6 active torsions:
REMARK  status: ('A' for Active; 'I' for Inactive)
REMARK    1  A    between atoms: C_5  and  C_6 
REMARK    2  A    between atoms: C_6  and  O_7 
REMARK    3  A    between atoms: C_6  and  C_8 
REMARK    4  A    between atoms: C_8  and  N_9 
REMARK    5  A    between atoms: C_11  and  C_12 
REMARK    6  A    between atoms: C_13  and  O_14 
ROOT
HETATM    1  N   UNL     1     -42.827  56.978 -52.529  1.00  0.00    -0.395 N 
HETATM    2  H   UNL     1     -43.462  56.570 -51.826  1.00  0.00     0.159 HD
HETATM    3  C   UNL     1     -41.648  56.468 -52.602  1.00  0.00     0.098 C 
ENDROOT
BRANCH   1   4
HETATM    4  C   UNL     1     -43.363  58.078 -53.368  1.00  0.00     0.155 C 
BRANCH   4   5
HETATM    5  C   UNL     1     -44.490  57.559 -54.277  1.00  0.00     0.170 C 
BRANCH   5   6
HETATM    6  C   UNL     1     -44.000  57.082 -55.621  1.00  0.00    -0.011 A 
HETATM    7  C   UNL     1     -44.310  57.805 -56.770  1.00  0.00     0.126 A 
HETATM    8  N   UNL     1     -43.956  57.435 -58.017  1.00  0.00    -0.265 NA
HETATM    9  C   UNL     1     -43.215  56.312 -58.158  1.00  0.00     0.030 A 
HETATM   10  C   UNL     1     -42.773  55.945 -59.544  1.00  0.00     0.070 C 
HETATM   11  C   UNL     1     -42.841  55.531 -57.071  1.00  0.00     0.027 A 
HETATM   12  C   UNL     1     -43.248  55.915 -55.794  1.00  0.00     0.013 A 
ENDBRANCH   5   6
BRANCH   5  13
HETATM   13  O   UNL     1     -45.474  58.587 -54.410  1.00  0.00    -0.389 OA
HETATM   14  H   UNL     1     -44.992  59.429 -54.539  1.00  0.00     0.210 HD
ENDBRANCH   5  13
ENDBRANCH   4   5
ENDBRANCH   1   4
BRANCH   3  15
HETATM   15  C   UNL     1     -41.169  55.372 -51.722  1.00  0.00     0.023 A 
HETATM   16  C   UNL     1     -41.136  55.555 -50.324  1.00  0.00     0.078 A 
HETATM   17  C   UNL     1     -40.640  54.567 -49.485  1.00  0.00     0.038 A 
HETATM   18  C   UNL     1     -40.171  53.378 -50.036  1.00  0.00     0.015 A 
HETATM   19  C   UNL     1     -40.204  53.153 -51.420  1.00  0.00    -0.025 A 
HETATM   20  C   UNL     1     -40.711  54.148 -52.298  1.00  0.00    -0.012 A 
HETATM   21  C   UNL     1     -39.731  51.932 -51.926  1.00  0.00     0.012 A 
HETATM   22  C   UNL     1     -40.729  53.830 -53.683  1.00  0.00     0.013 A 
HETATM   23  C   UNL     1     -40.259  52.607 -54.168  1.00  0.00     0.001 A 
HETATM   24  C   UNL     1     -39.756  51.659 -53.289  1.00  0.00     0.001 A 
BRANCH  16  25
HETATM   25  O   UNL     1     -41.599  56.726 -49.771  1.00  0.00    -0.360 OA
HETATM   26  H   UNL     1     -40.877  57.388 -49.813  1.00  0.00     0.217 HD
ENDBRANCH  16  25
ENDBRANCH   3  15
TORSDOF 6
ENDMDL
MODEL 4
REMARK VINA RESULT:      -7.7      1.841      3.325
REMARK  6 active torsions:
REMARK  status: ('A' for Active; 'I' for Inactive)
REMARK    1  A    between atoms: C_5  and  C_6 
REMARK    2  A    between atoms: C_6  and  O_7 
REMARK    3  A    between atoms: C_6  and  C_8 
REMARK    4  A    between atoms: C_8  and  N_9 
REMARK    5  A    between atoms: C_11  and  C_12 
REMARK    6  A    between atoms: C_13  and  O_14 
ROOT
HETATM    1  N   UNL     1     -42.229  54.699 -54.455  1.00  0.00    -0.395 N 
HETATM    2  H   UNL     1     -42.846  53.910 -54.205  1.00  0.00     0.159 HD
HETATM    3  C   UNL     1     -41.089  54.748 -53.861  1.00  0.00     0.098 C 
ENDROOT
BRANCH   1   4
HETATM    4  C   UNL     1     -42.732  55.651 -55.475  1.00  0.00     0.155 C 
BRANCH   4   5
HETATM    5  C   UNL     1     -43.832  56.545 -54.878  1.00  0.00     0.170 C 
BRANCH   5   6
HETATM    6  C   UNL     1     -43.348  57.408 -53.741  1.00  0.00    -0.011 A 
HETATM    7  C   UNL     1     -42.277  58.277 -53.934  1.00  0.00     0.126 A 
HETATM    8  N   UNL     1     -41.747  59.053 -52.968  1.00  0.00    -0.265 NA
HETATM    9  C   UNL     1     -42.318  59.018 -51.742  1.00  0.00     0.030 A 
HETATM   10  C   UNL     1     -41.760  59.933 -50.693  1.00  0.00     0.070 C 
HETATM   11  C   UNL     1     -43.402  58.196 -51.455  1.00  0.00     0.027 A 
HETATM   12  C   UNL     1     -43.912  57.377 -52.461  1.00  0.00     0.013 A 
ENDBRANCH   5   6
BRANCH   5  13
HETATM   13  O   UNL     1     -44.925  55.713 -54.479  1.00  0.00    -0.389 OA
HETATM   14  H   UNL     1     -45.406  55.462 -55.293  1.00  0.00     0.210 HD
ENDBRANCH   5  13
ENDBRANCH   4   5
ENDBRANCH   1   4
BRANCH   3  15
HETATM   15  C   UNL     1     -40.650  53.765 -52.838  1.00  0.00     0.023 A 
HETATM   16  C   UNL     1     -40.178  52.497 -53.238  1.00  0.00     0.078 A 
HETATM   17  C   UNL     1     -39.815  51.542 -52.298  1.00  0.00     0.038 A 
HETATM   18  C   UNL     1     -39.917  51.844 -50.944  1.00  0.00     0.015 A 
HETATM   19  C   UNL     1     -40.366  53.100 -50.510  1.00  0.00    -0.025 A 
HETATM   20  C   UNL     1     -40.739  54.095 -51.452  1.00  0.00    -0.012 A 
HETATM   21  C   UNL     1     -40.439  53.361 -49.132  1.00  0.00     0.012 A 
HETATM   22  C   UNL     1     -41.160  55.348 -50.928  1.00  0.00     0.013 A 
HETATM   23  C   UNL     1     -41.222  55.591 -49.553  1.00  0.00     0.001 A 
HETATM   24  C   UNL     1     -40.865  54.596 -48.655  1.00  0.00     0.001 A 
BRANCH  16  25
HETATM   25  O   UNL     1     -40.071  52.190 -54.574  1.00  0.00    -0.360 OA
HETATM   26  H   UNL     1     -39.178  51.815 -54.729  1.00  0.00     0.217 HD
ENDBRANCH  16  25
ENDBRANCH   3  15
TORSDOF 6
ENDMDL
MODEL 5
REMARK VINA RESULT:      -7.6      3.431      5.474
REMARK  6 active torsions:
REMARK  status: ('A' for Active; 'I' for Inactive)
REMARK    1  A    between atoms: C_5  and  C_6 
REMARK    2  A    between atoms: C_6  and  O_7 
REMARK    3  A    between atoms: C_6  and  C_8 
REMARK    4  A    between atoms: C_8  and  N_9 
REMARK    5  A    between atoms: C_11  and  C_12 
REMARK    6  A    between atoms: C_13  and  O_14 
ROOT
HETATM    1  N   UNL     1     -42.588  56.227 -54.106  1.00  0.00    -0.395 N 
HETATM    2  H   UNL     1     -41.673  56.650 -53.884  1.00  0.00     0.159 HD
HETATM    3  C   UNL     1     -42.909  55.173 -53.442  1.00  0.00     0.098 C 
ENDROOT
BRANCH   1   4
HETATM    4  C   UNL     1     -43.410  56.901 -55.141  1.00  0.00     0.155 C 
BRANCH   4   5
HETATM    5  C   UNL     1     -42.683  56.889 -56.496  1.00  0.00     0.170 C 
BRANCH   5   6
HETATM    6  C   UNL     1     -43.602  56.638 -57.664  1.00  0.00    -0.011 A 
HETATM    7  C   UNL     1     -44.664  57.505 -57.913  1.00  0.00     0.126 A 
HETATM    8  N   UNL     1     -45.562  57.338 -58.904  1.00  0.00    -0.265 NA
HETATM    9  C   UNL     1     -45.398  56.285 -59.737  1.00  0.00     0.030 A 
HETATM   10  C   UNL     1     -46.367  56.146 -60.873  1.00  0.00     0.070 C 
HETATM   11  C   UNL     1     -44.361  55.374 -59.582  1.00  0.00     0.027 A 
HETATM   12  C   UNL     1     -43.463  55.547 -58.529  1.00  0.00     0.013 A 
ENDBRANCH   5   6
BRANCH   5  13
HETATM   13  O   UNL     1     -41.631  55.922 -56.437  1.00  0.00    -0.389 OA
HETATM   14  H   UNL     1     -42.051  55.040 -56.494  1.00  0.00     0.210 HD
ENDBRANCH   5  13
ENDBRANCH   4   5
ENDBRANCH   1   4
BRANCH   3  15
HETATM   15  C   UNL     1     -42.032  54.541 -52.424  1.00  0.00     0.023 A 
HETATM   16  C   UNL     1     -41.983  55.064 -51.116  1.00  0.00     0.078 A 
HETATM   17  C   UNL     1     -41.129  54.526 -50.163  1.00  0.00     0.038 A 
HETATM   18  C   UNL     1     -40.314  53.452 -50.507  1.00  0.00     0.015 A 
HETATM   19  C   UNL     1     -40.348  52.895 -51.793  1.00  0.00    -0.025 A 
HETATM   20  C   UNL     1     -41.217  53.426 -52.784  1.00  0.00    -0.012 A 
HETATM   21  C   UNL     1     -39.515  51.803 -52.088  1.00  0.00     0.012 A 
HETATM   22  C   UNL     1     -41.206  52.787 -54.054  1.00  0.00     0.013 A 
HETATM   23  C   UNL     1     -40.372  51.698 -54.327  1.00  0.00     0.001 A 
HETATM   24  C   UNL     1     -39.525  51.209 -53.345  1.00  0.00     0.001 A 
BRANCH  16  25
HETATM   25  O   UNL     1     -42.787  56.124 -50.765  1.00  0.00    -0.360 OA
HETATM   26  H   UNL     1     -42.326  56.952 -51.019  1.00  0.00     0.217 HD
ENDBRANCH  16  25
ENDBRANCH   3  15
TORSDOF 6
ENDMDL
MODEL 6
REMARK VINA RESULT:      -7.6      2.148      2.676
REMARK  6 active torsions:
REMARK  status: ('A' for Active; 'I' for Inactive)
REMARK    1  A    between atoms: C_5  and  C_6 
REMARK    2  A    between atoms: C_6  and  O_7 
REMARK    3  A    between atoms: C_6  and  C_8 
REMARK    4  A    between atoms: C_8  and  N_9 
REMARK    5  A    between atoms: C_11  and  C_12 
REMARK    6  A    between atoms: C_13  and  O_14 
ROOT
HETATM    1  N   UNL     1     -42.226  54.675 -55.167  1.00  0.00    -0.395 N 
HETATM    2  H   UNL     1     -42.879  54.810 -54.380  1.00  0.00     0.159 HD
HETATM    3  C   UNL     1     -41.132  54.051 -54.905  1.00  0.00     0.098 C 
ENDROOT
BRANCH   1   4
HETATM    4  C   UNL     1     -42.644  55.199 -56.491  1.00  0.00     0.155 C 
BRANCH   4   5
HETATM    5  C   UNL     1     -42.643  56.737 -56.483  1.00  0.00     0.170 C 
BRANCH   5   6
HETATM    6  C   UNL     1     -43.056  57.328 -55.159  1.00  0.00    -0.011 A 
HETATM    7  C   UNL     1     -42.195  58.187 -54.481  1.00  0.00     0.126 A 
HETATM    8  N   UNL     1     -42.457  58.727 -53.275  1.00  0.00    -0.265 NA
HETATM    9  C   UNL     1     -43.652  58.452 -52.704  1.00  0.00     0.030 A 
HETATM   10  C   UNL     1     -43.959  59.109 -51.391  1.00  0.00     0.070 C 
HETATM   11  C   UNL     1     -44.586  57.619 -53.308  1.00  0.00     0.027 A 
HETATM   12  C   UNL     1     -44.279  57.044 -54.541  1.00  0.00     0.013 A 
ENDBRANCH   5   6
BRANCH   5  13
HETATM   13  O   UNL     1     -43.481  57.196 -57.547  1.00  0.00    -0.389 OA
HETATM   14  H   UNL     1     -44.394  57.234 -57.196  1.00  0.00     0.210 HD
ENDBRANCH   5  13
ENDBRANCH   4   5
ENDBRANCH   1   4
BRANCH   3  15
HETATM   15  C   UNL     1     -40.768  53.560 -53.551  1.00  0.00     0.023 A 
HETATM   16  C   UNL     1     -40.814  54.439 -52.449  1.00  0.00     0.078 A 
HETATM   17  C   UNL     1     -40.424  54.018 -51.184  1.00  0.00     0.038 A 
HETATM   18  C   UNL     1     -39.986  52.710 -51.005  1.00  0.00     0.015 A 
HETATM   19  C   UNL     1     -39.944  51.803 -52.075  1.00  0.00    -0.025 A 
HETATM   20  C   UNL     1     -40.342  52.209 -53.377  1.00  0.00    -0.012 A 
HETATM   21  C   UNL     1     -39.507  50.490 -51.841  1.00  0.00     0.012 A 
HETATM   22  C   UNL     1     -40.291  51.221 -54.398  1.00  0.00     0.013 A 
HETATM   23  C   UNL     1     -39.857  49.917 -54.145  1.00  0.00     0.001 A 
HETATM   24  C   UNL     1     -39.462  49.552 -52.867  1.00  0.00     0.001 A 
BRANCH  16  25
HETATM   25  O   UNL     1     -41.247  55.733 -52.615  1.00  0.00    -0.360 OA
HETATM   26  H   UNL     1     -40.517  56.334 -52.352  1.00  0.00     0.217 HD
ENDBRANCH  16  25
ENDBRANCH   3  15
TORSDOF 6
ENDMDL
MODEL 7
REMARK VINA RESULT:      -7.4      3.199      4.373
REMARK  6 active torsions:
REMARK  status: ('A' for Active; 'I' for Inactive)
REMARK    1  A    between atoms: C_5  and  C_6 
REMARK    2  A    between atoms: C_6  and  O_7 
REMARK    3  A    between atoms: C_6  and  C_8 
REMARK    4  A    between atoms: C_8  and  N_9 
REMARK    5  A    between atoms: C_11  and  C_12 
REMARK    6  A    between atoms: C_13  and  O_14 
ROOT
HETATM    1  N   UNL     1     -42.433  55.563 -55.893  1.00  0.00    -0.395 N 
HETATM    2  H   UNL     1     -42.112  56.388 -55.362  1.00  0.00     0.159 HD
HETATM    3  C   UNL     1     -42.449  54.443 -55.260  1.00  0.00     0.098 C 
ENDROOT
BRANCH   1   4
HETATM    4  C   UNL     1     -42.847  55.785 -57.300  1.00  0.00     0.155 C 
BRANCH   4   5
HETATM    5  C   UNL     1     -43.714  57.051 -57.411  1.00  0.00     0.170 C 
BRANCH   5   6
HETATM    6  C   UNL     1     -42.922  58.288 -57.750  1.00  0.00    -0.011 A 
HETATM    7  C   UNL     1     -42.357  59.053 -56.732  1.00  0.00     0.126 A 
HETATM    8  N   UNL     1     -41.673  60.196 -56.934  1.00  0.00    -0.265 NA
HETATM    9  C   UNL     1     -41.484  60.605 -58.209  1.00  0.00     0.030 A 
HETATM   10  C   UNL     1     -40.667  61.844 -58.424  1.00  0.00     0.070 C 
HETATM   11  C   UNL     1     -41.994  59.902 -59.294  1.00  0.00     0.027 A 
HETATM   12  C   UNL     1     -42.728  58.741 -59.060  1.00  0.00     0.013 A 
ENDBRANCH   5   6
BRANCH   5  13
HETATM   13  O   UNL     1     -44.441  57.210 -56.190  1.00  0.00    -0.389 OA
HETATM   14  H   UNL     1     -44.677  58.157 -56.119  1.00  0.00     0.210 HD
ENDBRANCH   5  13
ENDBRANCH   4   5
ENDBRANCH   1   4
BRANCH   3  15
HETATM   15  C   UNL     1     -42.010  54.287 -53.850  1.00  0.00     0.023 A 
HETATM   16  C   UNL     1     -42.412  55.228 -52.880  1.00  0.00     0.078 A 
HETATM   17  C   UNL     1     -41.968  55.135 -51.568  1.00  0.00     0.038 A 
HETATM   18  C   UNL     1     -41.116  54.095 -51.209  1.00  0.00     0.015 A 
HETATM   19  C   UNL     1     -40.709  53.131 -52.142  1.00  0.00    -0.025 A 
HETATM   20  C   UNL     1     -41.154  53.203 -53.490  1.00  0.00    -0.012 A 
HETATM   21  C   UNL     1     -39.860  52.093 -51.728  1.00  0.00     0.012 A 
HETATM   22  C   UNL     1     -40.713  52.173 -54.365  1.00  0.00     0.013 A 
HETATM   23  C   UNL     1     -39.870  51.145 -53.933  1.00  0.00     0.001 A 
HETATM   24  C   UNL     1     -39.441  51.107 -52.615  1.00  0.00     0.001 A 
BRANCH  16  25
HETATM   25  O   UNL     1     -43.255  56.258 -53.225  1.00  0.00    -0.360 OA
HETATM   26  H   UNL     1     -43.093  57.003 -52.607  1.00  0.00     0.217 HD
ENDBRANCH  16  25
ENDBRANCH   3  15
TORSDOF 6
ENDMDL
MODEL 8
REMARK VINA RESULT:      -7.3      2.332      2.748
REMARK  6 active torsions:
REMARK  status: ('A' for Active; 'I' for Inactive)
REMARK    1  A    between atoms: C_5  and  C_6 
REMARK    2  A    between atoms: C_6  and  O_7 
REMARK    3  A    between atoms: C_6  and  C_8 
REMARK    4  A    between atoms: C_8  and  N_9 
REMARK    5  A    between atoms: C_11  and  C_12 
REMARK    6  A    between atoms: C_13  and  O_14 
ROOT
HETATM    1  N   UNL     1     -41.480  57.091 -53.255  1.00  0.00    -0.395 N 
HETATM    2  H   UNL     1     -40.480  57.244 -53.052  1.00  0.00     0.159 HD
HETATM    3  C   UNL     1     -42.034  56.080 -52.682  1.00  0.00     0.098 C 
ENDROOT
BRANCH   1   4
HETATM    4  C   UNL     1     -42.144  58.063 -54.158  1.00  0.00     0.155 C 
BRANCH   4   5
HETATM    5  C   UNL     1     -41.509  59.456 -54.006  1.00  0.00     0.170 C 
BRANCH   5   6
HETATM    6  C   UNL     1     -42.154  60.292 -52.930  1.00  0.00    -0.011 A 
HETATM    7  C   UNL     1     -41.905  60.013 -51.589  1.00  0.00     0.126 A 
HETATM    8  N   UNL     1     -42.470  60.674 -50.559  1.00  0.00    -0.265 NA
HETATM    9  C   UNL     1     -43.299  61.704 -50.846  1.00  0.00     0.030 A 
HETATM   10  C   UNL     1     -43.871  62.472 -49.693  1.00  0.00     0.070 C 
HETATM   11  C   UNL     1     -43.598  62.070 -52.153  1.00  0.00     0.027 A 
HETATM   12  C   UNL     1     -43.029  61.350 -53.202  1.00  0.00     0.013 A 
ENDBRANCH   5   6
BRANCH   5  13
HETATM   13  O   UNL     1     -41.548  60.112 -55.276  1.00  0.00    -0.389 OA
HETATM   14  H   UNL     1     -42.473  60.393 -55.424  1.00  0.00     0.210 HD
ENDBRANCH   5  13
ENDBRANCH   4   5
ENDBRANCH   1   4
BRANCH   3  15
HETATM   15  C   UNL     1     -41.308  55.136 -51.795  1.00  0.00     0.023 A 
HETATM   16  C   UNL     1     -41.090  55.469 -50.442  1.00  0.00     0.078 A 
HETATM   17  C   UNL     1     -40.366  54.628 -49.608  1.00  0.00     0.038 A 
HETATM   18  C   UNL     1     -39.852  53.440 -50.117  1.00  0.00     0.015 A 
HETATM   19  C   UNL     1     -40.063  53.068 -51.453  1.00  0.00    -0.025 A 
HETATM   20  C   UNL     1     -40.804  53.909 -52.325  1.00  0.00    -0.012 A 
HETATM   21  C   UNL     1     -39.535  51.853 -51.916  1.00  0.00     0.012 A 
HETATM   22  C   UNL     1     -40.992  53.446 -53.655  1.00  0.00     0.013 A 
HETATM   23  C   UNL     1     -40.461  52.231 -54.097  1.00  0.00     0.001 A 
HETATM   24  C   UNL     1     -39.730  51.436 -53.228  1.00  0.00     0.001 A 
BRANCH  16  25
HETATM   25  O   UNL     1     -41.596  56.640 -49.929  1.00  0.00    -0.360 OA
HETATM   26  H   UNL     1     -40.841  57.221 -49.696  1.00  0.00     0.217 HD
ENDBRANCH  16  25
ENDBRANCH   3  15
TORSDOF 6
ENDMDL
MODEL 9
REMARK VINA RESULT:      -7.3      1.617      2.708
REMARK  6 active torsions:
REMARK  status: ('A' for Active; 'I' for Inactive)
REMARK    1  A    between atoms: C_5  and  C_6 
REMARK    2  A    between atoms: C_6  and  O_7 
REMARK    3  A    between atoms: C_6  and  C_8 
REMARK    4  A    between atoms: C_8  and  N_9 
REMARK    5  A    between atoms: C_11  and  C_12 
REMARK    6  A    between atoms: C_13  and  O_14 
ROOT
HETATM    1  N   UNL     1     -42.827  56.672 -53.528  1.00  0.00    -0.395 N 
HETATM    2  H   UNL     1     -42.153  56.943 -54.260  1.00  0.00     0.159 HD
HETATM    3  C   UNL     1     -42.709  55.484 -53.050  1.00  0.00     0.098 C 
ENDROOT
BRANCH   1   4
HETATM    4  C   UNL     1     -43.821  57.693 -53.114  1.00  0.00     0.155 C 
BRANCH   4   5
HETATM    5  C   UNL     1     -43.198  59.098 -53.158  1.00  0.00     0.170 C 
BRANCH   5   6
HETATM    6  C   UNL     1     -41.949  59.224 -52.322  1.00  0.00    -0.011 A 
HETATM    7  C   UNL     1     -40.698  59.192 -52.932  1.00  0.00     0.126 A 
HETATM    8  N   UNL     1     -39.528  59.252 -52.266  1.00  0.00    -0.265 NA
HETATM    9  C   UNL     1     -39.571  59.395 -50.921  1.00  0.00     0.030 A 
HETATM   10  C   UNL     1     -38.264  59.524 -50.198  1.00  0.00     0.070 C 
HETATM   11  C   UNL     1     -40.771  59.453 -50.222  1.00  0.00     0.027 A 
HETATM   12  C   UNL     1     -41.969  59.355 -50.929  1.00  0.00     0.013 A 
ENDBRANCH   5   6
BRANCH   5  13
HETATM   13  O   UNL     1     -44.192  60.047 -52.763  1.00  0.00    -0.389 OA
HETATM   14  H   UNL     1     -45.054  59.583 -52.783  1.00  0.00     0.210 HD
ENDBRANCH   5  13
ENDBRANCH   4   5
ENDBRANCH   1   4
BRANCH   3  15
HETATM   15  C   UNL     1     -41.696  54.504 -53.518  1.00  0.00     0.023 A 
HETATM   16  C   UNL     1     -41.333  54.464 -54.880  1.00  0.00     0.078 A 
HETATM   17  C   UNL     1     -40.430  53.521 -55.351  1.00  0.00     0.038 A 
HETATM   18  C   UNL     1     -39.875  52.605 -54.462  1.00  0.00     0.015 A 
HETATM   19  C   UNL     1     -40.199  52.626 -53.098  1.00  0.00    -0.025 A 
HETATM   20  C   UNL     1     -41.117  53.585 -52.592  1.00  0.00    -0.012 A 
HETATM   21  C   UNL     1     -39.602  51.690 -52.239  1.00  0.00     0.012 A 
HETATM   22  C   UNL     1     -41.372  53.551 -51.194  1.00  0.00     0.013 A 
HETATM   23  C   UNL     1     -40.764  52.614 -50.353  1.00  0.00     0.001 A 
HETATM   24  C   UNL     1     -39.883  51.681 -50.877  1.00  0.00     0.001 A 
BRANCH  16  25
HETATM   25  O   UNL     1     -41.874  55.366 -55.766  1.00  0.00    -0.360 OA
HETATM   26  H   UNL     1     -41.140  55.890 -56.153  1.00  0.00     0.217 HD
ENDBRANCH  16  25
ENDBRANCH   3  15
TORSDOF 6
ENDMDL
MODEL 10
REMARK VINA RESULT:      -7.2     14.811     16.647
REMARK  6 active torsions:
REMARK  status: ('A' for Active; 'I' for Inactive)
REMARK    1  A    between atoms: C_5  and  C_6 
REMARK    2  A    between atoms: C_6  and  O_7 
REMARK    3  A    between atoms: C_6  and  C_8 
REMARK    4  A    between atoms: C_8  and  N_9 
REMARK    5  A    between atoms: C_11  and  C_12 
REMARK    6  A    between atoms: C_13  and  O_14 
ROOT
HETATM    1  N   UNL     1     -34.523  41.951 -54.717  1.00  0.00    -0.395 N 
HETATM    2  H   UNL     1     -33.917  42.635 -54.238  1.00  0.00     0.159 HD
HETATM    3  C   UNL     1     -34.671  40.812 -54.139  1.00  0.00     0.098 C 
ENDROOT
BRANCH   1   4
HETATM    4  C   UNL     1     -35.152  42.381 -55.990  1.00  0.00     0.155 C 
BRANCH   4   5
HETATM    5  C   UNL     1     -36.537  41.732 -56.149  1.00  0.00     0.170 C 
BRANCH   5   6
HETATM    6  C   UNL     1     -36.804  41.230 -57.546  1.00  0.00    -0.011 A 
HETATM    7  C   UNL     1     -36.784  39.862 -57.809  1.00  0.00     0.126 A 
HETATM    8  N   UNL     1     -36.966  39.323 -59.031  1.00  0.00    -0.265 NA
HETATM    9  C   UNL     1     -37.227  40.160 -60.060  1.00  0.00     0.030 A 
HETATM   10  C   UNL     1     -37.490  39.544 -61.402  1.00  0.00     0.070 C 
HETATM   11  C   UNL     1     -37.284  41.539 -59.896  1.00  0.00     0.027 A 
HETATM   12  C   UNL     1     -37.059  42.077 -58.630  1.00  0.00     0.013 A 
ENDBRANCH   5   6
BRANCH   5  13
HETATM   13  O   UNL     1     -37.530  42.673 -55.731  1.00  0.00    -0.389 OA
HETATM   14  H   UNL     1     -37.099  43.277 -55.093  1.00  0.00     0.210 HD
ENDBRANCH   5  13
ENDBRANCH   4   5
ENDBRANCH   1   4
BRANCH   3  15
HETATM   15  C   UNL     1     -34.002  40.440 -52.866  1.00  0.00     0.023 A 
HETATM   16  C   UNL     1     -32.593  40.434 -52.789  1.00  0.00     0.078 A 
HETATM   17  C   UNL     1     -31.944  40.035 -51.628  1.00  0.00     0.038 A 
HETATM   18  C   UNL     1     -32.698  39.640 -50.527  1.00  0.00     0.015 A 
HETATM   19  C   UNL     1     -34.099  39.650 -50.562  1.00  0.00    -0.025 A 
HETATM   20  C   UNL     1     -34.786  40.058 -51.736  1.00  0.00    -0.012 A 
HETATM   21  C   UNL     1     -34.815  39.255 -49.420  1.00  0.00     0.012 A 
HETATM   22  C   UNL     1     -36.206  40.061 -51.679  1.00  0.00     0.013 A 
HETATM   23  C   UNL     1     -36.901  39.668 -50.532  1.00  0.00     0.001 A 
HETATM   24  C   UNL     1     -36.205  39.262 -49.404  1.00  0.00     0.001 A 
BRANCH  16  25
HETATM   25  O   UNL     1     -31.840  40.824 -53.871  1.00  0.00    -0.360 OA
HETATM   26  H   UNL     1     -31.488  41.721 -53.688  1.00  0.00     0.217 HD
ENDBRANCH  16  25
ENDBRANCH   3  15
TORSDOF 6
ENDMDL
