MODEL 1
REMARK VINA RESULT:      -8.2      0.000      0.000
REMARK  10 active torsions:
REMARK  status: ('A' for Active; 'I' for Inactive)
REMARK    1  A    between atoms: C_2  and  C_3 
REMARK    2  A    between atoms: C_3  and  N_4 
REMARK    3  A    between atoms: N_4  and  C_5 
REMARK    4  A    between atoms: C_5  and  N_6 
REMARK    5  A    between atoms: N_6  and  N_7 
REMARK       I    between atoms: N_7  and  C_8 
REMARK    6  A    between atoms: C_8  and  C_9 
REMARK    7  A    between atoms: C_9  and  C_10 
REMARK    8  A    between atoms: C_10  and  C_11 
REMARK    9  A    between atoms: C_13  and  O_14 
REMARK   10  A    between atoms: C_15  and  O_16 
ROOT
HETATM    1  N   UNL     1     -43.112  54.925 -54.380  1.00  0.00    -0.268 N 
HETATM    2  C   UNL     1     -42.150  55.088 -55.358  1.00  0.00     0.236 C 
HETATM    3  O   UNL     1     -42.379  55.609 -56.449  1.00  0.00    -0.272 OA
HETATM    4  H   UNL     1     -42.857  54.831 -53.400  1.00  0.00     0.190 HD
ENDROOT
BRANCH   1   5
HETATM    5  N   UNL     1     -44.387  55.461 -54.643  1.00  0.00    -0.274 N 
HETATM    6  H   UNL     1     -44.738  55.183 -55.559  1.00  0.00     0.189 HD
BRANCH   5   7
HETATM    7  C   UNL     1     -44.695  56.735 -54.230  1.00  0.00     0.186 C 
HETATM    8  S   UNL     1     -45.044  58.022 -55.240  1.00  0.00    -0.040 SA
BRANCH   7   9
HETATM    9  N   UNL     1     -44.674  56.951 -52.884  1.00  0.00    -0.362 N 
HETATM   10  H   UNL     1     -45.540  56.733 -52.406  1.00  0.00     0.162 HD
BRANCH   9  11
HETATM   11  C   UNL     1     -43.622  57.556 -52.085  1.00  0.00     0.160 C 
BRANCH  11  12
HETATM   12  C   UNL     1     -42.808  56.578 -51.270  1.00  0.00    -0.040 A 
HETATM   13  C   UNL     1     -41.525  56.868 -50.781  1.00  0.00     0.010 A 
HETATM   14  C   UNL     1     -40.840  55.951 -49.977  1.00  0.00     0.024 A 
HETATM   15  C   UNL     1     -41.432  54.734 -49.652  1.00  0.00     0.034 A 
HETATM   16  C   UNL     1     -42.706  54.428 -50.120  1.00  0.00     0.024 A 
HETATM   17 CL   UNL     1     -40.591  53.609 -48.660  1.00  0.00    -0.084 Cl
HETATM   18  C   UNL     1     -43.392  55.346 -50.920  1.00  0.00     0.010 A 
ENDBRANCH  11  12
ENDBRANCH   9  11
ENDBRANCH   7   9
ENDBRANCH   5   7
ENDBRANCH   1   5
BRANCH   2  19
HETATM   19  C   UNL     1     -40.791  54.529 -55.003  1.00  0.00     0.109 C 
BRANCH  19  20
HETATM   20  C   UNL     1     -40.697  54.107 -53.535  1.00  0.00     0.048 C 
BRANCH  20  21
HETATM   21  C   UNL     1     -40.299  52.669 -53.272  1.00  0.00    -0.055 A 
HETATM   22  C   UNL     1     -40.294  51.694 -54.284  1.00  0.00     0.046 A 
HETATM   23  C   UNL     1     -39.962  50.378 -53.977  1.00  0.00     0.099 A 
HETATM   24  C   UNL     1     -39.593  50.027 -52.683  1.00  0.00     0.098 A 
HETATM   25  C   UNL     1     -39.554  50.978 -51.678  1.00  0.00     0.040 A 
HETATM   26  C   UNL     1     -39.904  52.297 -51.973  1.00  0.00     0.010 A 
BRANCH  23  27
HETATM   27  O   UNL     1     -40.000  49.387 -54.920  1.00  0.00    -0.358 OA
HETATM   28  H   UNL     1     -39.082  49.134 -55.121  1.00  0.00     0.218 HD
ENDBRANCH  23  27
BRANCH  24  29
HETATM   29  O   UNL     1     -39.274  48.732 -52.393  1.00  0.00    -0.358 OA
HETATM   30  H   UNL     1     -39.413  48.660 -51.427  1.00  0.00     0.218 HD
ENDBRANCH  24  29
ENDBRANCH  20  21
ENDBRANCH  19  20
ENDBRANCH   2  19
TORSDOF 10
ENDMDL
MODEL 2
REMARK VINA RESULT:      -7.7      1.647      2.270
REMARK  10 active torsions:
REMARK  status: ('A' for Active; 'I' for Inactive)
REMARK    1  A    between atoms: C_2  and  C_3 
REMARK    2  A    between atoms: C_3  and  N_4 
REMARK    3  A    between atoms: N_4  and  C_5 
REMARK    4  A    between atoms: C_5  and  N_6 
REMARK    5  A    between atoms: N_6  and  N_7 
REMARK       I    between atoms: N_7  and  C_8 
REMARK    6  A    between atoms: C_8  and  C_9 
REMARK    7  A    between atoms: C_9  and  C_10 
REMARK    8  A    between atoms: C_10  and  C_11 
REMARK    9  A    between atoms: C_13  and  O_14 
REMARK   10  A    between atoms: C_15  and  O_16 
ROOT
HETATM    1  N   UNL     1     -42.094  55.548 -56.658  1.00  0.00    -0.268 N 
HETATM    2  C   UNL     1     -42.053  54.836 -55.475  1.00  0.00     0.236 C 
HETATM    3  O   UNL     1     -43.061  54.509 -54.849  1.00  0.00    -0.272 OA
HETATM    4  H   UNL     1     -41.328  55.508 -57.325  1.00  0.00     0.190 HD
ENDROOT
BRANCH   1   5
HETATM    5  N   UNL     1     -43.367  55.832 -57.188  1.00  0.00    -0.274 N 
HETATM    6  H   UNL     1     -43.503  55.412 -58.106  1.00  0.00     0.189 HD
BRANCH   5   7
HETATM    7  C   UNL     1     -43.933  57.069 -56.989  1.00  0.00     0.186 C 
HETATM    8  S   UNL     1     -43.880  58.341 -58.075  1.00  0.00    -0.040 SA
BRANCH   7   9
HETATM    9  N   UNL     1     -44.552  57.261 -55.790  1.00  0.00    -0.362 N 
HETATM   10  H   UNL     1     -45.359  56.669 -55.630  1.00  0.00     0.162 HD
BRANCH   9  11
HETATM   11  C   UNL     1     -44.275  58.273 -54.786  1.00  0.00     0.160 C 
BRANCH  11  12
HETATM   12  C   UNL     1     -43.485  57.780 -53.596  1.00  0.00    -0.040 A 
HETATM   13  C   UNL     1     -44.056  57.035 -52.552  1.00  0.00     0.010 A 
HETATM   14  C   UNL     1     -43.266  56.549 -51.505  1.00  0.00     0.024 A 
HETATM   15  C   UNL     1     -41.898  56.799 -51.491  1.00  0.00     0.034 A 
HETATM   16  C   UNL     1     -41.310  57.529 -52.519  1.00  0.00     0.024 A 
HETATM   17 CL   UNL     1     -40.928  56.195 -50.206  1.00  0.00    -0.084 Cl
HETATM   18  C   UNL     1     -42.098  58.012 -53.568  1.00  0.00     0.010 A 
ENDBRANCH  11  12
ENDBRANCH   9  11
ENDBRANCH   7   9
ENDBRANCH   5   7
ENDBRANCH   1   5
BRANCH   2  19
HETATM   19  C   UNL     1     -40.661  54.525 -54.976  1.00  0.00     0.109 C 
BRANCH  19  20
HETATM   20  C   UNL     1     -40.651  54.067 -53.515  1.00  0.00     0.048 C 
BRANCH  20  21
HETATM   21  C   UNL     1     -40.264  52.623 -53.265  1.00  0.00    -0.055 A 
HETATM   22  C   UNL     1     -40.264  51.658 -54.287  1.00  0.00     0.046 A 
HETATM   23  C   UNL     1     -39.943  50.337 -53.991  1.00  0.00     0.099 A 
HETATM   24  C   UNL     1     -39.580  49.970 -52.700  1.00  0.00     0.098 A 
HETATM   25  C   UNL     1     -39.535  50.912 -51.686  1.00  0.00     0.040 A 
HETATM   26  C   UNL     1     -39.876  52.237 -51.969  1.00  0.00     0.010 A 
BRANCH  23  27
HETATM   27  O   UNL     1     -39.986  49.355 -54.944  1.00  0.00    -0.358 OA
HETATM   28  H   UNL     1     -40.325  48.547 -54.522  1.00  0.00     0.218 HD
ENDBRANCH  23  27
BRANCH  24  29
HETATM   29  O   UNL     1     -39.271  48.670 -52.421  1.00  0.00    -0.358 OA
HETATM   30  H   UNL     1     -40.141  48.232 -52.325  1.00  0.00     0.218 HD
ENDBRANCH  24  29
ENDBRANCH  20  21
ENDBRANCH  19  20
ENDBRANCH   2  19
TORSDOF 10
ENDMDL
MODEL 3
REMARK VINA RESULT:      -7.2      2.428      2.770
REMARK  10 active torsions:
REMARK  status: ('A' for Active; 'I' for Inactive)
REMARK    1  A    between atoms: C_2  and  C_3 
REMARK    2  A    between atoms: C_3  and  N_4 
REMARK    3  A    between atoms: N_4  and  C_5 
REMARK    4  A    between atoms: C_5  and  N_6 
REMARK    5  A    between atoms: N_6  and  N_7 
REMARK       I    between atoms: N_7  and  C_8 
REMARK    6  A    between atoms: C_8  and  C_9 
REMARK    7  A    between atoms: C_9  and  C_10 
REMARK    8  A    between atoms: C_10  and  C_11 
REMARK    9  A    between atoms: C_13  and  O_14 
REMARK   10  A    between atoms: C_15  and  O_16 
ROOT
HETATM    1  N   UNL     1     -42.030  55.950 -56.333  1.00  0.00    -0.268 N 
HETATM    2  C   UNL     1     -41.977  54.937 -55.395  1.00  0.00     0.236 C 
HETATM    3  O   UNL     1     -42.974  54.348 -54.980  1.00  0.00    -0.272 OA
HETATM    4  H   UNL     1     -41.225  56.177 -56.911  1.00  0.00     0.190 HD
ENDROOT
BRANCH   1   5
HETATM    5  N   UNL     1     -43.293  56.245 -56.880  1.00  0.00    -0.274 N 
HETATM    6  H   UNL     1     -43.375  55.935 -57.848  1.00  0.00     0.189 HD
BRANCH   5   7
HETATM    7  C   UNL     1     -43.921  57.425 -56.561  1.00  0.00     0.186 C 
HETATM    8  S   UNL     1     -45.266  58.046 -57.338  1.00  0.00    -0.040 SA
BRANCH   7   9
HETATM    9  N   UNL     1     -43.363  58.147 -55.547  1.00  0.00    -0.362 N 
HETATM   10  H   UNL     1     -42.577  58.724 -55.820  1.00  0.00     0.162 HD
BRANCH   9  11
HETATM   11  C   UNL     1     -43.677  58.098 -54.129  1.00  0.00     0.160 C 
BRANCH  11  12
HETATM   12  C   UNL     1     -42.549  58.528 -53.220  1.00  0.00    -0.040 A 
HETATM   13  C   UNL     1     -42.748  58.936 -51.892  1.00  0.00     0.010 A 
HETATM   14  C   UNL     1     -41.662  59.263 -51.073  1.00  0.00     0.024 A 
HETATM   15  C   UNL     1     -40.366  59.184 -51.572  1.00  0.00     0.034 A 
HETATM   16  C   UNL     1     -40.145  58.776 -52.884  1.00  0.00     0.024 A 
HETATM   17 CL   UNL     1     -39.032  59.582 -50.562  1.00  0.00    -0.084 Cl
HETATM   18  C   UNL     1     -41.229  58.445 -53.701  1.00  0.00     0.010 A 
ENDBRANCH  11  12
ENDBRANCH   9  11
ENDBRANCH   7   9
ENDBRANCH   5   7
ENDBRANCH   1   5
BRANCH   2  19
HETATM   19  C   UNL     1     -40.590  54.637 -54.873  1.00  0.00     0.109 C 
BRANCH  19  20
HETATM   20  C   UNL     1     -40.605  54.134 -53.427  1.00  0.00     0.048 C 
BRANCH  20  21
HETATM   21  C   UNL     1     -40.242  52.678 -53.216  1.00  0.00    -0.055 A 
HETATM   22  C   UNL     1     -40.283  51.736 -54.257  1.00  0.00     0.046 A 
HETATM   23  C   UNL     1     -39.981  50.402 -53.997  1.00  0.00     0.099 A 
HETATM   24  C   UNL     1     -39.597  50.002 -52.722  1.00  0.00     0.098 A 
HETATM   25  C   UNL     1     -39.512  50.920 -51.689  1.00  0.00     0.040 A 
HETATM   26  C   UNL     1     -39.832  52.257 -51.937  1.00  0.00     0.010 A 
BRANCH  23  27
HETATM   27  O   UNL     1     -40.064  49.443 -54.969  1.00  0.00    -0.358 OA
HETATM   28  H   UNL     1     -39.895  48.581 -54.550  1.00  0.00     0.218 HD
ENDBRANCH  23  27
BRANCH  24  29
HETATM   29  O   UNL     1     -39.308  48.690 -52.478  1.00  0.00    -0.358 OA
HETATM   30  H   UNL     1     -40.169  48.234 -52.563  1.00  0.00     0.218 HD
ENDBRANCH  24  29
ENDBRANCH  20  21
ENDBRANCH  19  20
ENDBRANCH   2  19
TORSDOF 10
ENDMDL
MODEL 4
REMARK VINA RESULT:      -7.0      5.144      6.609
REMARK  10 active torsions:
REMARK  status: ('A' for Active; 'I' for Inactive)
REMARK    1  A    between atoms: C_2  and  C_3 
REMARK    2  A    between atoms: C_3  and  N_4 
REMARK    3  A    between atoms: N_4  and  C_5 
REMARK    4  A    between atoms: C_5  and  N_6 
REMARK    5  A    between atoms: N_6  and  N_7 
REMARK       I    between atoms: N_7  and  C_8 
REMARK    6  A    between atoms: C_8  and  C_9 
REMARK    7  A    between atoms: C_9  and  C_10 
REMARK    8  A    between atoms: C_10  and  C_11 
REMARK    9  A    between atoms: C_13  and  O_14 
REMARK   10  A    between atoms: C_15  and  O_16 
ROOT
HETATM    1  N   UNL     1     -42.052  55.042 -56.441  1.00  0.00    -0.268 N 
HETATM    2  C   UNL     1     -41.742  55.336 -55.127  1.00  0.00     0.236 C 
HETATM    3  O   UNL     1     -42.419  56.086 -54.425  1.00  0.00    -0.272 OA
HETATM    4  H   UNL     1     -41.719  54.190 -56.884  1.00  0.00     0.190 HD
ENDROOT
BRANCH   1   5
HETATM    5  N   UNL     1     -43.250  55.582 -56.949  1.00  0.00    -0.274 N 
HETATM    6  H   UNL     1     -44.030  54.931 -56.865  1.00  0.00     0.189 HD
BRANCH   5   7
HETATM    7  C   UNL     1     -43.224  56.367 -58.076  1.00  0.00     0.186 C 
HETATM    8  S   UNL     1     -44.310  56.271 -59.346  1.00  0.00    -0.040 SA
BRANCH   7   9
HETATM    9  N   UNL     1     -42.203  57.267 -58.160  1.00  0.00    -0.362 N 
HETATM   10  H   UNL     1     -41.334  56.890 -58.519  1.00  0.00     0.162 HD
BRANCH   9  11
HETATM   11  C   UNL     1     -42.175  58.642 -57.693  1.00  0.00     0.160 C 
BRANCH  11  12
HETATM   12  C   UNL     1     -41.868  59.664 -58.764  1.00  0.00    -0.040 A 
HETATM   13  C   UNL     1     -42.143  59.456 -60.124  1.00  0.00     0.010 A 
HETATM   14  C   UNL     1     -41.897  60.460 -61.066  1.00  0.00     0.024 A 
HETATM   15  C   UNL     1     -41.376  61.683 -60.658  1.00  0.00     0.034 A 
HETATM   16  C   UNL     1     -41.102  61.914 -59.313  1.00  0.00     0.024 A 
HETATM   17 CL   UNL     1     -41.079  62.919 -61.817  1.00  0.00    -0.084 Cl
HETATM   18  C   UNL     1     -41.352  60.913 -58.372  1.00  0.00     0.010 A 
ENDBRANCH  11  12
ENDBRANCH   9  11
ENDBRANCH   7   9
ENDBRANCH   5   7
ENDBRANCH   1   5
BRANCH   2  19
HETATM   19  C   UNL     1     -40.468  54.697 -54.624  1.00  0.00     0.109 C 
BRANCH  19  20
HETATM   20  C   UNL     1     -40.626  54.100 -53.223  1.00  0.00     0.048 C 
BRANCH  20  21
HETATM   21  C   UNL     1     -40.244  52.642 -53.066  1.00  0.00    -0.055 A 
HETATM   22  C   UNL     1     -40.281  51.736 -54.140  1.00  0.00     0.046 A 
HETATM   23  C   UNL     1     -39.961  50.398 -53.928  1.00  0.00     0.099 A 
HETATM   24  C   UNL     1     -39.564  49.957 -52.671  1.00  0.00     0.098 A 
HETATM   25  C   UNL     1     -39.484  50.839 -51.607  1.00  0.00     0.040 A 
HETATM   26  C   UNL     1     -39.821  52.180 -51.805  1.00  0.00     0.010 A 
BRANCH  23  27
HETATM   27  O   UNL     1     -40.039  49.472 -54.933  1.00  0.00    -0.358 OA
HETATM   28  H   UNL     1     -40.147  49.954 -55.772  1.00  0.00     0.218 HD
ENDBRANCH  23  27
BRANCH  24  29
HETATM   29  O   UNL     1     -39.259  48.641 -52.475  1.00  0.00    -0.358 OA
HETATM   30  H   UNL     1     -38.503  48.477 -53.075  1.00  0.00     0.218 HD
ENDBRANCH  24  29
ENDBRANCH  20  21
ENDBRANCH  19  20
ENDBRANCH   2  19
TORSDOF 10
ENDMDL
MODEL 5
REMARK VINA RESULT:      -7.0      4.174      5.916
REMARK  10 active torsions:
REMARK  status: ('A' for Active; 'I' for Inactive)
REMARK    1  A    between atoms: C_2  and  C_3 
REMARK    2  A    between atoms: C_3  and  N_4 
REMARK    3  A    between atoms: N_4  and  C_5 
REMARK    4  A    between atoms: C_5  and  N_6 
REMARK    5  A    between atoms: N_6  and  N_7 
REMARK       I    between atoms: N_7  and  C_8 
REMARK    6  A    between atoms: C_8  and  C_9 
REMARK    7  A    between atoms: C_9  and  C_10 
REMARK    8  A    between atoms: C_10  and  C_11 
REMARK    9  A    between atoms: C_13  and  O_14 
REMARK   10  A    between atoms: C_15  and  O_16 
ROOT
HETATM    1  N   UNL     1     -44.010  55.968 -53.451  1.00  0.00    -0.268 N 
HETATM    2  C   UNL     1     -43.189  54.909 -53.786  1.00  0.00     0.236 C 
HETATM    3  O   UNL     1     -43.295  54.278 -54.837  1.00  0.00    -0.272 OA
HETATM    4  H   UNL     1     -43.711  56.679 -52.789  1.00  0.00     0.190 HD
ENDROOT
BRANCH   1   5
HETATM    5  N   UNL     1     -44.953  56.372 -54.415  1.00  0.00    -0.274 N 
HETATM    6  H   UNL     1     -45.499  55.588 -54.771  1.00  0.00     0.189 HD
BRANCH   5   7
HETATM    7  C   UNL     1     -44.632  57.355 -55.320  1.00  0.00     0.186 C 
HETATM    8  S   UNL     1     -45.009  58.977 -55.160  1.00  0.00    -0.040 SA
BRANCH   7   9
HETATM    9  N   UNL     1     -43.984  56.946 -56.448  1.00  0.00    -0.362 N 
HETATM   10  H   UNL     1     -44.541  56.377 -57.074  1.00  0.00     0.162 HD
BRANCH   9  11
HETATM   11  C   UNL     1     -42.585  57.122 -56.795  1.00  0.00     0.160 C 
BRANCH  11  12
HETATM   12  C   UNL     1     -42.343  57.959 -58.030  1.00  0.00    -0.040 A 
HETATM   13  C   UNL     1     -42.345  57.428 -59.329  1.00  0.00     0.010 A 
HETATM   14  C   UNL     1     -42.179  58.258 -60.442  1.00  0.00     0.024 A 
HETATM   15  C   UNL     1     -42.010  59.628 -60.269  1.00  0.00     0.034 A 
HETATM   16  C   UNL     1     -42.012  60.177 -58.991  1.00  0.00     0.024 A 
HETATM   17 CL   UNL     1     -41.811  60.648 -61.639  1.00  0.00    -0.084 Cl
HETATM   18  C   UNL     1     -42.182  59.348 -57.879  1.00  0.00     0.010 A 
ENDBRANCH  11  12
ENDBRANCH   9  11
ENDBRANCH   7   9
ENDBRANCH   5   7
ENDBRANCH   1   5
BRANCH   2  19
HETATM   19  C   UNL     1     -42.169  54.546 -52.730  1.00  0.00     0.109 C 
BRANCH  19  20
HETATM   20  C   UNL     1     -40.817  54.155 -53.332  1.00  0.00     0.048 C 
BRANCH  20  21
HETATM   21  C   UNL     1     -40.410  52.703 -53.186  1.00  0.00    -0.055 A 
HETATM   22  C   UNL     1     -40.074  52.139 -51.944  1.00  0.00     0.046 A 
HETATM   23  C   UNL     1     -39.664  50.810 -51.875  1.00  0.00     0.099 A 
HETATM   24  C   UNL     1     -39.627  50.022 -53.020  1.00  0.00     0.098 A 
HETATM   25  C   UNL     1     -39.991  50.546 -54.249  1.00  0.00     0.040 A 
HETATM   26  C   UNL     1     -40.384  51.884 -54.331  1.00  0.00     0.010 A 
BRANCH  23  27
HETATM   27  O   UNL     1     -39.274  50.238 -50.694  1.00  0.00    -0.358 OA
HETATM   28  H   UNL     1     -38.301  50.263 -50.660  1.00  0.00     0.218 HD
ENDBRANCH  23  27
BRANCH  24  29
HETATM   29  O   UNL     1     -39.219  48.722 -52.940  1.00  0.00    -0.358 OA
HETATM   30  H   UNL     1     -39.398  48.470 -52.012  1.00  0.00     0.218 HD
ENDBRANCH  24  29
ENDBRANCH  20  21
ENDBRANCH  19  20
ENDBRANCH   2  19
TORSDOF 10
ENDMDL
MODEL 6
REMARK VINA RESULT:      -6.8      2.997      4.320
REMARK  10 active torsions:
REMARK  status: ('A' for Active; 'I' for Inactive)
REMARK    1  A    between atoms: C_2  and  C_3 
REMARK    2  A    between atoms: C_3  and  N_4 
REMARK    3  A    between atoms: N_4  and  C_5 
REMARK    4  A    between atoms: C_5  and  N_6 
REMARK    5  A    between atoms: N_6  and  N_7 
REMARK       I    between atoms: N_7  and  C_8 
REMARK    6  A    between atoms: C_8  and  C_9 
REMARK    7  A    between atoms: C_9  and  C_10 
REMARK    8  A    between atoms: C_10  and  C_11 
REMARK    9  A    between atoms: C_13  and  O_14 
REMARK   10  A    between atoms: C_15  and  O_16 
ROOT
HETATM    1  N   UNL     1     -41.172  57.154 -50.178  1.00  0.00    -0.268 N 
HETATM    2  C   UNL     1     -41.413  55.807 -50.367  1.00  0.00     0.236 C 
HETATM    3  O   UNL     1     -42.502  55.360 -50.729  1.00  0.00    -0.272 OA
HETATM    4  H   UNL     1     -40.231  57.534 -50.228  1.00  0.00     0.190 HD
ENDROOT
BRANCH   1   5
HETATM    5  N   UNL     1     -42.219  58.039 -50.497  1.00  0.00    -0.274 N 
HETATM    6  H   UNL     1     -43.002  57.564 -50.945  1.00  0.00     0.189 HD
BRANCH   5   7
HETATM    7  C   UNL     1     -41.933  59.306 -50.946  1.00  0.00     0.186 C 
HETATM    8  S   UNL     1     -42.671  60.710 -50.413  1.00  0.00    -0.040 SA
BRANCH   7   9
HETATM    9  N   UNL     1     -40.994  59.398 -51.930  1.00  0.00    -0.362 N 
HETATM   10  H   UNL     1     -40.066  59.644 -51.608  1.00  0.00     0.162 HD
BRANCH   9  11
HETATM   11  C   UNL     1     -41.183  59.304 -53.367  1.00  0.00     0.160 C 
BRANCH  11  12
HETATM   12  C   UNL     1     -41.749  57.985 -53.843  1.00  0.00    -0.040 A 
HETATM   13  C   UNL     1     -43.048  57.848 -54.355  1.00  0.00     0.010 A 
HETATM   14  C   UNL     1     -43.501  56.618 -54.841  1.00  0.00     0.024 A 
HETATM   15  C   UNL     1     -42.658  55.511 -54.823  1.00  0.00     0.034 A 
HETATM   16  C   UNL     1     -41.363  55.625 -54.326  1.00  0.00     0.024 A 
HETATM   17 CL   UNL     1     -43.213  53.999 -55.426  1.00  0.00    -0.084 Cl
HETATM   18  C   UNL     1     -40.910  56.856 -53.845  1.00  0.00     0.010 A 
ENDBRANCH  11  12
ENDBRANCH   9  11
ENDBRANCH   7   9
ENDBRANCH   5   7
ENDBRANCH   1   5
BRANCH   2  19
HETATM   19  C   UNL     1     -40.241  54.907 -50.048  1.00  0.00     0.109 C 
BRANCH  19  20
HETATM   20  C   UNL     1     -40.658  53.447 -49.854  1.00  0.00     0.048 C 
BRANCH  20  21
HETATM   21  C   UNL     1     -40.313  52.493 -50.979  1.00  0.00    -0.055 A 
HETATM   22  C   UNL     1     -39.995  51.144 -50.749  1.00  0.00     0.046 A 
HETATM   23  C   UNL     1     -39.642  50.323 -51.816  1.00  0.00     0.099 A 
HETATM   24  C   UNL     1     -39.643  50.816 -53.116  1.00  0.00     0.098 A 
HETATM   25  C   UNL     1     -39.990  52.132 -53.371  1.00  0.00     0.040 A 
HETATM   26  C   UNL     1     -40.326  52.969 -52.304  1.00  0.00     0.010 A 
BRANCH  23  27
HETATM   27  O   UNL     1     -39.271  49.019 -51.629  1.00  0.00    -0.358 OA
HETATM   28  H   UNL     1     -38.447  48.871 -52.125  1.00  0.00     0.218 HD
ENDBRANCH  23  27
BRANCH  24  29
HETATM   29  O   UNL     1     -39.290  50.003 -54.154  1.00  0.00    -0.358 OA
HETATM   30  H   UNL     1     -39.858  49.214 -54.045  1.00  0.00     0.218 HD
ENDBRANCH  24  29
ENDBRANCH  20  21
ENDBRANCH  19  20
ENDBRANCH   2  19
TORSDOF 10
ENDMDL
MODEL 7
REMARK VINA RESULT:      -6.7      1.633      2.249
REMARK  10 active torsions:
REMARK  status: ('A' for Active; 'I' for Inactive)
REMARK    1  A    between atoms: C_2  and  C_3 
REMARK    2  A    between atoms: C_3  and  N_4 
REMARK    3  A    between atoms: N_4  and  C_5 
REMARK    4  A    between atoms: C_5  and  N_6 
REMARK    5  A    between atoms: N_6  and  N_7 
REMARK       I    between atoms: N_7  and  C_8 
REMARK    6  A    between atoms: C_8  and  C_9 
REMARK    7  A    between atoms: C_9  and  C_10 
REMARK    8  A    between atoms: C_10  and  C_11 
REMARK    9  A    between atoms: C_13  and  O_14 
REMARK   10  A    between atoms: C_15  and  O_16 
ROOT
HETATM    1  N   UNL     1     -41.252  56.955 -54.480  1.00  0.00    -0.268 N 
HETATM    2  C   UNL     1     -41.354  55.700 -55.047  1.00  0.00     0.236 C 
HETATM    3  O   UNL     1     -42.316  55.342 -55.727  1.00  0.00    -0.272 OA
HETATM    4  H   UNL     1     -40.349  57.353 -54.237  1.00  0.00     0.190 HD
ENDROOT
BRANCH   1   5
HETATM    5  N   UNL     1     -42.277  57.874 -54.777  1.00  0.00    -0.274 N 
HETATM    6  H   UNL     1     -42.192  58.253 -55.719  1.00  0.00     0.189 HD
BRANCH   5   7
HETATM    7  C   UNL     1     -42.728  58.737 -53.807  1.00  0.00     0.186 C 
HETATM    8  S   UNL     1     -42.225  60.321 -53.615  1.00  0.00    -0.040 SA
BRANCH   7   9
HETATM    9  N   UNL     1     -43.631  58.228 -52.922  1.00  0.00    -0.362 N 
HETATM   10  H   UNL     1     -44.062  58.914 -52.314  1.00  0.00     0.162 HD
BRANCH   9  11
HETATM   11  C   UNL     1     -43.955  56.835 -52.668  1.00  0.00     0.160 C 
BRANCH  11  12
HETATM   12  C   UNL     1     -43.159  56.196 -51.555  1.00  0.00    -0.040 A 
HETATM   13  C   UNL     1     -43.370  54.878 -51.120  1.00  0.00     0.010 A 
HETATM   14  C   UNL     1     -42.561  54.313 -50.128  1.00  0.00     0.024 A 
HETATM   15  C   UNL     1     -41.533  55.059 -49.562  1.00  0.00     0.034 A 
HETATM   16  C   UNL     1     -41.301  56.364 -49.982  1.00  0.00     0.024 A 
HETATM   17 CL   UNL     1     -40.536  54.361 -48.346  1.00  0.00    -0.084 Cl
HETATM   18  C   UNL     1     -42.106  56.927 -50.976  1.00  0.00     0.010 A 
ENDBRANCH  11  12
ENDBRANCH   9  11
ENDBRANCH   7   9
ENDBRANCH   5   7
ENDBRANCH   1   5
BRANCH   2  19
HETATM   19  C   UNL     1     -40.206  54.771 -54.727  1.00  0.00     0.109 C 
BRANCH  19  20
HETATM   20  C   UNL     1     -40.508  53.317 -55.099  1.00  0.00     0.048 C 
BRANCH  20  21
HETATM   21  C   UNL     1     -40.225  52.277 -54.034  1.00  0.00    -0.055 A 
HETATM   22  C   UNL     1     -40.298  52.569 -52.661  1.00  0.00     0.046 A 
HETATM   23  C   UNL     1     -39.986  51.586 -51.726  1.00  0.00     0.099 A 
HETATM   24  C   UNL     1     -39.642  50.303 -52.138  1.00  0.00     0.098 A 
HETATM   25  C   UNL     1     -39.601  49.982 -53.484  1.00  0.00     0.040 A 
HETATM   26  C   UNL     1     -39.894  50.967 -54.430  1.00  0.00     0.010 A 
BRANCH  23  27
HETATM   27  O   UNL     1     -39.989  51.845 -50.382  1.00  0.00    -0.358 OA
HETATM   28  H   UNL     1     -40.852  52.236 -50.158  1.00  0.00     0.218 HD
ENDBRANCH  23  27
BRANCH  24  29
HETATM   29  O   UNL     1     -39.332  49.350 -51.212  1.00  0.00    -0.358 OA
HETATM   30  H   UNL     1     -39.968  49.506 -50.484  1.00  0.00     0.218 HD
ENDBRANCH  24  29
ENDBRANCH  20  21
ENDBRANCH  19  20
ENDBRANCH   2  19
TORSDOF 10
ENDMDL
MODEL 8
REMARK VINA RESULT:      -6.7      3.721      6.792
REMARK  10 active torsions:
REMARK  status: ('A' for Active; 'I' for Inactive)
REMARK    1  A    between atoms: C_2  and  C_3 
REMARK    2  A    between atoms: C_3  and  N_4 
REMARK    3  A    between atoms: N_4  and  C_5 
REMARK    4  A    between atoms: C_5  and  N_6 
REMARK    5  A    between atoms: N_6  and  N_7 
REMARK       I    between atoms: N_7  and  C_8 
REMARK    6  A    between atoms: C_8  and  C_9 
REMARK    7  A    between atoms: C_9  and  C_10 
REMARK    8  A    between atoms: C_10  and  C_11 
REMARK    9  A    between atoms: C_13  and  O_14 
REMARK   10  A    between atoms: C_15  and  O_16 
ROOT
HETATM    1  N   UNL     1     -43.343  56.211 -54.496  1.00  0.00    -0.268 N 
HETATM    2  C   UNL     1     -44.007  57.269 -55.085  1.00  0.00     0.236 C 
HETATM    3  O   UNL     1     -45.128  57.640 -54.739  1.00  0.00    -0.272 OA
HETATM    4  H   UNL     1     -42.330  56.137 -54.533  1.00  0.00     0.190 HD
ENDROOT
BRANCH   1   5
HETATM    5  N   UNL     1     -43.973  55.597 -53.396  1.00  0.00    -0.274 N 
HETATM    6  H   UNL     1     -44.977  55.495 -53.537  1.00  0.00     0.189 HD
BRANCH   5   7
HETATM    7  C   UNL     1     -43.559  55.888 -52.118  1.00  0.00     0.186 C 
HETATM    8  S   UNL     1     -44.019  57.233 -51.236  1.00  0.00    -0.040 SA
BRANCH   7   9
HETATM    9  N   UNL     1     -42.677  55.012 -51.558  1.00  0.00    -0.362 N 
HETATM   10  H   UNL     1     -43.069  54.420 -50.836  1.00  0.00     0.162 HD
BRANCH   9  11
HETATM   11  C   UNL     1     -41.246  54.909 -51.782  1.00  0.00     0.160 C 
BRANCH  11  12
HETATM   12  C   UNL     1     -40.801  53.622 -52.437  1.00  0.00    -0.040 A 
HETATM   13  C   UNL     1     -41.070  53.311 -53.779  1.00  0.00     0.010 A 
HETATM   14  C   UNL     1     -40.581  52.134 -54.353  1.00  0.00     0.024 A 
HETATM   15  C   UNL     1     -39.816  51.255 -53.593  1.00  0.00     0.034 A 
HETATM   16  C   UNL     1     -39.532  51.546 -52.262  1.00  0.00     0.024 A 
HETATM   17 CL   UNL     1     -39.211  49.810 -54.302  1.00  0.00    -0.084 Cl
HETATM   18  C   UNL     1     -40.017  52.724 -51.690  1.00  0.00     0.010 A 
ENDBRANCH  11  12
ENDBRANCH   9  11
ENDBRANCH   7   9
ENDBRANCH   5   7
ENDBRANCH   1   5
BRANCH   2  19
HETATM   19  C   UNL     1     -43.265  57.915 -56.234  1.00  0.00     0.109 C 
BRANCH  19  20
HETATM   20  C   UNL     1     -44.202  58.360 -57.360  1.00  0.00     0.048 C 
BRANCH  20  21
HETATM   21  C   UNL     1     -44.472  57.344 -58.451  1.00  0.00    -0.055 A 
HETATM   22  C   UNL     1     -45.766  57.088 -58.935  1.00  0.00     0.046 A 
HETATM   23  C   UNL     1     -45.962  56.112 -59.908  1.00  0.00     0.099 A 
HETATM   24  C   UNL     1     -44.880  55.416 -60.437  1.00  0.00     0.098 A 
HETATM   25  C   UNL     1     -43.592  55.678 -60.003  1.00  0.00     0.040 A 
HETATM   26  C   UNL     1     -43.389  56.642 -59.012  1.00  0.00     0.010 A 
BRANCH  23  27
HETATM   27  O   UNL     1     -47.212  55.792 -60.365  1.00  0.00    -0.358 OA
HETATM   28  H   UNL     1     -47.235  54.831 -60.518  1.00  0.00     0.218 HD
ENDBRANCH  23  27
BRANCH  24  29
HETATM   29  O   UNL     1     -45.085  54.457 -61.387  1.00  0.00    -0.358 OA
HETATM   30  H   UNL     1     -45.437  53.693 -60.886  1.00  0.00     0.218 HD
ENDBRANCH  24  29
ENDBRANCH  20  21
ENDBRANCH  19  20
ENDBRANCH   2  19
TORSDOF 10
ENDMDL
MODEL 9
REMARK VINA RESULT:      -6.7      4.838      6.700
REMARK  10 active torsions:
REMARK  status: ('A' for Active; 'I' for Inactive)
REMARK    1  A    between atoms: C_2  and  C_3 
REMARK    2  A    between atoms: C_3  and  N_4 
REMARK    3  A    between atoms: N_4  and  C_5 
REMARK    4  A    between atoms: C_5  and  N_6 
REMARK    5  A    between atoms: N_6  and  N_7 
REMARK       I    between atoms: N_7  and  C_8 
REMARK    6  A    between atoms: C_8  and  C_9 
REMARK    7  A    between atoms: C_9  and  C_10 
REMARK    8  A    between atoms: C_10  and  C_11 
REMARK    9  A    between atoms: C_13  and  O_14 
REMARK   10  A    between atoms: C_15  and  O_16 
ROOT
HETATM    1  N   UNL     1     -41.971  56.088 -55.060  1.00  0.00    -0.268 N 
HETATM    2  C   UNL     1     -42.390  54.801 -54.788  1.00  0.00     0.236 C 
HETATM    3  O   UNL     1     -42.964  54.089 -55.611  1.00  0.00    -0.272 OA
HETATM    4  H   UNL     1     -41.219  56.522 -54.531  1.00  0.00     0.190 HD
ENDROOT
BRANCH   1   5
HETATM    5  N   UNL     1     -42.154  56.553 -56.377  1.00  0.00    -0.274 N 
HETATM    6  H   UNL     1     -41.347  57.074 -56.716  1.00  0.00     0.189 HD
BRANCH   5   7
HETATM    7  C   UNL     1     -43.389  57.004 -56.779  1.00  0.00     0.186 C 
HETATM    8  S   UNL     1     -44.120  58.415 -56.255  1.00  0.00    -0.040 SA
BRANCH   7   9
HETATM    9  N   UNL     1     -44.067  56.204 -57.650  1.00  0.00    -0.362 N 
HETATM   10  H   UNL     1     -44.594  55.456 -57.216  1.00  0.00     0.162 HD
BRANCH   9  11
HETATM   11  C   UNL     1     -44.030  56.220 -59.102  1.00  0.00     0.160 C 
BRANCH  11  12
HETATM   12  C   UNL     1     -45.223  56.878 -59.756  1.00  0.00    -0.040 A 
HETATM   13  C   UNL     1     -45.310  58.261 -59.975  1.00  0.00     0.010 A 
HETATM   14  C   UNL     1     -46.409  58.812 -60.642  1.00  0.00     0.024 A 
HETATM   15  C   UNL     1     -47.431  57.986 -61.098  1.00  0.00     0.034 A 
HETATM   16  C   UNL     1     -47.362  56.611 -60.898  1.00  0.00     0.024 A 
HETATM   17 CL   UNL     1     -48.780  58.664 -61.923  1.00  0.00    -0.084 Cl
HETATM   18  C   UNL     1     -46.262  56.060 -60.235  1.00  0.00     0.010 A 
ENDBRANCH  11  12
ENDBRANCH   9  11
ENDBRANCH   7   9
ENDBRANCH   5   7
ENDBRANCH   1   5
BRANCH   2  19
HETATM   19  C   UNL     1     -42.130  54.342 -53.371  1.00  0.00     0.109 C 
BRANCH  19  20
HETATM   20  C   UNL     1     -40.649  54.054 -53.110  1.00  0.00     0.048 C 
BRANCH  20  21
HETATM   21  C   UNL     1     -40.258  52.596 -52.987  1.00  0.00    -0.055 A 
HETATM   22  C   UNL     1     -40.317  51.708 -54.075  1.00  0.00     0.046 A 
HETATM   23  C   UNL     1     -39.987  50.368 -53.894  1.00  0.00     0.099 A 
HETATM   24  C   UNL     1     -39.558  49.908 -52.655  1.00  0.00     0.098 A 
HETATM   25  C   UNL     1     -39.456  50.772 -51.578  1.00  0.00     0.040 A 
HETATM   26  C   UNL     1     -39.804  52.114 -51.745  1.00  0.00     0.010 A 
BRANCH  23  27
HETATM   27  O   UNL     1     -40.085  49.459 -54.913  1.00  0.00    -0.358 OA
HETATM   28  H   UNL     1     -39.847  49.914 -55.740  1.00  0.00     0.218 HD
ENDBRANCH  23  27
BRANCH  24  29
HETATM   29  O   UNL     1     -39.243  48.590 -52.489  1.00  0.00    -0.358 OA
HETATM   30  H   UNL     1     -38.326  48.603 -52.148  1.00  0.00     0.218 HD
ENDBRANCH  24  29
ENDBRANCH  20  21
ENDBRANCH  19  20
ENDBRANCH   2  19
TORSDOF 10
ENDMDL
MODEL 10
REMARK VINA RESULT:      -6.6      2.186      2.910
REMARK  10 active torsions:
REMARK  status: ('A' for Active; 'I' for Inactive)
REMARK    1  A    between atoms: C_2  and  C_3 
REMARK    2  A    between atoms: C_3  and  N_4 
REMARK    3  A    between atoms: N_4  and  C_5 
REMARK    4  A    between atoms: C_5  and  N_6 
REMARK    5  A    between atoms: N_6  and  N_7 
REMARK       I    between atoms: N_7  and  C_8 
REMARK    6  A    between atoms: C_8  and  C_9 
REMARK    7  A    between atoms: C_9  and  C_10 
REMARK    8  A    between atoms: C_10  and  C_11 
REMARK    9  A    between atoms: C_13  and  O_14 
REMARK   10  A    between atoms: C_15  and  O_16 
ROOT
HETATM    1  N   UNL     1     -43.171  55.842 -53.684  1.00  0.00    -0.268 N 
HETATM    2  C   UNL     1     -42.244  55.526 -54.658  1.00  0.00     0.236 C 
HETATM    3  O   UNL     1     -42.522  55.449 -55.855  1.00  0.00    -0.272 OA
HETATM    4  H   UNL     1     -42.886  56.239 -52.793  1.00  0.00     0.190 HD
ENDROOT
BRANCH   1   5
HETATM    5  N   UNL     1     -44.471  56.162 -54.121  1.00  0.00    -0.274 N 
HETATM    6  H   UNL     1     -44.830  55.481 -54.789  1.00  0.00     0.189 HD
BRANCH   5   7
HETATM    7  C   UNL     1     -44.819  57.474 -54.337  1.00  0.00     0.186 C 
HETATM    8  S   UNL     1     -45.244  58.131 -55.815  1.00  0.00    -0.040 SA
BRANCH   7   9
HETATM    9  N   UNL     1     -44.773  58.294 -53.249  1.00  0.00    -0.362 N 
HETATM   10  H   UNL     1     -45.324  57.981 -52.458  1.00  0.00     0.162 HD
BRANCH   9  11
HETATM   11  C   UNL     1     -44.141  59.596 -53.129  1.00  0.00     0.160 C 
BRANCH  11  12
HETATM   12  C   UNL     1     -42.784  59.579 -52.465  1.00  0.00    -0.040 A 
HETATM   13  C   UNL     1     -42.573  59.989 -51.139  1.00  0.00     0.010 A 
HETATM   14  C   UNL     1     -41.307  59.893 -50.552  1.00  0.00     0.024 A 
HETATM   15  C   UNL     1     -40.239  59.384 -51.284  1.00  0.00     0.034 A 
HETATM   16  C   UNL     1     -40.426  58.965 -52.597  1.00  0.00     0.024 A 
HETATM   17 CL   UNL     1     -38.684  59.261 -50.559  1.00  0.00    -0.084 Cl
HETATM   18  C   UNL     1     -41.691  59.057 -53.182  1.00  0.00     0.010 A 
ENDBRANCH  11  12
ENDBRANCH   9  11
ENDBRANCH   7   9
ENDBRANCH   5   7
ENDBRANCH   1   5
BRANCH   2  19
HETATM   19  C   UNL     1     -40.857  55.232 -54.135  1.00  0.00     0.109 C 
BRANCH  19  20
HETATM   20  C   UNL     1     -40.880  54.413 -52.841  1.00  0.00     0.048 C 
BRANCH  20  21
HETATM   21  C   UNL     1     -40.466  52.961 -52.957  1.00  0.00    -0.055 A 
HETATM   22  C   UNL     1     -40.048  52.208 -51.846  1.00  0.00     0.046 A 
HETATM   23  C   UNL     1     -39.637  50.890 -52.018  1.00  0.00     0.099 A 
HETATM   24  C   UNL     1     -39.677  50.295 -53.274  1.00  0.00     0.098 A 
HETATM   25  C   UNL     1     -40.122  51.006 -54.377  1.00  0.00     0.040 A 
HETATM   26  C   UNL     1     -40.518  52.336 -54.217  1.00  0.00     0.010 A 
BRANCH  23  27
HETATM   27  O   UNL     1     -39.169  50.140 -50.972  1.00  0.00    -0.358 OA
HETATM   28  H   UNL     1     -39.613  50.450 -50.163  1.00  0.00     0.218 HD
ENDBRANCH  23  27
BRANCH  24  29
HETATM   29  O   UNL     1     -39.267  49.003 -53.431  1.00  0.00    -0.358 OA
HETATM   30  H   UNL     1     -38.748  48.815 -52.622  1.00  0.00     0.218 HD
ENDBRANCH  24  29
ENDBRANCH  20  21
ENDBRANCH  19  20
ENDBRANCH   2  19
TORSDOF 10
ENDMDL
