MODEL 1
REMARK VINA RESULT:      -7.8      0.000      0.000
REMARK  8 active torsions:
REMARK  status: ('A' for Active; 'I' for Inactive)
REMARK    1  A    between atoms: C_2  and  C_3 
REMARK    2  A    between atoms: C_3  and  N_4 
REMARK    3  A    between atoms: N_4  and  C_5 
REMARK    4  A    between atoms: C_7  and  N_8 
REMARK    5  A    between atoms: N_8  and  C_9 
REMARK    6  A    between atoms: C_9  and  C_10 
REMARK    7  A    between atoms: C_10  and  C_11 
REMARK    8  A    between atoms: C_12  and  O_13 
ROOT
HETATM    1  C   UNL     1     -40.233  53.516 -52.254  1.00  0.00     0.119 A 
HETATM    2  N   UNL     1     -40.530  54.391 -53.235  1.00  0.00    -0.207 NA
HETATM    3  C   UNL     1     -40.574  53.928 -54.490  1.00  0.00     0.181 A 
HETATM    4  N   UNL     1     -40.316  52.665 -54.811  1.00  0.00    -0.330 N 
HETATM    5  H   UNL     1     -40.301  52.434 -55.794  1.00  0.00     0.168 HD
HETATM    6  C   UNL     1     -40.049  51.751 -53.874  1.00  0.00     0.048 A 
HETATM    7  C   UNL     1     -40.006  52.149 -52.523  1.00  0.00     0.031 A 
HETATM    8  C   UNL     1     -39.818  50.416 -54.238  1.00  0.00     0.030 A 
HETATM    9  C   UNL     1     -39.557  49.458 -53.259  1.00  0.00     0.002 A 
HETATM   10  C   UNL     1     -39.525  49.827 -51.918  1.00  0.00     0.001 A 
HETATM   11  C   UNL     1     -39.747  51.155 -51.550  1.00  0.00     0.017 A 
ENDROOT
BRANCH   3  12
HETATM   12  N   UNL     1     -40.816  54.837 -55.504  1.00  0.00    -0.262 NA
HETATM   13  H   UNL     1     -40.013  55.477 -55.500  1.00  0.00     0.130 HD
BRANCH  12  14
HETATM   14  C   UNL     1     -42.093  55.561 -55.489  1.00  0.00     0.100 C 
BRANCH  14  15
HETATM   15  C   UNL     1     -42.919  55.320 -56.760  1.00  0.00     0.056 C 
BRANCH  15  16
HETATM   16  C   UNL     1     -42.856  56.342 -57.880  1.00  0.00    -0.024 A 
HETATM   17  C   UNL     1     -43.407  55.996 -59.136  1.00  0.00     0.074 A 
HETATM   18  C   UNL     1     -43.383  56.914 -60.190  1.00  0.00     0.037 A 
HETATM   19  C   UNL     1     -42.806  58.172 -60.016  1.00  0.00     0.003 A 
HETATM   20  C   UNL     1     -42.249  58.517 -58.791  1.00  0.00     0.001 A 
HETATM   21  C   UNL     1     -42.271  57.610 -57.730  1.00  0.00     0.010 A 
BRANCH  17  22
HETATM   22  O   UNL     1     -43.951  54.738 -59.217  1.00  0.00    -0.355 OA
HETATM   23  C   UNL     1     -45.044  54.560 -60.112  1.00  0.00     0.210 C 
ENDBRANCH  17  22
ENDBRANCH  15  16
ENDBRANCH  14  15
ENDBRANCH  12  14
ENDBRANCH   3  12
BRANCH   1  24
HETATM   24  N   UNL     1     -40.193  53.969 -50.928  1.00  0.00    -0.277 NA
HETATM   25  H   UNL     1     -39.230  54.066 -50.609  1.00  0.00     0.129 HD
BRANCH  24  26
HETATM   26  C   UNL     1     -40.979  55.163 -50.614  1.00  0.00     0.093 C 
BRANCH  26  27
HETATM   27  C   UNL     1     -41.263  55.221 -49.111  1.00  0.00     0.010 C 
HETATM   28  C   UNL     1     -40.504  54.163 -48.323  1.00  0.00     0.006 C 
ENDBRANCH  26  27
ENDBRANCH  24  26
ENDBRANCH   1  24
TORSDOF 8
ENDMDL
MODEL 2
REMARK VINA RESULT:      -7.8      2.741      4.190
REMARK  8 active torsions:
REMARK  status: ('A' for Active; 'I' for Inactive)
REMARK    1  A    between atoms: C_2  and  C_3 
REMARK    2  A    between atoms: C_3  and  N_4 
REMARK    3  A    between atoms: N_4  and  C_5 
REMARK    4  A    between atoms: C_7  and  N_8 
REMARK    5  A    between atoms: N_8  and  C_9 
REMARK    6  A    between atoms: C_9  and  C_10 
REMARK    7  A    between atoms: C_10  and  C_11 
REMARK    8  A    between atoms: C_12  and  O_13 
ROOT
HETATM    1  C   UNL     1     -40.218  53.472 -52.113  1.00  0.00     0.119 A 
HETATM    2  N   UNL     1     -40.475  54.319 -53.129  1.00  0.00    -0.207 NA
HETATM    3  C   UNL     1     -40.469  53.821 -54.371  1.00  0.00     0.181 A 
HETATM    4  N   UNL     1     -40.198  52.549 -54.646  1.00  0.00    -0.330 N 
HETATM    5  H   UNL     1     -40.143  52.291 -55.621  1.00  0.00     0.168 HD
HETATM    6  C   UNL     1     -39.969  51.662 -53.674  1.00  0.00     0.048 A 
HETATM    7  C   UNL     1     -39.981  52.098 -52.334  1.00  0.00     0.031 A 
HETATM    8  C   UNL     1     -39.724  50.318 -53.990  1.00  0.00     0.030 A 
HETATM    9  C   UNL     1     -39.503  49.388 -52.976  1.00  0.00     0.002 A 
HETATM   10  C   UNL     1     -39.525  49.795 -51.645  1.00  0.00     0.001 A 
HETATM   11  C   UNL     1     -39.762  51.133 -51.323  1.00  0.00     0.017 A 
ENDROOT
BRANCH   3  12
HETATM   12  N   UNL     1     -40.668  54.701 -55.419  1.00  0.00    -0.262 NA
HETATM   13  H   UNL     1     -39.988  55.456 -55.282  1.00  0.00     0.130 HD
BRANCH  12  14
HETATM   14  C   UNL     1     -42.026  55.219 -55.634  1.00  0.00     0.100 C 
BRANCH  14  15
HETATM   15  C   UNL     1     -42.131  56.725 -55.361  1.00  0.00     0.056 C 
BRANCH  15  16
HETATM   16  C   UNL     1     -42.802  57.195 -54.083  1.00  0.00    -0.024 A 
HETATM   17  C   UNL     1     -41.989  57.723 -53.054  1.00  0.00     0.074 A 
HETATM   18  C   UNL     1     -42.569  58.181 -51.866  1.00  0.00     0.037 A 
HETATM   19  C   UNL     1     -43.950  58.110 -51.684  1.00  0.00     0.003 A 
HETATM   20  C   UNL     1     -44.757  57.579 -52.684  1.00  0.00     0.001 A 
HETATM   21  C   UNL     1     -44.189  57.123 -53.874  1.00  0.00     0.010 A 
BRANCH  17  22
HETATM   22  O   UNL     1     -40.642  57.752 -53.318  1.00  0.00    -0.355 OA
HETATM   23  C   UNL     1     -39.910  58.873 -52.836  1.00  0.00     0.210 C 
ENDBRANCH  17  22
ENDBRANCH  15  16
ENDBRANCH  14  15
ENDBRANCH  12  14
ENDBRANCH   3  12
BRANCH   1  24
HETATM   24  N   UNL     1     -40.232  53.962 -50.800  1.00  0.00    -0.277 NA
HETATM   25  H   UNL     1     -39.283  54.090 -50.453  1.00  0.00     0.129 HD
BRANCH  24  26
HETATM   26  C   UNL     1     -41.055  55.146 -50.545  1.00  0.00     0.093 C 
BRANCH  26  27
HETATM   27  C   UNL     1     -42.403  54.729 -49.953  1.00  0.00     0.010 C 
HETATM   28  C   UNL     1     -43.449  54.430 -51.017  1.00  0.00     0.006 C 
ENDBRANCH  26  27
ENDBRANCH  24  26
ENDBRANCH   1  24
TORSDOF 8
ENDMDL
MODEL 3
REMARK VINA RESULT:      -7.7      1.281      2.059
REMARK  8 active torsions:
REMARK  status: ('A' for Active; 'I' for Inactive)
REMARK    1  A    between atoms: C_2  and  C_3 
REMARK    2  A    between atoms: C_3  and  N_4 
REMARK    3  A    between atoms: N_4  and  C_5 
REMARK    4  A    between atoms: C_7  and  N_8 
REMARK    5  A    between atoms: N_8  and  C_9 
REMARK    6  A    between atoms: C_9  and  C_10 
REMARK    7  A    between atoms: C_10  and  C_11 
REMARK    8  A    between atoms: C_12  and  O_13 
ROOT
HETATM    1  C   UNL     1     -40.266  53.539 -52.221  1.00  0.00     0.119 A 
HETATM    2  N   UNL     1     -40.646  54.411 -53.175  1.00  0.00    -0.207 NA
HETATM    3  C   UNL     1     -40.768  53.951 -54.426  1.00  0.00     0.181 A 
HETATM    4  N   UNL     1     -40.509  52.693 -54.769  1.00  0.00    -0.330 N 
HETATM    5  H   UNL     1     -40.557  52.465 -55.752  1.00  0.00     0.168 HD
HETATM    6  C   UNL     1     -40.161  51.782 -53.856  1.00  0.00     0.048 A 
HETATM    7  C   UNL     1     -40.033  52.177 -52.510  1.00  0.00     0.031 A 
HETATM    8  C   UNL     1     -39.932  50.452 -54.240  1.00  0.00     0.030 A 
HETATM    9  C   UNL     1     -39.586  49.497 -53.286  1.00  0.00     0.002 A 
HETATM   10  C   UNL     1     -39.469  49.863 -51.948  1.00  0.00     0.001 A 
HETATM   11  C   UNL     1     -39.690  51.186 -51.561  1.00  0.00     0.017 A 
ENDROOT
BRANCH   3  12
HETATM   12  N   UNL     1     -41.095  54.858 -55.417  1.00  0.00    -0.262 NA
HETATM   13  H   UNL     1     -40.661  55.745 -55.137  1.00  0.00     0.130 HD
BRANCH  12  14
HETATM   14  C   UNL     1     -42.514  55.025 -55.756  1.00  0.00     0.100 C 
BRANCH  14  15
HETATM   15  C   UNL     1     -42.854  56.462 -56.172  1.00  0.00     0.056 C 
BRANCH  15  16
HETATM   16  C   UNL     1     -42.667  56.870 -57.622  1.00  0.00    -0.024 A 
HETATM   17  C   UNL     1     -42.262  58.197 -57.899  1.00  0.00     0.074 A 
HETATM   18  C   UNL     1     -42.064  58.610 -59.220  1.00  0.00     0.037 A 
HETATM   19  C   UNL     1     -42.275  57.722 -60.274  1.00  0.00     0.003 A 
HETATM   20  C   UNL     1     -42.688  56.420 -60.015  1.00  0.00     0.001 A 
HETATM   21  C   UNL     1     -42.885  55.996 -58.699  1.00  0.00     0.010 A 
BRANCH  17  22
HETATM   22  O   UNL     1     -42.081  59.001 -56.801  1.00  0.00    -0.355 OA
HETATM   23  C   UNL     1     -42.220  60.405 -56.995  1.00  0.00     0.210 C 
ENDBRANCH  17  22
ENDBRANCH  15  16
ENDBRANCH  14  15
ENDBRANCH  12  14
ENDBRANCH   3  12
BRANCH   1  24
HETATM   24  N   UNL     1     -40.144  53.989 -50.899  1.00  0.00    -0.277 NA
HETATM   25  H   UNL     1     -39.163  54.102 -50.646  1.00  0.00     0.129 HD
BRANCH  24  26
HETATM   26  C   UNL     1     -40.928  55.167 -50.527  1.00  0.00     0.093 C 
BRANCH  26  27
HETATM   27  C   UNL     1     -41.215  55.152 -49.024  1.00  0.00     0.010 C 
HETATM   28  C   UNL     1     -40.399  54.106 -48.276  1.00  0.00     0.006 C 
ENDBRANCH  26  27
ENDBRANCH  24  26
ENDBRANCH   1  24
TORSDOF 8
ENDMDL
MODEL 4
REMARK VINA RESULT:      -7.7      3.220      5.550
REMARK  8 active torsions:
REMARK  status: ('A' for Active; 'I' for Inactive)
REMARK    1  A    between atoms: C_2  and  C_3 
REMARK    2  A    between atoms: C_3  and  N_4 
REMARK    3  A    between atoms: N_4  and  C_5 
REMARK    4  A    between atoms: C_7  and  N_8 
REMARK    5  A    between atoms: N_8  and  C_9 
REMARK    6  A    between atoms: C_9  and  C_10 
REMARK    7  A    between atoms: C_10  and  C_11 
REMARK    8  A    between atoms: C_12  and  O_13 
ROOT
HETATM    1  C   UNL     1     -40.990  53.132 -52.728  1.00  0.00     0.119 A 
HETATM    2  N   UNL     1     -41.959  53.505 -53.587  1.00  0.00    -0.207 NA
HETATM    3  C   UNL     1     -42.882  54.367 -53.146  1.00  0.00     0.181 A 
HETATM    4  N   UNL     1     -42.901  54.847 -51.907  1.00  0.00    -0.330 N 
HETATM    5  H   UNL     1     -43.685  55.431 -51.651  1.00  0.00     0.168 HD
HETATM    6  C   UNL     1     -41.946  54.534 -51.027  1.00  0.00     0.048 A 
HETATM    7  C   UNL     1     -40.920  53.651 -51.417  1.00  0.00     0.031 A 
HETATM    8  C   UNL     1     -41.969  55.085 -49.737  1.00  0.00     0.030 A 
HETATM    9  C   UNL     1     -40.962  54.774 -48.824  1.00  0.00     0.002 A 
HETATM   10  C   UNL     1     -39.931  53.915 -49.194  1.00  0.00     0.001 A 
HETATM   11  C   UNL     1     -39.907  53.358 -50.474  1.00  0.00     0.017 A 
ENDROOT
BRANCH   3  12
HETATM   12  N   UNL     1     -43.914  54.701 -54.006  1.00  0.00    -0.262 NA
HETATM   13  H   UNL     1     -44.179  53.827 -54.473  1.00  0.00     0.130 HD
BRANCH  12  14
HETATM   14  C   UNL     1     -43.685  55.789 -54.964  1.00  0.00     0.100 C 
BRANCH  14  15
HETATM   15  C   UNL     1     -44.044  57.166 -54.388  1.00  0.00     0.056 C 
BRANCH  15  16
HETATM   16  C   UNL     1     -42.997  57.925 -53.595  1.00  0.00    -0.024 A 
HETATM   17  C   UNL     1     -43.213  58.120 -52.212  1.00  0.00     0.074 A 
HETATM   18  C   UNL     1     -42.266  58.802 -51.442  1.00  0.00     0.037 A 
HETATM   19  C   UNL     1     -41.108  59.304 -52.034  1.00  0.00     0.003 A 
HETATM   20  C   UNL     1     -40.891  59.131 -53.396  1.00  0.00     0.001 A 
HETATM   21  C   UNL     1     -41.828  58.449 -54.173  1.00  0.00     0.010 A 
BRANCH  17  22
HETATM   22  O   UNL     1     -44.381  57.595 -51.716  1.00  0.00    -0.355 OA
HETATM   23  C   UNL     1     -45.229  58.474 -50.984  1.00  0.00     0.210 C 
ENDBRANCH  17  22
ENDBRANCH  15  16
ENDBRANCH  14  15
ENDBRANCH  12  14
ENDBRANCH   3  12
BRANCH   1  24
HETATM   24  N   UNL     1     -40.000  52.241 -53.165  1.00  0.00    -0.277 NA
HETATM   25  H   UNL     1     -39.675  51.658 -52.396  1.00  0.00     0.129 HD
BRANCH  24  26
HETATM   26  C   UNL     1     -40.311  51.436 -54.348  1.00  0.00     0.093 C 
BRANCH  26  27
HETATM   27  C   UNL     1     -39.738  50.027 -54.187  1.00  0.00     0.010 C 
HETATM   28  C   UNL     1     -39.669  49.578 -52.734  1.00  0.00     0.006 C 
ENDBRANCH  26  27
ENDBRANCH  24  26
ENDBRANCH   1  24
TORSDOF 8
ENDMDL
MODEL 5
REMARK VINA RESULT:      -7.6      1.803      4.194
REMARK  8 active torsions:
REMARK  status: ('A' for Active; 'I' for Inactive)
REMARK    1  A    between atoms: C_2  and  C_3 
REMARK    2  A    between atoms: C_3  and  N_4 
REMARK    3  A    between atoms: N_4  and  C_5 
REMARK    4  A    between atoms: C_7  and  N_8 
REMARK    5  A    between atoms: N_8  and  C_9 
REMARK    6  A    between atoms: C_9  and  C_10 
REMARK    7  A    between atoms: C_10  and  C_11 
REMARK    8  A    between atoms: C_12  and  O_13 
ROOT
HETATM    1  C   UNL     1     -41.085  53.274 -53.002  1.00  0.00     0.119 A 
HETATM    2  N   UNL     1     -42.022  53.676 -53.883  1.00  0.00    -0.207 NA
HETATM    3  C   UNL     1     -42.918  54.579 -53.468  1.00  0.00     0.181 A 
HETATM    4  N   UNL     1     -42.940  55.072 -52.234  1.00  0.00    -0.330 N 
HETATM    5  H   UNL     1     -43.704  55.690 -52.000  1.00  0.00     0.168 HD
HETATM    6  C   UNL     1     -42.015  54.731 -51.334  1.00  0.00     0.048 A 
HETATM    7  C   UNL     1     -41.019  53.803 -51.694  1.00  0.00     0.031 A 
HETATM    8  C   UNL     1     -42.040  55.297 -50.050  1.00  0.00     0.030 A 
HETATM    9  C   UNL     1     -41.064  54.955 -49.115  1.00  0.00     0.002 A 
HETATM   10  C   UNL     1     -40.062  54.051 -49.456  1.00  0.00     0.001 A 
HETATM   11  C   UNL     1     -40.036  53.480 -50.729  1.00  0.00     0.017 A 
ENDROOT
BRANCH   3  12
HETATM   12  N   UNL     1     -43.919  54.945 -54.351  1.00  0.00    -0.262 NA
HETATM   13  H   UNL     1     -43.803  54.337 -55.169  1.00  0.00     0.130 HD
BRANCH  12  14
HETATM   14  C   UNL     1     -44.019  56.360 -54.728  1.00  0.00     0.100 C 
BRANCH  14  15
HETATM   15  C   UNL     1     -42.786  56.853 -55.497  1.00  0.00     0.056 C 
BRANCH  15  16
HETATM   16  C   UNL     1     -42.792  56.789 -57.013  1.00  0.00    -0.024 A 
HETATM   17  C   UNL     1     -42.496  57.968 -57.735  1.00  0.00     0.074 A 
HETATM   18  C   UNL     1     -42.477  57.949 -59.134  1.00  0.00     0.037 A 
HETATM   19  C   UNL     1     -42.760  56.772 -59.825  1.00  0.00     0.003 A 
HETATM   20  C   UNL     1     -43.067  55.611 -59.126  1.00  0.00     0.001 A 
HETATM   21  C   UNL     1     -43.085  55.617 -57.730  1.00  0.00     0.010 A 
BRANCH  17  22
HETATM   22  O   UNL     1     -42.232  59.079 -56.973  1.00  0.00    -0.355 OA
HETATM   23  C   UNL     1     -41.669  60.204 -57.639  1.00  0.00     0.210 C 
ENDBRANCH  17  22
ENDBRANCH  15  16
ENDBRANCH  14  15
ENDBRANCH  12  14
ENDBRANCH   3  12
BRANCH   1  24
HETATM   24  N   UNL     1     -40.124  52.338 -53.410  1.00  0.00    -0.277 NA
HETATM   25  H   UNL     1     -39.656  51.926 -52.605  1.00  0.00     0.129 HD
BRANCH  24  26
HETATM   26  C   UNL     1     -40.564  51.309 -54.353  1.00  0.00     0.093 C 
BRANCH  26  27
HETATM   27  C   UNL     1     -39.651  50.085 -54.255  1.00  0.00     0.010 C 
HETATM   28  C   UNL     1     -39.593  49.500 -52.851  1.00  0.00     0.006 C 
ENDBRANCH  26  27
ENDBRANCH  24  26
ENDBRANCH   1  24
TORSDOF 8
ENDMDL
MODEL 6
REMARK VINA RESULT:      -7.6      3.226      5.638
REMARK  8 active torsions:
REMARK  status: ('A' for Active; 'I' for Inactive)
REMARK    1  A    between atoms: C_2  and  C_3 
REMARK    2  A    between atoms: C_3  and  N_4 
REMARK    3  A    between atoms: N_4  and  C_5 
REMARK    4  A    between atoms: C_7  and  N_8 
REMARK    5  A    between atoms: N_8  and  C_9 
REMARK    6  A    between atoms: C_9  and  C_10 
REMARK    7  A    between atoms: C_10  and  C_11 
REMARK    8  A    between atoms: C_12  and  O_13 
ROOT
HETATM    1  C   UNL     1     -40.618  53.518 -53.232  1.00  0.00     0.119 A 
HETATM    2  N   UNL     1     -40.573  54.282 -52.122  1.00  0.00    -0.207 NA
HETATM    3  C   UNL     1     -40.195  53.698 -50.980  1.00  0.00     0.181 A 
HETATM    4  N   UNL     1     -39.890  52.408 -50.886  1.00  0.00    -0.330 N 
HETATM    5  H   UNL     1     -39.692  52.048 -49.963  1.00  0.00     0.168 HD
HETATM    6  C   UNL     1     -39.888  51.615 -51.961  1.00  0.00     0.048 A 
HETATM    7  C   UNL     1     -40.250  52.155 -53.210  1.00  0.00     0.031 A 
HETATM    8  C   UNL     1     -39.525  50.265 -51.839  1.00  0.00     0.030 A 
HETATM    9  C   UNL     1     -39.504  49.441 -52.963  1.00  0.00     0.002 A 
HETATM   10  C   UNL     1     -39.844  49.959 -54.210  1.00  0.00     0.001 A 
HETATM   11  C   UNL     1     -40.213  51.299 -54.336  1.00  0.00     0.017 A 
ENDROOT
BRANCH   3  12
HETATM   12  N   UNL     1     -40.210  54.465 -49.829  1.00  0.00    -0.262 NA
HETATM   13  H   UNL     1     -40.073  53.806 -49.054  1.00  0.00     0.130 HD
BRANCH  12  14
HETATM   14  C   UNL     1     -41.365  55.344 -49.604  1.00  0.00     0.100 C 
BRANCH  14  15
HETATM   15  C   UNL     1     -41.202  56.712 -50.279  1.00  0.00     0.056 C 
BRANCH  15  16
HETATM   16  C   UNL     1     -42.373  57.295 -51.048  1.00  0.00    -0.024 A 
HETATM   17  C   UNL     1     -42.158  58.464 -51.814  1.00  0.00     0.074 A 
HETATM   18  C   UNL     1     -43.207  59.025 -52.549  1.00  0.00     0.037 A 
HETATM   19  C   UNL     1     -44.474  58.444 -52.523  1.00  0.00     0.003 A 
HETATM   20  C   UNL     1     -44.701  57.304 -51.762  1.00  0.00     0.001 A 
HETATM   21  C   UNL     1     -43.660  56.732 -51.028  1.00  0.00     0.010 A 
BRANCH  17  22
HETATM   22  O   UNL     1     -40.882  58.968 -51.779  1.00  0.00    -0.355 OA
HETATM   23  C   UNL     1     -40.116  58.882 -52.976  1.00  0.00     0.210 C 
ENDBRANCH  17  22
ENDBRANCH  15  16
ENDBRANCH  14  15
ENDBRANCH  12  14
ENDBRANCH   3  12
BRANCH   1  24
HETATM   24  N   UNL     1     -40.996  54.105 -54.447  1.00  0.00    -0.277 NA
HETATM   25  H   UNL     1     -41.971  53.899 -54.659  1.00  0.00     0.129 HD
BRANCH  24  26
HETATM   26  C   UNL     1     -40.708  55.531 -54.610  1.00  0.00     0.093 C 
BRANCH  26  27
HETATM   27  C   UNL     1     -42.006  56.303 -54.859  1.00  0.00     0.010 C 
HETATM   28  C   UNL     1     -43.249  55.439 -54.693  1.00  0.00     0.006 C 
ENDBRANCH  26  27
ENDBRANCH  24  26
ENDBRANCH   1  24
TORSDOF 8
ENDMDL
MODEL 7
REMARK VINA RESULT:      -7.6      3.006      7.636
REMARK  8 active torsions:
REMARK  status: ('A' for Active; 'I' for Inactive)
REMARK    1  A    between atoms: C_2  and  C_3 
REMARK    2  A    between atoms: C_3  and  N_4 
REMARK    3  A    between atoms: N_4  and  C_5 
REMARK    4  A    between atoms: C_7  and  N_8 
REMARK    5  A    between atoms: N_8  and  C_9 
REMARK    6  A    between atoms: C_9  and  C_10 
REMARK    7  A    between atoms: C_10  and  C_11 
REMARK    8  A    between atoms: C_12  and  O_13 
ROOT
HETATM    1  C   UNL     1     -43.593  56.863 -52.212  1.00  0.00     0.119 A 
HETATM    2  N   UNL     1     -43.363  55.552 -51.998  1.00  0.00    -0.207 NA
HETATM    3  C   UNL     1     -42.309  55.222 -51.242  1.00  0.00     0.181 A 
HETATM    4  N   UNL     1     -41.475  56.116 -50.722  1.00  0.00    -0.330 N 
HETATM    5  H   UNL     1     -40.666  55.760 -50.232  1.00  0.00     0.168 HD
HETATM    6  C   UNL     1     -41.677  57.427 -50.877  1.00  0.00     0.048 A 
HETATM    7  C   UNL     1     -42.779  57.863 -51.639  1.00  0.00     0.031 A 
HETATM    8  C   UNL     1     -40.802  58.349 -50.284  1.00  0.00     0.030 A 
HETATM    9  C   UNL     1     -41.023  59.718 -50.430  1.00  0.00     0.002 A 
HETATM   10  C   UNL     1     -42.114  60.170 -51.166  1.00  0.00     0.001 A 
HETATM   11  C   UNL     1     -42.984  59.257 -51.765  1.00  0.00     0.017 A 
ENDROOT
BRANCH   3  12
HETATM   12  N   UNL     1     -42.034  53.876 -51.075  1.00  0.00    -0.262 NA
HETATM   13  H   UNL     1     -42.908  53.453 -50.744  1.00  0.00     0.130 HD
BRANCH  12  14
HETATM   14  C   UNL     1     -40.891  53.509 -50.229  1.00  0.00     0.100 C 
BRANCH  14  15
HETATM   15  C   UNL     1     -39.654  53.120 -51.050  1.00  0.00     0.056 C 
BRANCH  15  16
HETATM   16  C   UNL     1     -39.760  51.977 -52.042  1.00  0.00    -0.024 A 
HETATM   17  C   UNL     1     -40.098  52.281 -53.381  1.00  0.00     0.074 A 
HETATM   18  C   UNL     1     -40.192  51.259 -54.331  1.00  0.00     0.037 A 
HETATM   19  C   UNL     1     -39.966  49.933 -53.963  1.00  0.00     0.003 A 
HETATM   20  C   UNL     1     -39.648  49.621 -52.646  1.00  0.00     0.001 A 
HETATM   21  C   UNL     1     -39.547  50.634 -51.691  1.00  0.00     0.010 A 
BRANCH  17  22
HETATM   22  O   UNL     1     -40.306  53.611 -53.652  1.00  0.00    -0.355 OA
HETATM   23  C   UNL     1     -40.376  53.990 -55.023  1.00  0.00     0.210 C 
ENDBRANCH  17  22
ENDBRANCH  15  16
ENDBRANCH  14  15
ENDBRANCH  12  14
ENDBRANCH   3  12
BRANCH   1  24
HETATM   24  N   UNL     1     -44.698  57.241 -52.988  1.00  0.00    -0.277 NA
HETATM   25  H   UNL     1     -44.887  58.237 -52.886  1.00  0.00     0.129 HD
BRANCH  24  26
HETATM   26  C   UNL     1     -44.682  56.846 -54.397  1.00  0.00     0.093 C 
BRANCH  26  27
HETATM   27  C   UNL     1     -43.291  57.082 -54.991  1.00  0.00     0.010 C 
HETATM   28  C   UNL     1     -43.140  56.505 -56.392  1.00  0.00     0.006 C 
ENDBRANCH  26  27
ENDBRANCH  24  26
ENDBRANCH   1  24
TORSDOF 8
ENDMDL
MODEL 8
REMARK VINA RESULT:      -7.6      3.006      4.338
REMARK  8 active torsions:
REMARK  status: ('A' for Active; 'I' for Inactive)
REMARK    1  A    between atoms: C_2  and  C_3 
REMARK    2  A    between atoms: C_3  and  N_4 
REMARK    3  A    between atoms: N_4  and  C_5 
REMARK    4  A    between atoms: C_7  and  N_8 
REMARK    5  A    between atoms: N_8  and  C_9 
REMARK    6  A    between atoms: C_9  and  C_10 
REMARK    7  A    between atoms: C_10  and  C_11 
REMARK    8  A    between atoms: C_12  and  O_13 
ROOT
HETATM    1  C   UNL     1     -40.180  53.436 -51.909  1.00  0.00     0.119 A 
HETATM    2  N   UNL     1     -40.603  54.448 -52.692  1.00  0.00    -0.207 NA
HETATM    3  C   UNL     1     -40.820  54.184 -53.986  1.00  0.00     0.181 A 
HETATM    4  N   UNL     1     -40.616  52.990 -54.532  1.00  0.00    -0.330 N 
HETATM    5  H   UNL     1     -40.736  52.915 -55.532  1.00  0.00     0.168 HD
HETATM    6  C   UNL     1     -40.229  51.946 -53.794  1.00  0.00     0.048 A 
HETATM    7  C   UNL     1     -40.001  52.130 -52.416  1.00  0.00     0.031 A 
HETATM    8  C   UNL     1     -40.058  50.687 -54.389  1.00  0.00     0.030 A 
HETATM    9  C   UNL     1     -39.672  49.593 -53.617  1.00  0.00     0.002 A 
HETATM   10  C   UNL     1     -39.456  49.750 -52.251  1.00  0.00     0.001 A 
HETATM   11  C   UNL     1     -39.618  51.002 -51.653  1.00  0.00     0.017 A 
ENDROOT
BRANCH   3  12
HETATM   12  N   UNL     1     -41.191  55.237 -54.804  1.00  0.00    -0.262 NA
HETATM   13  H   UNL     1     -40.600  56.027 -54.525  1.00  0.00     0.130 HD
BRANCH  12  14
HETATM   14  C   UNL     1     -42.612  55.604 -54.849  1.00  0.00     0.100 C 
BRANCH  14  15
HETATM   15  C   UNL     1     -42.851  57.076 -54.486  1.00  0.00     0.056 C 
BRANCH  15  16
HETATM   16  C   UNL     1     -42.028  57.701 -53.375  1.00  0.00    -0.024 A 
HETATM   17  C   UNL     1     -42.525  57.632 -52.053  1.00  0.00     0.074 A 
HETATM   18  C   UNL     1     -41.791  58.182 -50.997  1.00  0.00     0.037 A 
HETATM   19  C   UNL     1     -40.572  58.812 -51.241  1.00  0.00     0.003 A 
HETATM   20  C   UNL     1     -40.081  58.899 -52.538  1.00  0.00     0.001 A 
HETATM   21  C   UNL     1     -40.803  58.350 -53.599  1.00  0.00     0.010 A 
BRANCH  17  22
HETATM   22  O   UNL     1     -43.733  56.996 -51.907  1.00  0.00    -0.355 OA
HETATM   23  C   UNL     1     -43.800  55.941 -50.954  1.00  0.00     0.210 C 
ENDBRANCH  17  22
ENDBRANCH  15  16
ENDBRANCH  14  15
ENDBRANCH  12  14
ENDBRANCH   3  12
BRANCH   1  24
HETATM   24  N   UNL     1     -39.957  53.677 -50.547  1.00  0.00    -0.277 NA
HETATM   25  H   UNL     1     -38.991  53.474 -50.297  1.00  0.00     0.129 HD
BRANCH  24  26
HETATM   26  C   UNL     1     -40.376  54.981 -50.030  1.00  0.00     0.093 C 
BRANCH  26  27
HETATM   27  C   UNL     1     -41.002  54.818 -48.643  1.00  0.00     0.010 C 
HETATM   28  C   UNL     1     -40.288  53.779 -47.790  1.00  0.00     0.006 C 
ENDBRANCH  26  27
ENDBRANCH  24  26
ENDBRANCH   1  24
TORSDOF 8
ENDMDL
MODEL 9
REMARK VINA RESULT:      -7.5      3.455      7.330
REMARK  8 active torsions:
REMARK  status: ('A' for Active; 'I' for Inactive)
REMARK    1  A    between atoms: C_2  and  C_3 
REMARK    2  A    between atoms: C_3  and  N_4 
REMARK    3  A    between atoms: N_4  and  C_5 
REMARK    4  A    between atoms: C_7  and  N_8 
REMARK    5  A    between atoms: N_8  and  C_9 
REMARK    6  A    between atoms: C_9  and  C_10 
REMARK    7  A    between atoms: C_10  and  C_11 
REMARK    8  A    between atoms: C_12  and  O_13 
ROOT
HETATM    1  C   UNL     1     -42.778  57.698 -51.568  1.00  0.00     0.119 A 
HETATM    2  N   UNL     1     -42.437  56.439 -51.229  1.00  0.00    -0.207 NA
HETATM    3  C   UNL     1     -42.906  55.442 -51.988  1.00  0.00     0.181 A 
HETATM    4  N   UNL     1     -43.705  55.634 -53.033  1.00  0.00    -0.330 N 
HETATM    5  H   UNL     1     -44.066  54.810 -53.494  1.00  0.00     0.168 HD
HETATM    6  C   UNL     1     -44.046  56.863 -53.430  1.00  0.00     0.048 A 
HETATM    7  C   UNL     1     -43.576  57.972 -52.700  1.00  0.00     0.031 A 
HETATM    8  C   UNL     1     -44.859  57.037 -54.560  1.00  0.00     0.030 A 
HETATM    9  C   UNL     1     -45.201  58.320 -54.985  1.00  0.00     0.002 A 
HETATM   10  C   UNL     1     -44.734  59.430 -54.288  1.00  0.00     0.001 A 
HETATM   11  C   UNL     1     -43.930  59.262 -53.158  1.00  0.00     0.017 A 
ENDROOT
BRANCH   3  12
HETATM   12  N   UNL     1     -42.610  54.146 -51.605  1.00  0.00    -0.262 NA
HETATM   13  H   UNL     1     -43.492  53.749 -51.262  1.00  0.00     0.130 HD
BRANCH  12  14
HETATM   14  C   UNL     1     -41.512  53.945 -50.652  1.00  0.00     0.100 C 
BRANCH  14  15
HETATM   15  C   UNL     1     -40.179  53.636 -51.347  1.00  0.00     0.056 C 
BRANCH  15  16
HETATM   16  C   UNL     1     -40.045  52.346 -52.136  1.00  0.00    -0.024 A 
HETATM   17  C   UNL     1     -40.345  52.371 -53.518  1.00  0.00     0.074 A 
HETATM   18  C   UNL     1     -40.220  51.208 -54.285  1.00  0.00     0.037 A 
HETATM   19  C   UNL     1     -39.812  50.015 -53.692  1.00  0.00     0.003 A 
HETATM   20  C   UNL     1     -39.529  49.975 -52.331  1.00  0.00     0.001 A 
HETATM   21  C   UNL     1     -39.646  51.130 -51.557  1.00  0.00     0.010 A 
BRANCH  17  22
HETATM   22  O   UNL     1     -40.742  53.588 -54.016  1.00  0.00    -0.355 OA
HETATM   23  C   UNL     1     -40.145  54.016 -55.236  1.00  0.00     0.210 C 
ENDBRANCH  17  22
ENDBRANCH  15  16
ENDBRANCH  14  15
ENDBRANCH  12  14
ENDBRANCH   3  12
BRANCH   1  24
HETATM   24  N   UNL     1     -42.291  58.764 -50.800  1.00  0.00    -0.277 NA
HETATM   25  H   UNL     1     -42.135  58.473 -49.836  1.00  0.00     0.129 HD
BRANCH  24  26
HETATM   26  C   UNL     1     -41.133  59.486 -51.331  1.00  0.00     0.093 C 
BRANCH  26  27
HETATM   27  C   UNL     1     -39.840  58.791 -50.899  1.00  0.00     0.010 C 
HETATM   28  C   UNL     1     -38.835  59.747 -50.271  1.00  0.00     0.006 C 
ENDBRANCH  26  27
ENDBRANCH  24  26
ENDBRANCH   1  24
TORSDOF 8
ENDMDL
MODEL 10
REMARK VINA RESULT:      -7.4      1.738      2.426
REMARK  8 active torsions:
REMARK  status: ('A' for Active; 'I' for Inactive)
REMARK    1  A    between atoms: C_2  and  C_3 
REMARK    2  A    between atoms: C_3  and  N_4 
REMARK    3  A    between atoms: N_4  and  C_5 
REMARK    4  A    between atoms: C_7  and  N_8 
REMARK    5  A    between atoms: N_8  and  C_9 
REMARK    6  A    between atoms: C_9  and  C_10 
REMARK    7  A    between atoms: C_10  and  C_11 
REMARK    8  A    between atoms: C_12  and  O_13 
ROOT
HETATM    1  C   UNL     1     -41.519  54.651 -52.613  1.00  0.00     0.119 A 
HETATM    2  N   UNL     1     -42.387  55.144 -53.519  1.00  0.00    -0.207 NA
HETATM    3  C   UNL     1     -42.592  54.434 -54.634  1.00  0.00     0.181 A 
HETATM    4  N   UNL     1     -41.967  53.291 -54.897  1.00  0.00    -0.330 N 
HETATM    5  H   UNL     1     -42.134  52.873 -55.802  1.00  0.00     0.168 HD
HETATM    6  C   UNL     1     -41.122  52.744 -54.019  1.00  0.00     0.048 A 
HETATM    7  C   UNL     1     -40.867  53.414 -52.807  1.00  0.00     0.031 A 
HETATM    8  C   UNL     1     -40.504  51.517 -54.307  1.00  0.00     0.030 A 
HETATM    9  C   UNL     1     -39.637  50.936 -53.383  1.00  0.00     0.002 A 
HETATM   10  C   UNL     1     -39.382  51.575 -52.173  1.00  0.00     0.001 A 
HETATM   11  C   UNL     1     -39.988  52.799 -51.884  1.00  0.00     0.017 A 
ENDROOT
BRANCH   3  12
HETATM   12  N   UNL     1     -43.434  54.969 -55.593  1.00  0.00    -0.262 NA
HETATM   13  H   UNL     1     -43.377  54.335 -56.398  1.00  0.00     0.130 HD
BRANCH  12  14
HETATM   14  C   UNL     1     -43.229  56.370 -55.982  1.00  0.00     0.100 C 
BRANCH  14  15
HETATM   15  C   UNL     1     -42.845  56.520 -57.460  1.00  0.00     0.056 C 
BRANCH  15  16
HETATM   16  C   UNL     1     -43.875  56.186 -58.523  1.00  0.00    -0.024 A 
HETATM   17  C   UNL     1     -44.855  57.156 -58.835  1.00  0.00     0.074 A 
HETATM   18  C   UNL     1     -45.814  56.894 -59.819  1.00  0.00     0.037 A 
HETATM   19  C   UNL     1     -45.817  55.673 -60.491  1.00  0.00     0.003 A 
HETATM   20  C   UNL     1     -44.868  54.707 -60.183  1.00  0.00     0.001 A 
HETATM   21  C   UNL     1     -43.903  54.958 -59.205  1.00  0.00     0.010 A 
BRANCH  17  22
HETATM   22  O   UNL     1     -44.777  58.327 -58.122  1.00  0.00    -0.355 OA
HETATM   23  C   UNL     1     -45.997  58.865 -57.623  1.00  0.00     0.210 C 
ENDBRANCH  17  22
ENDBRANCH  15  16
ENDBRANCH  14  15
ENDBRANCH  12  14
ENDBRANCH   3  12
BRANCH   1  24
HETATM   24  N   UNL     1     -41.294  55.365 -51.429  1.00  0.00    -0.277 NA
HETATM   25  H   UNL     1     -41.425  56.364 -51.579  1.00  0.00     0.129 HD
BRANCH  24  26
HETATM   26  C   UNL     1     -42.010  54.910 -50.236  1.00  0.00     0.093 C 
BRANCH  26  27
HETATM   27  C   UNL     1     -41.171  55.181 -48.986  1.00  0.00     0.010 C 
HETATM   28  C   UNL     1     -40.565  53.916 -48.394  1.00  0.00     0.006 C 
ENDBRANCH  26  27
ENDBRANCH  24  26
ENDBRANCH   1  24
TORSDOF 8
ENDMDL
