MODEL 1
REMARK VINA RESULT:      -8.4      0.000      0.000
REMARK  3 active torsions:
REMARK  status: ('A' for Active; 'I' for Inactive)
REMARK    1  A    between atoms: C_6  and  C_7 
REMARK       I    between atoms: C_7  and  N_8 
REMARK    2  A    between atoms: N_8  and  C_9 
REMARK    3  A    between atoms: N_12  and  C_13 
ROOT
HETATM    1  C   UNL     1     -41.871  57.056 -52.085  1.00  0.00     0.177 C 
HETATM    2  C   UNL     1     -41.929  57.825 -53.428  1.00  0.00     0.248 C 
HETATM    3  O   UNL     1     -41.817  57.175 -54.475  1.00  0.00    -0.271 OA
HETATM    4  N   UNL     1     -42.162  59.208 -53.333  1.00  0.00    -0.299 N 
HETATM    5  C   UNL     1     -41.699  59.952 -52.160  1.00  0.00     0.134 C 
HETATM    6  C   UNL     1     -41.787  59.188 -50.852  1.00  0.00     0.023 C 
HETATM    7  C   UNL     1     -41.124  57.836 -51.012  1.00  0.00     0.036 C 
ENDROOT
BRANCH   1   8
HETATM    8  N   UNL     1     -41.260  55.754 -52.349  1.00  0.00    -0.344 N 
HETATM    9  C   UNL     1     -41.907  54.561 -52.145  1.00  0.00     0.253 C 
HETATM   10  O   UNL     1     -43.012  54.462 -51.626  1.00  0.00    -0.268 OA
HETATM   11  H   UNL     1     -40.466  55.774 -52.987  1.00  0.00     0.163 HD
BRANCH   9  12
HETATM   12  C   UNL     1     -41.185  53.353 -52.640  1.00  0.00     0.043 A 
HETATM   13  C   UNL     1     -40.326  52.625 -51.787  1.00  0.00    -0.045 A 
HETATM   14  C   UNL     1     -39.649  51.504 -52.299  1.00  0.00     0.014 A 
HETATM   15  C   UNL     1     -40.094  52.997 -50.347  1.00  0.00     0.049 C 
HETATM   16  C   UNL     1     -39.836  51.084 -53.619  1.00  0.00    -0.061 A 
HETATM   17  C   UNL     1     -39.148  49.856 -54.139  1.00  0.00     0.048 C 
HETATM   18  C   UNL     1     -40.725  51.789 -54.439  1.00  0.00     0.014 A 
HETATM   19  C   UNL     1     -41.395  52.932 -53.971  1.00  0.00    -0.045 A 
HETATM   20  C   UNL     1     -42.337  53.649 -54.901  1.00  0.00     0.049 C 
ENDBRANCH   9  12
ENDBRANCH   1   8
BRANCH   4  21
HETATM   21  C   UNL     1     -42.536  59.913 -54.492  1.00  0.00     0.154 A 
HETATM   22  N   UNL     1     -41.721  60.144 -55.527  1.00  0.00    -0.155 NA
HETATM   23  N   UNL     1     -42.450  60.850 -56.401  1.00  0.00    -0.283 N 
HETATM   24  C   UNL     1     -41.843  61.306 -57.628  1.00  0.00     0.179 C 
HETATM   25  C   UNL     1     -43.737  61.036 -56.009  1.00  0.00     0.115 A 
HETATM   26  C   UNL     1     -43.832  60.435 -54.777  1.00  0.00     0.071 A 
ENDBRANCH   4  21
TORSDOF 3
ENDMDL
MODEL 2
REMARK VINA RESULT:      -8.2      0.132      1.748
REMARK  3 active torsions:
REMARK  status: ('A' for Active; 'I' for Inactive)
REMARK    1  A    between atoms: C_6  and  C_7 
REMARK       I    between atoms: C_7  and  N_8 
REMARK    2  A    between atoms: N_8  and  C_9 
REMARK    3  A    between atoms: N_12  and  C_13 
ROOT
HETATM    1  C   UNL     1     -41.887  57.031 -52.178  1.00  0.00     0.177 C 
HETATM    2  C   UNL     1     -41.947  57.787 -53.528  1.00  0.00     0.248 C 
HETATM    3  O   UNL     1     -41.828  57.127 -54.568  1.00  0.00    -0.271 OA
HETATM    4  N   UNL     1     -42.190  59.169 -53.447  1.00  0.00    -0.299 N 
HETATM    5  C   UNL     1     -41.734  59.927 -52.279  1.00  0.00     0.134 C 
HETATM    6  C   UNL     1     -41.820  59.175 -50.964  1.00  0.00     0.023 C 
HETATM    7  C   UNL     1     -41.148  57.826 -51.110  1.00  0.00     0.036 C 
ENDROOT
BRANCH   1   8
HETATM    8  N   UNL     1     -41.267  55.731 -52.428  1.00  0.00    -0.344 N 
HETATM    9  C   UNL     1     -41.862  54.536 -52.106  1.00  0.00     0.253 C 
HETATM   10  O   UNL     1     -42.914  54.441 -51.486  1.00  0.00    -0.268 OA
HETATM   11  H   UNL     1     -40.533  55.734 -53.134  1.00  0.00     0.163 HD
BRANCH   9  12
HETATM   12  C   UNL     1     -41.154  53.320 -52.601  1.00  0.00     0.043 A 
HETATM   13  C   UNL     1     -41.359  52.850 -53.918  1.00  0.00    -0.045 A 
HETATM   14  C   UNL     1     -40.686  51.689 -54.338  1.00  0.00     0.014 A 
HETATM   15  C   UNL     1     -42.274  53.534 -54.898  1.00  0.00     0.049 C 
HETATM   16  C   UNL     1     -39.801  51.017 -53.490  1.00  0.00    -0.061 A 
HETATM   17  C   UNL     1     -39.050  49.809 -53.968  1.00  0.00     0.048 C 
HETATM   18  C   UNL     1     -39.575  51.520 -52.204  1.00  0.00     0.014 A 
HETATM   19  C   UNL     1     -40.252  52.659 -51.740  1.00  0.00    -0.045 A 
HETATM   20  C   UNL     1     -39.967  53.152 -50.346  1.00  0.00     0.049 C 
ENDBRANCH   9  12
ENDBRANCH   1   8
BRANCH   4  21
HETATM   21  C   UNL     1     -42.565  59.861 -54.613  1.00  0.00     0.154 A 
HETATM   22  N   UNL     1     -41.734  60.137 -55.624  1.00  0.00    -0.155 NA
HETATM   23  N   UNL     1     -42.472  60.810 -56.515  1.00  0.00    -0.283 N 
HETATM   24  C   UNL     1     -41.854  61.302 -57.723  1.00  0.00     0.179 C 
HETATM   25  C   UNL     1     -43.777  60.931 -56.159  1.00  0.00     0.115 A 
HETATM   26  C   UNL     1     -43.877  60.320 -54.932  1.00  0.00     0.071 A 
ENDBRANCH   4  21
TORSDOF 3
ENDMDL
MODEL 3
REMARK VINA RESULT:      -8.0      0.971      2.141
REMARK  3 active torsions:
REMARK  status: ('A' for Active; 'I' for Inactive)
REMARK    1  A    between atoms: C_6  and  C_7 
REMARK       I    between atoms: C_7  and  N_8 
REMARK    2  A    between atoms: N_8  and  C_9 
REMARK    3  A    between atoms: N_12  and  C_13 
ROOT
HETATM    1  C   UNL     1     -41.969  57.283 -52.254  1.00  0.00     0.177 C 
HETATM    2  C   UNL     1     -42.322  57.944 -53.609  1.00  0.00     0.248 C 
HETATM    3  O   UNL     1     -42.391  57.218 -54.608  1.00  0.00    -0.271 OA
HETATM    4  N   UNL     1     -42.590  59.323 -53.566  1.00  0.00    -0.299 N 
HETATM    5  C   UNL     1     -41.937  60.168 -52.564  1.00  0.00     0.134 C 
HETATM    6  C   UNL     1     -41.734  59.504 -51.214  1.00  0.00     0.023 C 
HETATM    7  C   UNL     1     -41.059  58.163 -51.408  1.00  0.00     0.036 C 
ENDROOT
BRANCH   1   8
HETATM    8  N   UNL     1     -41.368  55.982 -52.542  1.00  0.00    -0.344 N 
HETATM    9  C   UNL     1     -41.926  54.789 -52.154  1.00  0.00     0.253 C 
HETATM   10  O   UNL     1     -42.918  54.698 -51.441  1.00  0.00    -0.268 OA
HETATM   11  H   UNL     1     -40.700  55.978 -53.311  1.00  0.00     0.163 HD
BRANCH   9  12
HETATM   12  C   UNL     1     -41.259  53.569 -52.694  1.00  0.00     0.043 A 
HETATM   13  C   UNL     1     -41.546  53.107 -53.999  1.00  0.00    -0.045 A 
HETATM   14  C   UNL     1     -40.910  51.942 -54.462  1.00  0.00     0.014 A 
HETATM   15  C   UNL     1     -42.512  53.803 -54.920  1.00  0.00     0.049 C 
HETATM   16  C   UNL     1     -39.981  51.259 -53.672  1.00  0.00    -0.061 A 
HETATM   17  C   UNL     1     -39.270  50.047 -54.198  1.00  0.00     0.048 C 
HETATM   18  C   UNL     1     -39.675  51.754 -52.399  1.00  0.00     0.014 A 
HETATM   19  C   UNL     1     -40.313  52.897 -51.891  1.00  0.00    -0.045 A 
HETATM   20  C   UNL     1     -39.941  53.381 -50.514  1.00  0.00     0.049 C 
ENDBRANCH   9  12
ENDBRANCH   1   8
BRANCH   4  21
HETATM   21  C   UNL     1     -43.214  59.927 -54.674  1.00  0.00     0.154 A 
HETATM   22  N   UNL     1     -44.537  59.972 -54.859  1.00  0.00    -0.155 NA
HETATM   23  N   UNL     1     -44.711  60.611 -56.022  1.00  0.00    -0.283 N 
HETATM   24  C   UNL     1     -46.045  60.790 -56.543  1.00  0.00     0.179 C 
HETATM   25  C   UNL     1     -43.552  61.048 -56.580  1.00  0.00     0.115 A 
HETATM   26  C   UNL     1     -42.559  60.628 -55.728  1.00  0.00     0.071 A 
ENDBRANCH   4  21
TORSDOF 3
ENDMDL
MODEL 4
REMARK VINA RESULT:      -7.7      2.597      3.099
REMARK  3 active torsions:
REMARK  status: ('A' for Active; 'I' for Inactive)
REMARK    1  A    between atoms: C_6  and  C_7 
REMARK       I    between atoms: C_7  and  N_8 
REMARK    2  A    between atoms: N_8  and  C_9 
REMARK    3  A    between atoms: N_12  and  C_13 
ROOT
HETATM    1  C   UNL     1     -43.680  55.975 -54.160  1.00  0.00     0.177 C 
HETATM    2  C   UNL     1     -43.280  56.258 -55.630  1.00  0.00     0.248 C 
HETATM    3  O   UNL     1     -42.679  55.371 -56.248  1.00  0.00    -0.271 OA
HETATM    4  N   UNL     1     -43.694  57.496 -56.150  1.00  0.00    -0.299 N 
HETATM    5  C   UNL     1     -43.837  58.654 -55.265  1.00  0.00     0.134 C 
HETATM    6  C   UNL     1     -44.355  58.328 -53.876  1.00  0.00     0.023 C 
HETATM    7  C   UNL     1     -43.529  57.208 -53.280  1.00  0.00     0.036 C 
ENDROOT
BRANCH   1   8
HETATM    8  N   UNL     1     -42.865  54.856 -53.690  1.00  0.00    -0.344 N 
HETATM    9  C   UNL     1     -41.597  55.005 -53.185  1.00  0.00     0.253 C 
HETATM   10  O   UNL     1     -40.984  56.066 -53.177  1.00  0.00    -0.268 OA
HETATM   11  H   UNL     1     -43.387  54.015 -53.451  1.00  0.00     0.163 HD
BRANCH   9  12
HETATM   12  C   UNL     1     -40.999  53.773 -52.594  1.00  0.00     0.043 A 
HETATM   13  C   UNL     1     -41.128  53.498 -51.214  1.00  0.00    -0.045 A 
HETATM   14  C   UNL     1     -40.533  52.335 -50.694  1.00  0.00     0.014 A 
HETATM   15  C   UNL     1     -41.872  54.400 -50.265  1.00  0.00     0.049 C 
HETATM   16  C   UNL     1     -39.850  51.438 -51.520  1.00  0.00    -0.061 A 
HETATM   17  C   UNL     1     -39.264  50.175 -50.961  1.00  0.00     0.048 C 
HETATM   18  C   UNL     1     -39.769  51.702 -52.892  1.00  0.00     0.014 A 
HETATM   19  C   UNL     1     -40.324  52.869 -53.442  1.00  0.00    -0.045 A 
HETATM   20  C   UNL     1     -40.204  53.097 -54.925  1.00  0.00     0.049 C 
ENDBRANCH   9  12
ENDBRANCH   1   8
BRANCH   4  21
HETATM   21  C   UNL     1     -43.649  57.696 -57.542  1.00  0.00     0.154 A 
HETATM   22  N   UNL     1     -42.593  58.192 -58.196  1.00  0.00    -0.155 NA
HETATM   23  N   UNL     1     -42.960  58.234 -59.482  1.00  0.00    -0.283 N 
HETATM   24  C   UNL     1     -42.049  58.771 -60.464  1.00  0.00     0.179 C 
HETATM   25  C   UNL     1     -44.197  57.721 -59.711  1.00  0.00     0.115 A 
HETATM   26  C   UNL     1     -44.672  57.354 -58.475  1.00  0.00     0.071 A 
ENDBRANCH   4  21
TORSDOF 3
ENDMDL
MODEL 5
REMARK VINA RESULT:      -7.6      2.495      3.274
REMARK  3 active torsions:
REMARK  status: ('A' for Active; 'I' for Inactive)
REMARK    1  A    between atoms: C_6  and  C_7 
REMARK       I    between atoms: C_7  and  N_8 
REMARK    2  A    between atoms: N_8  and  C_9 
REMARK    3  A    between atoms: N_12  and  C_13 
ROOT
HETATM    1  C   UNL     1     -43.621  55.714 -53.832  1.00  0.00     0.177 C 
HETATM    2  C   UNL     1     -43.100  56.196 -55.208  1.00  0.00     0.248 C 
HETATM    3  O   UNL     1     -42.396  55.420 -55.866  1.00  0.00    -0.271 OA
HETATM    4  N   UNL     1     -43.528  57.472 -55.613  1.00  0.00    -0.299 N 
HETATM    5  C   UNL     1     -43.815  58.503 -54.612  1.00  0.00     0.134 C 
HETATM    6  C   UNL     1     -44.444  57.982 -53.332  1.00  0.00     0.023 C 
HETATM    7  C   UNL     1     -43.619  56.831 -52.797  1.00  0.00     0.036 C 
ENDROOT
BRANCH   1   8
HETATM    8  N   UNL     1     -42.796  54.579 -53.421  1.00  0.00    -0.344 N 
HETATM    9  C   UNL     1     -41.532  54.713 -52.900  1.00  0.00     0.253 C 
HETATM   10  O   UNL     1     -40.932  55.778 -52.827  1.00  0.00    -0.268 OA
HETATM   11  H   UNL     1     -43.309  53.719 -53.236  1.00  0.00     0.163 HD
BRANCH   9  12
HETATM   12  C   UNL     1     -40.924  53.456 -52.378  1.00  0.00     0.043 A 
HETATM   13  C   UNL     1     -40.277  52.550 -53.248  1.00  0.00    -0.045 A 
HETATM   14  C   UNL     1     -39.734  51.366 -52.717  1.00  0.00     0.014 A 
HETATM   15  C   UNL     1     -40.146  52.789 -54.728  1.00  0.00     0.049 C 
HETATM   16  C   UNL     1     -39.795  51.091 -51.348  1.00  0.00    -0.061 A 
HETATM   17  C   UNL     1     -39.166  49.850 -50.786  1.00  0.00     0.048 C 
HETATM   18  C   UNL     1     -40.399  52.019 -50.492  1.00  0.00     0.014 A 
HETATM   19  C   UNL     1     -40.980  53.197 -50.991  1.00  0.00    -0.045 A 
HETATM   20  C   UNL     1     -41.616  54.157 -50.021  1.00  0.00     0.049 C 
ENDBRANCH   9  12
ENDBRANCH   1   8
BRANCH   4  21
HETATM   21  C   UNL     1     -43.362  57.848 -56.959  1.00  0.00     0.154 A 
HETATM   22  N   UNL     1     -44.187  57.487 -57.947  1.00  0.00    -0.155 NA
HETATM   23  N   UNL     1     -43.672  58.032 -59.056  1.00  0.00    -0.283 N 
HETATM   24  C   UNL     1     -44.309  57.793 -60.328  1.00  0.00     0.179 C 
HETATM   25  C   UNL     1     -42.572  58.796 -58.825  1.00  0.00     0.115 A 
HETATM   26  C   UNL     1     -42.346  58.706 -57.472  1.00  0.00     0.071 A 
ENDBRANCH   4  21
TORSDOF 3
ENDMDL
MODEL 6
REMARK VINA RESULT:      -7.5      3.885      7.920
REMARK  3 active torsions:
REMARK  status: ('A' for Active; 'I' for Inactive)
REMARK    1  A    between atoms: C_6  and  C_7 
REMARK       I    between atoms: C_7  and  N_8 
REMARK    2  A    between atoms: N_8  and  C_9 
REMARK    3  A    between atoms: N_12  and  C_13 
ROOT
HETATM    1  C   UNL     1     -42.177  56.684 -55.295  1.00  0.00     0.177 C 
HETATM    2  C   UNL     1     -41.914  55.213 -54.888  1.00  0.00     0.248 C 
HETATM    3  O   UNL     1     -42.329  54.321 -55.638  1.00  0.00    -0.271 OA
HETATM    4  N   UNL     1     -41.167  55.026 -53.713  1.00  0.00    -0.299 N 
HETATM    5  C   UNL     1     -41.239  56.012 -52.632  1.00  0.00     0.134 C 
HETATM    6  C   UNL     1     -41.368  57.451 -53.097  1.00  0.00     0.023 C 
HETATM    7  C   UNL     1     -42.504  57.559 -54.092  1.00  0.00     0.036 C 
ENDROOT
BRANCH   1   8
HETATM    8  N   UNL     1     -43.252  56.682 -56.285  1.00  0.00    -0.344 N 
HETATM    9  C   UNL     1     -43.325  57.578 -57.323  1.00  0.00     0.253 C 
HETATM   10  O   UNL     1     -42.565  58.528 -57.461  1.00  0.00    -0.268 OA
HETATM   11  H   UNL     1     -43.760  55.802 -56.366  1.00  0.00     0.163 HD
BRANCH   9  12
HETATM   12  C   UNL     1     -44.394  57.303 -58.326  1.00  0.00     0.043 A 
HETATM   13  C   UNL     1     -44.136  56.488 -59.451  1.00  0.00    -0.045 A 
HETATM   14  C   UNL     1     -45.166  56.270 -60.383  1.00  0.00     0.014 A 
HETATM   15  C   UNL     1     -42.800  55.842 -59.705  1.00  0.00     0.049 C 
HETATM   16  C   UNL     1     -46.439  56.815 -60.198  1.00  0.00    -0.061 A 
HETATM   17  C   UNL     1     -47.545  56.532 -61.173  1.00  0.00     0.048 C 
HETATM   18  C   UNL     1     -46.692  57.584 -59.057  1.00  0.00     0.014 A 
HETATM   19  C   UNL     1     -45.680  57.849 -58.120  1.00  0.00    -0.045 A 
HETATM   20  C   UNL     1     -46.013  58.683 -56.912  1.00  0.00     0.049 C 
ENDBRANCH   9  12
ENDBRANCH   1   8
BRANCH   4  21
HETATM   21  C   UNL     1     -40.625  53.755 -53.448  1.00  0.00     0.154 A 
HETATM   22  N   UNL     1     -40.549  53.208 -52.230  1.00  0.00    -0.155 NA
HETATM   23  N   UNL     1     -39.964  52.018 -52.411  1.00  0.00    -0.283 N 
HETATM   24  C   UNL     1     -39.689  51.180 -51.270  1.00  0.00     0.179 C 
HETATM   25  C   UNL     1     -39.710  51.731 -53.714  1.00  0.00     0.115 A 
HETATM   26  C   UNL     1     -40.133  52.833 -54.419  1.00  0.00     0.071 A 
ENDBRANCH   4  21
TORSDOF 3
ENDMDL
MODEL 7
REMARK VINA RESULT:      -7.4      3.936      7.843
REMARK  3 active torsions:
REMARK  status: ('A' for Active; 'I' for Inactive)
REMARK    1  A    between atoms: C_6  and  C_7 
REMARK       I    between atoms: C_7  and  N_8 
REMARK    2  A    between atoms: N_8  and  C_9 
REMARK    3  A    between atoms: N_12  and  C_13 
ROOT
HETATM    1  C   UNL     1     -42.162  56.579 -55.238  1.00  0.00     0.177 C 
HETATM    2  C   UNL     1     -41.950  55.105 -54.814  1.00  0.00     0.248 C 
HETATM    3  O   UNL     1     -42.408  54.219 -55.547  1.00  0.00    -0.271 OA
HETATM    4  N   UNL     1     -41.195  54.906 -53.646  1.00  0.00    -0.299 N 
HETATM    5  C   UNL     1     -41.216  55.908 -52.578  1.00  0.00     0.134 C 
HETATM    6  C   UNL     1     -41.297  57.345 -53.061  1.00  0.00     0.023 C 
HETATM    7  C   UNL     1     -42.440  57.482 -54.044  1.00  0.00     0.036 C 
ENDROOT
BRANCH   1   8
HETATM    8  N   UNL     1     -43.249  56.605 -56.215  1.00  0.00    -0.344 N 
HETATM    9  C   UNL     1     -43.291  57.476 -57.276  1.00  0.00     0.253 C 
HETATM   10  O   UNL     1     -42.485  58.381 -57.449  1.00  0.00    -0.268 OA
HETATM   11  H   UNL     1     -43.801  55.750 -56.266  1.00  0.00     0.163 HD
BRANCH   9  12
HETATM   12  C   UNL     1     -44.385  57.228 -58.259  1.00  0.00     0.043 A 
HETATM   13  C   UNL     1     -45.669  57.785 -58.066  1.00  0.00    -0.045 A 
HETATM   14  C   UNL     1     -46.678  57.510 -59.007  1.00  0.00     0.014 A 
HETATM   15  C   UNL     1     -46.014  58.660 -56.892  1.00  0.00     0.049 C 
HETATM   16  C   UNL     1     -46.422  56.728 -60.137  1.00  0.00    -0.061 A 
HETATM   17  C   UNL     1     -47.493  56.485 -61.160  1.00  0.00     0.048 C 
HETATM   18  C   UNL     1     -45.134  56.220 -60.336  1.00  0.00     0.014 A 
HETATM   19  C   UNL     1     -44.110  56.447 -59.403  1.00  0.00    -0.045 A 
HETATM   20  C   UNL     1     -42.744  55.873 -59.673  1.00  0.00     0.049 C 
ENDBRANCH   9  12
ENDBRANCH   1   8
BRANCH   4  21
HETATM   21  C   UNL     1     -40.699  53.618 -53.370  1.00  0.00     0.154 A 
HETATM   22  N   UNL     1     -40.523  52.667 -54.294  1.00  0.00    -0.155 NA
HETATM   23  N   UNL     1     -40.055  51.606 -53.626  1.00  0.00    -0.283 N 
HETATM   24  C   UNL     1     -39.799  50.375 -54.334  1.00  0.00     0.179 C 
HETATM   25  C   UNL     1     -39.852  51.843 -52.304  1.00  0.00     0.115 A 
HETATM   26  C   UNL     1     -40.252  53.143 -52.103  1.00  0.00     0.071 A 
ENDBRANCH   4  21
TORSDOF 3
ENDMDL
MODEL 8
REMARK VINA RESULT:      -7.4      2.700      4.249
REMARK  3 active torsions:
REMARK  status: ('A' for Active; 'I' for Inactive)
REMARK    1  A    between atoms: C_6  and  C_7 
REMARK       I    between atoms: C_7  and  N_8 
REMARK    2  A    between atoms: N_8  and  C_9 
REMARK    3  A    between atoms: N_12  and  C_13 
ROOT
HETATM    1  C   UNL     1     -43.254  57.717 -53.402  1.00  0.00     0.177 C 
HETATM    2  C   UNL     1     -43.530  58.350 -52.016  1.00  0.00     0.248 C 
HETATM    3  O   UNL     1     -42.927  57.892 -51.039  1.00  0.00    -0.271 OA
HETATM    4  N   UNL     1     -44.416  59.441 -52.007  1.00  0.00    -0.299 N 
HETATM    5  C   UNL     1     -45.486  59.528 -53.003  1.00  0.00     0.134 C 
HETATM    6  C   UNL     1     -45.112  59.008 -54.379  1.00  0.00     0.023 C 
HETATM    7  C   UNL     1     -44.515  57.622 -54.249  1.00  0.00     0.036 C 
ENDROOT
BRANCH   1   8
HETATM    8  N   UNL     1     -42.641  56.409 -53.175  1.00  0.00    -0.344 N 
HETATM    9  C   UNL     1     -41.287  56.189 -53.234  1.00  0.00     0.253 C 
HETATM   10  O   UNL     1     -40.472  57.032 -53.586  1.00  0.00    -0.268 OA
HETATM   11  H   UNL     1     -43.219  55.748 -52.659  1.00  0.00     0.163 HD
BRANCH   9  12
HETATM   12  C   UNL     1     -40.844  54.833 -52.798  1.00  0.00     0.043 A 
HETATM   13  C   UNL     1     -40.665  54.537 -51.428  1.00  0.00    -0.045 A 
HETATM   14  C   UNL     1     -40.228  53.252 -51.062  1.00  0.00     0.014 A 
HETATM   15  C   UNL     1     -40.915  55.541 -50.335  1.00  0.00     0.049 C 
HETATM   16  C   UNL     1     -40.001  52.261 -52.021  1.00  0.00    -0.061 A 
HETATM   17  C   UNL     1     -39.585  50.878 -51.613  1.00  0.00     0.048 C 
HETATM   18  C   UNL     1     -40.226  52.556 -53.370  1.00  0.00     0.014 A 
HETATM   19  C   UNL     1     -40.633  53.837 -53.777  1.00  0.00    -0.045 A 
HETATM   20  C   UNL     1     -40.858  54.093 -55.243  1.00  0.00     0.049 C 
ENDBRANCH   9  12
ENDBRANCH   1   8
BRANCH   4  21
HETATM   21  C   UNL     1     -44.475  60.256 -50.861  1.00  0.00     0.154 A 
HETATM   22  N   UNL     1     -45.318  60.059 -49.842  1.00  0.00    -0.155 NA
HETATM   23  N   UNL     1     -45.065  61.048 -48.976  1.00  0.00    -0.283 N 
HETATM   24  C   UNL     1     -45.847  61.154 -47.768  1.00  0.00     0.179 C 
HETATM   25  C   UNL     1     -44.040  61.854 -49.357  1.00  0.00     0.115 A 
HETATM   26  C   UNL     1     -43.626  61.365 -50.573  1.00  0.00     0.071 A 
ENDBRANCH   4  21
TORSDOF 3
ENDMDL
MODEL 9
REMARK VINA RESULT:      -7.3      2.240      2.571
REMARK  3 active torsions:
REMARK  status: ('A' for Active; 'I' for Inactive)
REMARK    1  A    between atoms: C_6  and  C_7 
REMARK       I    between atoms: C_7  and  N_8 
REMARK    2  A    between atoms: N_8  and  C_9 
REMARK    3  A    between atoms: N_12  and  C_13 
ROOT
HETATM    1  C   UNL     1     -42.175  56.956 -50.861  1.00  0.00     0.177 C 
HETATM    2  C   UNL     1     -43.271  57.685 -51.675  1.00  0.00     0.248 C 
HETATM    3  O   UNL     1     -43.978  57.008 -52.432  1.00  0.00    -0.271 OA
HETATM    4  N   UNL     1     -43.400  59.063 -51.433  1.00  0.00    -0.299 N 
HETATM    5  C   UNL     1     -42.232  59.852 -51.036  1.00  0.00     0.134 C 
HETATM    6  C   UNL     1     -41.255  59.123 -50.131  1.00  0.00     0.023 C 
HETATM    7  C   UNL     1     -40.902  57.784 -50.745  1.00  0.00     0.036 C 
ENDROOT
BRANCH   1   8
HETATM    8  N   UNL     1     -41.936  55.663 -51.501  1.00  0.00    -0.344 N 
HETATM    9  C   UNL     1     -41.155  55.507 -52.619  1.00  0.00     0.253 C 
HETATM   10  O   UNL     1     -40.671  56.437 -53.251  1.00  0.00    -0.268 OA
HETATM   11  H   UNL     1     -42.103  54.852 -50.907  1.00  0.00     0.163 HD
BRANCH   9  12
HETATM   12  C   UNL     1     -40.889  54.094 -53.015  1.00  0.00     0.043 A 
HETATM   13  C   UNL     1     -40.178  53.225 -52.158  1.00  0.00    -0.045 A 
HETATM   14  C   UNL     1     -39.931  51.906 -52.579  1.00  0.00     0.014 A 
HETATM   15  C   UNL     1     -39.662  53.647 -50.809  1.00  0.00     0.049 C 
HETATM   16  C   UNL     1     -40.404  51.436 -53.808  1.00  0.00    -0.061 A 
HETATM   17  C   UNL     1     -40.179  50.011 -54.222  1.00  0.00     0.048 C 
HETATM   18  C   UNL     1     -41.145  52.295 -54.626  1.00  0.00     0.014 A 
HETATM   19  C   UNL     1     -41.385  53.628 -54.253  1.00  0.00    -0.045 A 
HETATM   20  C   UNL     1     -42.188  54.504 -55.176  1.00  0.00     0.049 C 
ENDBRANCH   9  12
ENDBRANCH   1   8
BRANCH   4  21
HETATM   21  C   UNL     1     -44.556  59.726 -51.887  1.00  0.00     0.154 A 
HETATM   22  N   UNL     1     -44.646  60.360 -53.061  1.00  0.00    -0.155 NA
HETATM   23  N   UNL     1     -45.887  60.861 -53.099  1.00  0.00    -0.283 N 
HETATM   24  C   UNL     1     -46.299  61.653 -54.232  1.00  0.00     0.179 C 
HETATM   25  C   UNL     1     -46.642  60.523 -52.022  1.00  0.00     0.115 A 
HETATM   26  C   UNL     1     -45.813  59.780 -51.216  1.00  0.00     0.071 A 
ENDBRANCH   4  21
TORSDOF 3
ENDMDL
MODEL 10
REMARK VINA RESULT:      -7.2      2.167      3.860
REMARK  3 active torsions:
REMARK  status: ('A' for Active; 'I' for Inactive)
REMARK    1  A    between atoms: C_6  and  C_7 
REMARK       I    between atoms: C_7  and  N_8 
REMARK    2  A    between atoms: N_8  and  C_9 
REMARK    3  A    between atoms: N_12  and  C_13 
ROOT
HETATM    1  C   UNL     1     -41.346  57.651 -53.226  1.00  0.00     0.177 C 
HETATM    2  C   UNL     1     -42.133  58.352 -52.091  1.00  0.00     0.248 C 
HETATM    3  O   UNL     1     -42.001  57.918 -50.940  1.00  0.00    -0.271 OA
HETATM    4  N   UNL     1     -42.894  59.470 -52.472  1.00  0.00    -0.299 N 
HETATM    5  C   UNL     1     -43.461  59.547 -53.821  1.00  0.00     0.134 C 
HETATM    6  C   UNL     1     -42.584  58.957 -54.910  1.00  0.00     0.023 C 
HETATM    7  C   UNL     1     -42.157  57.560 -54.511  1.00  0.00     0.036 C 
ENDROOT
BRANCH   1   8
HETATM    8  N   UNL     1     -40.941  56.336 -52.734  1.00  0.00    -0.344 N 
HETATM    9  C   UNL     1     -41.765  55.238 -52.745  1.00  0.00     0.253 C 
HETATM   10  O   UNL     1     -42.946  55.273 -53.066  1.00  0.00    -0.268 OA
HETATM   11  H   UNL     1     -39.934  56.187 -52.684  1.00  0.00     0.163 HD
BRANCH   9  12
HETATM   12  C   UNL     1     -41.113  53.950 -52.369  1.00  0.00     0.043 A 
HETATM   13  C   UNL     1     -40.477  53.150 -53.345  1.00  0.00    -0.045 A 
HETATM   14  C   UNL     1     -39.892  51.934 -52.950  1.00  0.00     0.014 A 
HETATM   15  C   UNL     1     -40.399  53.537 -54.797  1.00  0.00     0.049 C 
HETATM   16  C   UNL     1     -39.902  51.523 -51.614  1.00  0.00    -0.061 A 
HETATM   17  C   UNL     1     -39.228  50.248 -51.198  1.00  0.00     0.048 C 
HETATM   18  C   UNL     1     -40.497  52.348 -50.653  1.00  0.00     0.014 A 
HETATM   19  C   UNL     1     -41.118  53.554 -51.014  1.00  0.00    -0.045 A 
HETATM   20  C   UNL     1     -41.742  54.398 -49.934  1.00  0.00     0.049 C 
ENDBRANCH   9  12
ENDBRANCH   1   8
BRANCH   4  21
HETATM   21  C   UNL     1     -43.377  60.335 -51.473  1.00  0.00     0.154 A 
HETATM   22  N   UNL     1     -44.570  60.210 -50.882  1.00  0.00    -0.155 NA
HETATM   23  N   UNL     1     -44.645  61.227 -50.015  1.00  0.00    -0.283 N 
HETATM   24  C   UNL     1     -45.845  61.409 -49.236  1.00  0.00     0.179 C 
HETATM   25  C   UNL     1     -43.517  61.981 -49.964  1.00  0.00     0.115 A 
HETATM   26  C   UNL     1     -42.667  61.427 -50.892  1.00  0.00     0.071 A 
ENDBRANCH   4  21
TORSDOF 3
ENDMDL
