MODEL 1
REMARK VINA RESULT:      -9.3      0.000      0.000
REMARK  4 active torsions:
REMARK  status: ('A' for Active; 'I' for Inactive)
REMARK    1  A    between atoms: N_4  and  C_5 
REMARK    2  A    between atoms: C_16  and  C_17 
REMARK    3  A    between atoms: C_24  and  C_25 
REMARK    4  A    between atoms: C_25  and  O_26 
ROOT
HETATM    1  C   UNL     1     -40.833  54.760 -48.735  1.00  0.00     0.073 C 
HETATM    2  C   UNL     1     -40.853  54.317 -50.152  1.00  0.00     0.065 A 
HETATM    3  N   UNL     1     -40.325  53.142 -50.496  1.00  0.00    -0.170 NA
HETATM    4  N   UNL     1     -40.527  53.035 -51.847  1.00  0.00    -0.215 N 
HETATM    5  C   UNL     1     -41.148  54.179 -52.353  1.00  0.00     0.165 A 
HETATM    6  C   UNL     1     -41.390  55.003 -51.262  1.00  0.00     0.039 A 
HETATM    7  N   UNL     1     -41.489  54.459 -53.632  1.00  0.00    -0.216 NA
HETATM    8  C   UNL     1     -42.139  55.635 -53.794  1.00  0.00     0.137 A 
HETATM    9 CL   UNL     1     -42.549  55.887 -55.450  1.00  0.00    -0.062 Cl
HETATM   10  C   UNL     1     -42.473  56.542 -52.788  1.00  0.00     0.011 A 
HETATM   11  C   UNL     1     -42.064  56.214 -51.480  1.00  0.00     0.030 A 
ENDROOT
BRANCH  10  12
HETATM   12  C   UNL     1     -43.280  57.804 -53.038  1.00  0.00     0.164 C 
HETATM   13  N   UNL     1     -44.555  57.696 -52.341  1.00  0.00    -0.330 N 
HETATM   14  C   UNL     1     -44.863  58.343 -51.191  1.00  0.00     0.321 C 
HETATM   15  H   UNL     1     -45.190  56.947 -52.585  1.00  0.00     0.165 HD
HETATM   16  O   UNL     1     -45.859  58.054 -50.538  1.00  0.00    -0.247 OA
HETATM   17  N   UNL     1     -44.019  59.346 -50.820  1.00  0.00    -0.312 N 
HETATM   18  C   UNL     1     -42.921  59.768 -51.536  1.00  0.00     0.024 C 
HETATM   19  H   UNL     1     -44.309  59.848 -49.988  1.00  0.00     0.170 HD
HETATM   20  C   UNL     1     -42.242  61.008 -51.029  1.00  0.00     0.069 C 
HETATM   21  C   UNL     1     -42.559  59.063 -52.627  1.00  0.00     0.067 C 
BRANCH  21  22
HETATM   22  C   UNL     1     -41.403  59.486 -53.451  1.00  0.00     0.293 C 
HETATM   23  O   UNL     1     -40.243  59.180 -53.228  1.00  0.00    -0.259 OA
BRANCH  22  24
HETATM   24  O   UNL     1     -41.834  60.279 -54.461  1.00  0.00    -0.323 OA
HETATM   25  C   UNL     1     -42.049  59.591 -55.695  1.00  0.00     0.213 C 
ENDBRANCH  22  24
ENDBRANCH  21  22
ENDBRANCH  10  12
BRANCH   4  26
HETATM   26  C   UNL     1     -40.134  51.838 -52.522  1.00  0.00     0.060 A 
HETATM   27  C   UNL     1     -39.726  50.728 -51.761  1.00  0.00     0.031 A 
HETATM   28  C   UNL     1     -39.361  49.532 -52.385  1.00  0.00     0.002 A 
HETATM   29  C   UNL     1     -39.393  49.433 -53.773  1.00  0.00     0.000 A 
HETATM   30  C   UNL     1     -39.790  50.529 -54.536  1.00  0.00     0.002 A 
HETATM   31  C   UNL     1     -40.161  51.728 -53.918  1.00  0.00     0.031 A 
ENDBRANCH   4  26
TORSDOF 4
ENDMDL
MODEL 2
REMARK VINA RESULT:      -8.1      2.149      3.688
REMARK  4 active torsions:
REMARK  status: ('A' for Active; 'I' for Inactive)
REMARK    1  A    between atoms: N_4  and  C_5 
REMARK    2  A    between atoms: C_16  and  C_17 
REMARK    3  A    between atoms: C_24  and  C_25 
REMARK    4  A    between atoms: C_25  and  O_26 
ROOT
HETATM    1  C   UNL     1     -41.980  55.548 -56.032  1.00  0.00     0.073 C 
HETATM    2  C   UNL     1     -41.620  54.784 -54.812  1.00  0.00     0.065 A 
HETATM    3  N   UNL     1     -41.155  53.538 -54.912  1.00  0.00    -0.170 NA
HETATM    4  N   UNL     1     -40.904  53.139 -53.626  1.00  0.00    -0.215 N 
HETATM    5  C   UNL     1     -41.262  54.135 -52.715  1.00  0.00     0.165 A 
HETATM    6  C   UNL     1     -41.698  55.214 -53.470  1.00  0.00     0.039 A 
HETATM    7  N   UNL     1     -41.188  54.108 -51.364  1.00  0.00    -0.216 NA
HETATM    8  C   UNL     1     -41.556  55.262 -50.760  1.00  0.00     0.137 A 
HETATM    9 CL   UNL     1     -41.406  55.133 -49.046  1.00  0.00    -0.062 Cl
HETATM   10  C   UNL     1     -41.984  56.428 -51.394  1.00  0.00     0.011 A 
HETATM   11  C   UNL     1     -42.072  56.388 -52.799  1.00  0.00     0.030 A 
ENDROOT
BRANCH  10  12
HETATM   12  C   UNL     1     -42.299  57.715 -50.649  1.00  0.00     0.164 C 
HETATM   13  N   UNL     1     -41.050  58.368 -50.284  1.00  0.00    -0.330 N 
HETATM   14  C   UNL     1     -40.539  59.459 -50.907  1.00  0.00     0.321 C 
HETATM   15  H   UNL     1     -40.399  57.887 -49.678  1.00  0.00     0.165 HD
HETATM   16  O   UNL     1     -39.392  59.837 -50.703  1.00  0.00    -0.247 OA
HETATM   17  N   UNL     1     -41.382  60.121 -51.748  1.00  0.00    -0.312 N 
HETATM   18  C   UNL     1     -42.700  59.793 -51.974  1.00  0.00     0.024 C 
HETATM   19  H   UNL     1     -40.989  60.964 -52.152  1.00  0.00     0.170 HD
HETATM   20  C   UNL     1     -43.488  60.771 -52.801  1.00  0.00     0.069 C 
HETATM   21  C   UNL     1     -43.179  58.655 -51.433  1.00  0.00     0.067 C 
BRANCH  21  22
HETATM   22  C   UNL     1     -44.596  58.267 -51.622  1.00  0.00     0.293 C 
HETATM   23  O   UNL     1     -45.093  57.954 -52.692  1.00  0.00    -0.259 OA
BRANCH  22  24
HETATM   24  O   UNL     1     -45.246  58.339 -50.436  1.00  0.00    -0.323 OA
HETATM   25  C   UNL     1     -45.803  59.624 -50.150  1.00  0.00     0.213 C 
ENDBRANCH  22  24
ENDBRANCH  21  22
ENDBRANCH  10  12
BRANCH   4  26
HETATM   26  C   UNL     1     -40.321  51.856 -53.392  1.00  0.00     0.060 A 
HETATM   27  C   UNL     1     -39.905  51.522 -52.090  1.00  0.00     0.031 A 
HETATM   28  C   UNL     1     -39.355  50.267 -51.818  1.00  0.00     0.002 A 
HETATM   29  C   UNL     1     -39.210  49.334 -52.840  1.00  0.00     0.000 A 
HETATM   30  C   UNL     1     -39.614  49.656 -54.134  1.00  0.00     0.002 A 
HETATM   31  C   UNL     1     -40.168  50.910 -54.413  1.00  0.00     0.031 A 
ENDBRANCH   4  26
TORSDOF 4
ENDMDL
MODEL 3
REMARK VINA RESULT:      -7.9      2.353      4.218
REMARK  4 active torsions:
REMARK  status: ('A' for Active; 'I' for Inactive)
REMARK    1  A    between atoms: N_4  and  C_5 
REMARK    2  A    between atoms: C_16  and  C_17 
REMARK    3  A    between atoms: C_24  and  C_25 
REMARK    4  A    between atoms: C_25  and  O_26 
ROOT
HETATM    1  C   UNL     1     -42.861  55.708 -57.018  1.00  0.00     0.073 C 
HETATM    2  C   UNL     1     -42.295  55.476 -55.665  1.00  0.00     0.065 A 
HETATM    3  N   UNL     1     -41.817  54.277 -55.333  1.00  0.00    -0.170 NA
HETATM    4  N   UNL     1     -41.359  54.411 -54.049  1.00  0.00    -0.215 N 
HETATM    5  C   UNL     1     -41.597  55.699 -53.564  1.00  0.00     0.165 A 
HETATM    6  C   UNL     1     -42.175  56.405 -54.610  1.00  0.00     0.039 A 
HETATM    7  N   UNL     1     -41.314  56.207 -52.343  1.00  0.00    -0.216 NA
HETATM    8  C   UNL     1     -41.615  57.518 -52.198  1.00  0.00     0.137 A 
HETATM    9 CL   UNL     1     -41.197  58.074 -50.619  1.00  0.00    -0.062 Cl
HETATM   10  C   UNL     1     -42.168  58.353 -53.169  1.00  0.00     0.011 A 
HETATM   11  C   UNL     1     -42.472  57.762 -54.411  1.00  0.00     0.030 A 
ENDROOT
BRANCH  10  12
HETATM   12  C   UNL     1     -42.398  59.840 -52.958  1.00  0.00     0.164 C 
HETATM   13  N   UNL     1     -42.055  60.550 -54.182  1.00  0.00    -0.330 N 
HETATM   14  C   UNL     1     -42.956  61.058 -55.058  1.00  0.00     0.321 C 
HETATM   15  H   UNL     1     -41.109  60.497 -54.536  1.00  0.00     0.165 HD
HETATM   16  O   UNL     1     -42.621  61.454 -56.168  1.00  0.00    -0.247 OA
HETATM   17  N   UNL     1     -44.245  61.128 -54.622  1.00  0.00    -0.312 N 
HETATM   18  C   UNL     1     -44.682  60.764 -53.368  1.00  0.00     0.024 C 
HETATM   19  H   UNL     1     -44.883  61.566 -55.278  1.00  0.00     0.170 HD
HETATM   20  C   UNL     1     -46.112  61.096 -53.048  1.00  0.00     0.069 C 
HETATM   21  C   UNL     1     -43.807  60.169 -52.533  1.00  0.00     0.067 C 
BRANCH  21  22
HETATM   22  C   UNL     1     -44.215  59.781 -51.162  1.00  0.00     0.293 C 
HETATM   23  O   UNL     1     -44.834  58.767 -50.884  1.00  0.00    -0.259 OA
BRANCH  22  24
HETATM   24  O   UNL     1     -43.816  60.734 -50.286  1.00  0.00    -0.323 OA
HETATM   25  C   UNL     1     -44.822  61.125 -49.348  1.00  0.00     0.213 C 
ENDBRANCH  22  24
ENDBRANCH  21  22
ENDBRANCH  10  12
BRANCH   4  26
HETATM   26  C   UNL     1     -40.712  53.305 -53.417  1.00  0.00     0.060 A 
HETATM   27  C   UNL     1     -40.254  52.236 -54.209  1.00  0.00     0.031 A 
HETATM   28  C   UNL     1     -39.593  51.151 -53.630  1.00  0.00     0.002 A 
HETATM   29  C   UNL     1     -39.385  51.117 -52.254  1.00  0.00     0.000 A 
HETATM   30  C   UNL     1     -39.839  52.167 -51.458  1.00  0.00     0.002 A 
HETATM   31  C   UNL     1     -40.499  53.259 -52.033  1.00  0.00     0.031 A 
ENDBRANCH   4  26
TORSDOF 4
ENDMDL
MODEL 4
REMARK VINA RESULT:      -7.9      2.419      3.111
REMARK  4 active torsions:
REMARK  status: ('A' for Active; 'I' for Inactive)
REMARK    1  A    between atoms: N_4  and  C_5 
REMARK    2  A    between atoms: C_16  and  C_17 
REMARK    3  A    between atoms: C_24  and  C_25 
REMARK    4  A    between atoms: C_25  and  O_26 
ROOT
HETATM    1  C   UNL     1     -41.400  56.902 -50.756  1.00  0.00     0.073 C 
HETATM    2  C   UNL     1     -41.408  55.911 -51.862  1.00  0.00     0.065 A 
HETATM    3  N   UNL     1     -40.766  54.751 -51.728  1.00  0.00    -0.170 NA
HETATM    4  N   UNL     1     -40.989  54.075 -52.898  1.00  0.00    -0.215 N 
HETATM    5  C   UNL     1     -41.742  54.846 -53.786  1.00  0.00     0.165 A 
HETATM    6  C   UNL     1     -42.043  56.024 -53.116  1.00  0.00     0.039 A 
HETATM    7  N   UNL     1     -42.143  54.538 -55.041  1.00  0.00    -0.216 NA
HETATM    8  C   UNL     1     -42.920  55.479 -55.627  1.00  0.00     0.137 A 
HETATM    9 CL   UNL     1     -43.395  54.984 -57.210  1.00  0.00    -0.062 Cl
HETATM   10  C   UNL     1     -43.324  56.688 -55.063  1.00  0.00     0.011 A 
HETATM   11  C   UNL     1     -42.850  56.971 -53.767  1.00  0.00     0.030 A 
ENDROOT
BRANCH  10  12
HETATM   12  C   UNL     1     -44.268  57.657 -55.754  1.00  0.00     0.164 C 
HETATM   13  N   UNL     1     -45.156  58.243 -54.759  1.00  0.00    -0.330 N 
HETATM   14  C   UNL     1     -45.044  59.503 -54.272  1.00  0.00     0.321 C 
HETATM   15  H   UNL     1     -45.770  57.640 -54.227  1.00  0.00     0.165 HD
HETATM   16  O   UNL     1     -45.678  59.871 -53.290  1.00  0.00    -0.247 OA
HETATM   17  N   UNL     1     -44.211  60.339 -54.952  1.00  0.00    -0.312 N 
HETATM   18  C   UNL     1     -43.520  60.015 -56.097  1.00  0.00     0.024 C 
HETATM   19  H   UNL     1     -44.194  61.289 -54.597  1.00  0.00     0.170 HD
HETATM   20  C   UNL     1     -42.804  61.149 -56.776  1.00  0.00     0.069 C 
HETATM   21  C   UNL     1     -43.554  58.737 -56.525  1.00  0.00     0.067 C 
BRANCH  21  22
HETATM   22  C   UNL     1     -42.850  58.338 -57.767  1.00  0.00     0.293 C 
HETATM   23  O   UNL     1     -41.651  58.125 -57.848  1.00  0.00    -0.259 OA
BRANCH  22  24
HETATM   24  O   UNL     1     -43.738  58.274 -58.788  1.00  0.00    -0.323 OA
HETATM   25  C   UNL     1     -43.234  57.634 -59.964  1.00  0.00     0.213 C 
ENDBRANCH  22  24
ENDBRANCH  21  22
ENDBRANCH  10  12
BRANCH   4  26
HETATM   26  C   UNL     1     -40.487  52.745 -53.047  1.00  0.00     0.060 A 
HETATM   27  C   UNL     1     -39.959  52.084 -51.923  1.00  0.00     0.031 A 
HETATM   28  C   UNL     1     -39.484  50.775 -52.024  1.00  0.00     0.002 A 
HETATM   29  C   UNL     1     -39.524  50.112 -53.247  1.00  0.00     0.000 A 
HETATM   30  C   UNL     1     -40.039  50.759 -54.369  1.00  0.00     0.002 A 
HETATM   31  C   UNL     1     -40.520  52.070 -54.273  1.00  0.00     0.031 A 
ENDBRANCH   4  26
TORSDOF 4
ENDMDL
MODEL 5
REMARK VINA RESULT:      -7.5      3.854      5.476
REMARK  4 active torsions:
REMARK  status: ('A' for Active; 'I' for Inactive)
REMARK    1  A    between atoms: N_4  and  C_5 
REMARK    2  A    between atoms: C_16  and  C_17 
REMARK    3  A    between atoms: C_24  and  C_25 
REMARK    4  A    between atoms: C_25  and  O_26 
ROOT
HETATM    1  C   UNL     1     -41.717  59.384 -53.812  1.00  0.00     0.073 C 
HETATM    2  C   UNL     1     -41.731  57.999 -54.344  1.00  0.00     0.065 A 
HETATM    3  N   UNL     1     -41.138  57.014 -53.669  1.00  0.00    -0.170 NA
HETATM    4  N   UNL     1     -41.354  55.883 -54.412  1.00  0.00    -0.215 N 
HETATM    5  C   UNL     1     -42.051  56.180 -55.584  1.00  0.00     0.165 A 
HETATM    6  C   UNL     1     -42.326  57.539 -55.538  1.00  0.00     0.039 A 
HETATM    7  N   UNL     1     -42.427  55.342 -56.578  1.00  0.00    -0.216 NA
HETATM    8  C   UNL     1     -43.150  55.927 -57.560  1.00  0.00     0.137 A 
HETATM    9 CL   UNL     1     -43.600  54.774 -58.763  1.00  0.00    -0.062 Cl
HETATM   10  C   UNL     1     -43.524  57.269 -57.626  1.00  0.00     0.011 A 
HETATM   11  C   UNL     1     -43.077  58.102 -56.582  1.00  0.00     0.030 A 
ENDROOT
BRANCH  10  12
HETATM   12  C   UNL     1     -44.411  57.835 -58.722  1.00  0.00     0.164 C 
HETATM   13  N   UNL     1     -45.805  57.640 -58.351  1.00  0.00    -0.330 N 
HETATM   14  C   UNL     1     -46.626  58.616 -57.892  1.00  0.00     0.321 C 
HETATM   15  H   UNL     1     -46.154  56.700 -58.215  1.00  0.00     0.165 HD
HETATM   16  O   UNL     1     -47.716  58.360 -57.395  1.00  0.00    -0.247 OA
HETATM   17  N   UNL     1     -46.180  59.895 -58.041  1.00  0.00    -0.312 N 
HETATM   18  C   UNL     1     -45.000  60.261 -58.648  1.00  0.00     0.024 C 
HETATM   19  H   UNL     1     -46.842  60.604 -57.742  1.00  0.00     0.170 HD
HETATM   20  C   UNL     1     -44.800  61.735 -58.861  1.00  0.00     0.069 C 
HETATM   21  C   UNL     1     -44.141  59.289 -59.015  1.00  0.00     0.067 C 
BRANCH  21  22
HETATM   22  C   UNL     1     -42.868  59.624 -59.695  1.00  0.00     0.293 C 
HETATM   23  O   UNL     1     -41.839  59.946 -59.123  1.00  0.00    -0.259 OA
BRANCH  22  24
HETATM   24  O   UNL     1     -43.037  59.540 -61.037  1.00  0.00    -0.323 OA
HETATM   25  C   UNL     1     -42.501  60.647 -61.765  1.00  0.00     0.213 C 
ENDBRANCH  22  24
ENDBRANCH  21  22
ENDBRANCH  10  12
BRANCH   4  26
HETATM   26  C   UNL     1     -40.898  54.622 -53.917  1.00  0.00     0.060 A 
HETATM   27  C   UNL     1     -40.947  54.372 -52.533  1.00  0.00     0.031 A 
HETATM   28  C   UNL     1     -40.536  53.142 -52.016  1.00  0.00     0.002 A 
HETATM   29  C   UNL     1     -40.066  52.149 -52.872  1.00  0.00     0.000 A 
HETATM   30  C   UNL     1     -40.008  52.387 -54.243  1.00  0.00     0.002 A 
HETATM   31  C   UNL     1     -40.421  53.617 -54.768  1.00  0.00     0.031 A 
ENDBRANCH   4  26
TORSDOF 4
ENDMDL
MODEL 6
REMARK VINA RESULT:      -7.3      4.010      7.105
REMARK  4 active torsions:
REMARK  status: ('A' for Active; 'I' for Inactive)
REMARK    1  A    between atoms: N_4  and  C_5 
REMARK    2  A    between atoms: C_16  and  C_17 
REMARK    3  A    between atoms: C_24  and  C_25 
REMARK    4  A    between atoms: C_25  and  O_26 
ROOT
HETATM    1  C   UNL     1     -45.146  60.291 -55.104  1.00  0.00     0.073 C 
HETATM    2  C   UNL     1     -44.783  59.064 -55.858  1.00  0.00     0.065 A 
HETATM    3  N   UNL     1     -45.426  58.753 -56.984  1.00  0.00    -0.170 NA
HETATM    4  N   UNL     1     -44.841  57.597 -57.429  1.00  0.00    -0.215 N 
HETATM    5  C   UNL     1     -43.854  57.162 -56.542  1.00  0.00     0.165 A 
HETATM    6  C   UNL     1     -43.787  58.118 -55.537  1.00  0.00     0.039 A 
HETATM    7  N   UNL     1     -43.077  56.057 -56.619  1.00  0.00    -0.216 NA
HETATM    8  C   UNL     1     -42.163  55.944 -55.627  1.00  0.00     0.137 A 
HETATM    9 CL   UNL     1     -41.211  54.520 -55.828  1.00  0.00    -0.062 Cl
HETATM   10  C   UNL     1     -41.966  56.840 -54.577  1.00  0.00     0.011 A 
HETATM   11  C   UNL     1     -42.825  57.956 -54.528  1.00  0.00     0.030 A 
ENDROOT
BRANCH  10  12
HETATM   12  C   UNL     1     -40.861  56.688 -53.546  1.00  0.00     0.164 C 
HETATM   13  N   UNL     1     -40.413  58.011 -53.133  1.00  0.00    -0.330 N 
HETATM   14  C   UNL     1     -40.728  58.598 -51.953  1.00  0.00     0.321 C 
HETATM   15  H   UNL     1     -40.020  58.638 -53.823  1.00  0.00     0.165 HD
HETATM   16  O   UNL     1     -40.507  59.785 -51.746  1.00  0.00    -0.247 OA
HETATM   17  N   UNL     1     -41.278  57.788 -51.006  1.00  0.00    -0.312 N 
HETATM   18  C   UNL     1     -41.494  56.435 -51.144  1.00  0.00     0.024 C 
HETATM   19  H   UNL     1     -41.447  58.244 -50.116  1.00  0.00     0.170 HD
HETATM   20  C   UNL     1     -41.942  55.711 -49.905  1.00  0.00     0.069 C 
HETATM   21  C   UNL     1     -41.272  55.871 -52.348  1.00  0.00     0.067 C 
BRANCH  21  22
HETATM   22  C   UNL     1     -41.463  54.415 -52.547  1.00  0.00     0.293 C 
HETATM   23  O   UNL     1     -42.544  53.873 -52.709  1.00  0.00    -0.259 OA
BRANCH  22  24
HETATM   24  O   UNL     1     -40.262  53.791 -52.494  1.00  0.00    -0.323 OA
HETATM   25  C   UNL     1     -40.170  52.780 -51.487  1.00  0.00     0.213 C 
ENDBRANCH  22  24
ENDBRANCH  21  22
ENDBRANCH  10  12
BRANCH   4  26
HETATM   26  C   UNL     1     -45.261  57.033 -58.672  1.00  0.00     0.060 A 
HETATM   27  C   UNL     1     -46.602  57.177 -59.070  1.00  0.00     0.031 A 
HETATM   28  C   UNL     1     -47.042  56.663 -60.292  1.00  0.00     0.002 A 
HETATM   29  C   UNL     1     -46.152  55.994 -61.127  1.00  0.00     0.000 A 
HETATM   30  C   UNL     1     -44.823  55.839 -60.740  1.00  0.00     0.002 A 
HETATM   31  C   UNL     1     -44.374  56.355 -59.519  1.00  0.00     0.031 A 
ENDBRANCH   4  26
TORSDOF 4
ENDMDL
MODEL 7
REMARK VINA RESULT:      -7.2      2.603      3.765
REMARK  4 active torsions:
REMARK  status: ('A' for Active; 'I' for Inactive)
REMARK    1  A    between atoms: N_4  and  C_5 
REMARK    2  A    between atoms: C_16  and  C_17 
REMARK    3  A    between atoms: C_24  and  C_25 
REMARK    4  A    between atoms: C_25  and  O_26 
ROOT
HETATM    1  C   UNL     1     -40.768  58.854 -50.060  1.00  0.00     0.073 C 
HETATM    2  C   UNL     1     -41.283  58.053 -51.199  1.00  0.00     0.065 A 
HETATM    3  N   UNL     1     -40.652  56.941 -51.578  1.00  0.00    -0.170 NA
HETATM    4  N   UNL     1     -41.389  56.443 -52.620  1.00  0.00    -0.215 N 
HETATM    5  C   UNL     1     -42.464  57.282 -52.920  1.00  0.00     0.165 A 
HETATM    6  C   UNL     1     -42.423  58.311 -51.989  1.00  0.00     0.039 A 
HETATM    7  N   UNL     1     -43.397  57.145 -53.890  1.00  0.00    -0.216 NA
HETATM    8  C   UNL     1     -44.355  58.101 -53.885  1.00  0.00     0.137 A 
HETATM    9 CL   UNL     1     -45.504  57.826 -55.141  1.00  0.00    -0.062 Cl
HETATM   10  C   UNL     1     -44.453  59.170 -52.994  1.00  0.00     0.011 A 
HETATM   11  C   UNL     1     -43.437  59.281 -52.025  1.00  0.00     0.030 A 
ENDROOT
BRANCH  10  12
HETATM   12  C   UNL     1     -45.608  60.157 -53.000  1.00  0.00     0.164 C 
HETATM   13  N   UNL     1     -46.181  60.222 -51.662  1.00  0.00    -0.330 N 
HETATM   14  C   UNL     1     -45.989  61.240 -50.789  1.00  0.00     0.321 C 
HETATM   15  H   UNL     1     -46.576  59.385 -51.252  1.00  0.00     0.165 HD
HETATM   16  O   UNL     1     -46.314  61.147 -49.611  1.00  0.00    -0.247 OA
HETATM   17  N   UNL     1     -45.442  62.377 -51.302  1.00  0.00    -0.312 N 
HETATM   18  C   UNL     1     -45.114  62.576 -52.625  1.00  0.00     0.024 C 
HETATM   19  H   UNL     1     -45.365  63.139 -50.637  1.00  0.00     0.170 HD
HETATM   20  C   UNL     1     -44.693  63.970 -52.995  1.00  0.00     0.069 C 
HETATM   21  C   UNL     1     -45.214  61.533 -53.472  1.00  0.00     0.067 C 
BRANCH  21  22
HETATM   22  C   UNL     1     -44.899  61.696 -54.911  1.00  0.00     0.293 C 
HETATM   23  O   UNL     1     -45.732  61.838 -55.792  1.00  0.00    -0.259 OA
BRANCH  22  24
HETATM   24  O   UNL     1     -43.558  61.637 -55.090  1.00  0.00    -0.323 OA
HETATM   25  C   UNL     1     -43.148  60.820 -56.189  1.00  0.00     0.213 C 
ENDBRANCH  22  24
ENDBRANCH  21  22
ENDBRANCH  10  12
BRANCH   4  26
HETATM   26  C   UNL     1     -41.012  55.198 -53.213  1.00  0.00     0.060 A 
HETATM   27  C   UNL     1     -40.604  55.178 -54.559  1.00  0.00     0.031 A 
HETATM   28  C   UNL     1     -40.202  53.985 -55.165  1.00  0.00     0.002 A 
HETATM   29  C   UNL     1     -40.209  52.799 -54.437  1.00  0.00     0.000 A 
HETATM   30  C   UNL     1     -40.616  52.806 -53.105  1.00  0.00     0.002 A 
HETATM   31  C   UNL     1     -41.017  53.998 -52.491  1.00  0.00     0.031 A 
ENDBRANCH   4  26
TORSDOF 4
ENDMDL
MODEL 8
REMARK VINA RESULT:      -7.1      1.943      3.144
REMARK  4 active torsions:
REMARK  status: ('A' for Active; 'I' for Inactive)
REMARK    1  A    between atoms: N_4  and  C_5 
REMARK    2  A    between atoms: C_16  and  C_17 
REMARK    3  A    between atoms: C_24  and  C_25 
REMARK    4  A    between atoms: C_25  and  O_26 
ROOT
HETATM    1  C   UNL     1     -43.187  55.427 -57.372  1.00  0.00     0.073 C 
HETATM    2  C   UNL     1     -42.775  55.192 -55.965  1.00  0.00     0.065 A 
HETATM    3  N   UNL     1     -42.049  54.120 -55.647  1.00  0.00    -0.170 NA
HETATM    4  N   UNL     1     -41.826  54.218 -54.299  1.00  0.00    -0.215 N 
HETATM    5  C   UNL     1     -42.461  55.342 -53.767  1.00  0.00     0.165 A 
HETATM    6  C   UNL     1     -43.053  55.996 -54.839  1.00  0.00     0.039 A 
HETATM    7  N   UNL     1     -42.495  55.763 -52.482  1.00  0.00    -0.216 NA
HETATM    8  C   UNL     1     -43.148  56.933 -52.293  1.00  0.00     0.137 A 
HETATM    9 CL   UNL     1     -43.116  57.394 -50.631  1.00  0.00    -0.062 Cl
HETATM   10  C   UNL     1     -43.760  57.708 -53.278  1.00  0.00     0.011 A 
HETATM   11  C   UNL     1     -43.721  57.205 -54.593  1.00  0.00     0.030 A 
ENDROOT
BRANCH  10  12
HETATM   12  C   UNL     1     -44.402  59.057 -52.999  1.00  0.00     0.164 C 
HETATM   13  N   UNL     1     -45.531  58.867 -52.099  1.00  0.00    -0.330 N 
HETATM   14  C   UNL     1     -45.526  59.174 -50.779  1.00  0.00     0.321 C 
HETATM   15  H   UNL     1     -46.304  58.284 -52.392  1.00  0.00     0.165 HD
HETATM   16  O   UNL     1     -46.418  58.800 -50.029  1.00  0.00    -0.247 OA
HETATM   17  N   UNL     1     -44.488  59.943 -50.345  1.00  0.00    -0.312 N 
HETATM   18  C   UNL     1     -43.488  60.453 -51.141  1.00  0.00     0.024 C 
HETATM   19  H   UNL     1     -44.544  60.204 -49.366  1.00  0.00     0.170 HD
HETATM   20  C   UNL     1     -42.550  61.423 -50.479  1.00  0.00     0.069 C 
HETATM   21  C   UNL     1     -43.438  60.069 -52.432  1.00  0.00     0.067 C 
BRANCH  21  22
HETATM   22  C   UNL     1     -42.399  60.607 -53.342  1.00  0.00     0.293 C 
HETATM   23  O   UNL     1     -41.317  60.081 -53.548  1.00  0.00    -0.259 OA
BRANCH  22  24
HETATM   24  O   UNL     1     -42.830  61.773 -53.879  1.00  0.00    -0.323 OA
HETATM   25  C   UNL     1     -43.163  61.692 -55.267  1.00  0.00     0.213 C 
ENDBRANCH  22  24
ENDBRANCH  21  22
ENDBRANCH  10  12
BRANCH   4  26
HETATM   26  C   UNL     1     -41.005  53.244 -53.652  1.00  0.00     0.060 A 
HETATM   27  C   UNL     1     -40.627  53.449 -52.313  1.00  0.00     0.031 A 
HETATM   28  C   UNL     1     -39.848  52.506 -51.639  1.00  0.00     0.002 A 
HETATM   29  C   UNL     1     -39.433  51.351 -52.295  1.00  0.00     0.000 A 
HETATM   30  C   UNL     1     -39.796  51.139 -53.623  1.00  0.00     0.002 A 
HETATM   31  C   UNL     1     -40.580  52.079 -54.302  1.00  0.00     0.031 A 
ENDBRANCH   4  26
TORSDOF 4
ENDMDL
MODEL 9
REMARK VINA RESULT:      -7.1      3.324      5.736
REMARK  4 active torsions:
REMARK  status: ('A' for Active; 'I' for Inactive)
REMARK    1  A    between atoms: N_4  and  C_5 
REMARK    2  A    between atoms: C_16  and  C_17 
REMARK    3  A    between atoms: C_24  and  C_25 
REMARK    4  A    between atoms: C_25  and  O_26 
ROOT
HETATM    1  C   UNL     1     -43.545  53.117 -55.853  1.00  0.00     0.073 C 
HETATM    2  C   UNL     1     -42.961  54.115 -54.921  1.00  0.00     0.065 A 
HETATM    3  N   UNL     1     -42.595  53.752 -53.691  1.00  0.00    -0.170 NA
HETATM    4  N   UNL     1     -42.084  54.885 -53.115  1.00  0.00    -0.215 N 
HETATM    5  C   UNL     1     -42.176  55.974 -53.984  1.00  0.00     0.165 A 
HETATM    6  C   UNL     1     -42.714  55.482 -55.165  1.00  0.00     0.039 A 
HETATM    7  N   UNL     1     -41.804  57.257 -53.772  1.00  0.00    -0.216 NA
HETATM    8  C   UNL     1     -41.966  58.071 -54.840  1.00  0.00     0.137 A 
HETATM    9 CL   UNL     1     -41.443  59.674 -54.476  1.00  0.00    -0.062 Cl
HETATM   10  C   UNL     1     -42.464  57.707 -56.091  1.00  0.00     0.011 A 
HETATM   11  C   UNL     1     -42.867  56.366 -56.245  1.00  0.00     0.030 A 
ENDROOT
BRANCH  10  12
HETATM   12  C   UNL     1     -42.538  58.662 -57.270  1.00  0.00     0.164 C 
HETATM   13  N   UNL     1     -41.863  58.058 -58.411  1.00  0.00    -0.330 N 
HETATM   14  C   UNL     1     -42.492  57.508 -59.477  1.00  0.00     0.321 C 
HETATM   15  H   UNL     1     -40.879  57.831 -58.340  1.00  0.00     0.165 HD
HETATM   16  O   UNL     1     -41.890  56.829 -60.300  1.00  0.00    -0.247 OA
HETATM   17  N   UNL     1     -43.823  57.777 -59.594  1.00  0.00    -0.312 N 
HETATM   18  C   UNL     1     -44.550  58.583 -58.748  1.00  0.00     0.024 C 
HETATM   19  H   UNL     1     -44.251  57.400 -60.433  1.00  0.00     0.170 HD
HETATM   20  C   UNL     1     -45.959  58.883 -59.174  1.00  0.00     0.069 C 
HETATM   21  C   UNL     1     -43.948  59.050 -57.636  1.00  0.00     0.067 C 
BRANCH  21  22
HETATM   22  C   UNL     1     -44.673  59.944 -56.702  1.00  0.00     0.293 C 
HETATM   23  O   UNL     1     -45.380  59.562 -55.783  1.00  0.00    -0.259 OA
BRANCH  22  24
HETATM   24  O   UNL     1     -44.449  61.235 -57.047  1.00  0.00    -0.323 OA
HETATM   25  C   UNL     1     -43.777  62.001 -56.045  1.00  0.00     0.213 C 
ENDBRANCH  22  24
ENDBRANCH  21  22
ENDBRANCH  10  12
BRANCH   4  26
HETATM   26  C   UNL     1     -41.531  54.813 -51.800  1.00  0.00     0.060 A 
HETATM   27  C   UNL     1     -40.495  53.897 -51.543  1.00  0.00     0.031 A 
HETATM   28  C   UNL     1     -39.911  53.818 -50.276  1.00  0.00     0.002 A 
HETATM   29  C   UNL     1     -40.357  54.647 -49.251  1.00  0.00     0.000 A 
HETATM   30  C   UNL     1     -41.386  55.555 -49.493  1.00  0.00     0.002 A 
HETATM   31  C   UNL     1     -41.973  55.642 -50.760  1.00  0.00     0.031 A 
ENDBRANCH   4  26
TORSDOF 4
ENDMDL
MODEL 10
REMARK VINA RESULT:      -7.0      4.443      7.568
REMARK  4 active torsions:
REMARK  status: ('A' for Active; 'I' for Inactive)
REMARK    1  A    between atoms: N_4  and  C_5 
REMARK    2  A    between atoms: C_16  and  C_17 
REMARK    3  A    between atoms: C_24  and  C_25 
REMARK    4  A    between atoms: C_25  and  O_26 
ROOT
HETATM    1  C   UNL     1     -43.680  54.703 -54.404  1.00  0.00     0.073 C 
HETATM    2  C   UNL     1     -43.241  56.109 -54.225  1.00  0.00     0.065 A 
HETATM    3  N   UNL     1     -42.717  56.507 -53.066  1.00  0.00    -0.170 NA
HETATM    4  N   UNL     1     -42.403  57.829 -53.244  1.00  0.00    -0.215 N 
HETATM    5  C   UNL     1     -42.778  58.266 -54.515  1.00  0.00     0.165 A 
HETATM    6  C   UNL     1     -43.294  57.156 -55.170  1.00  0.00     0.039 A 
HETATM    7  N   UNL     1     -42.658  59.502 -55.053  1.00  0.00    -0.216 NA
HETATM    8  C   UNL     1     -43.062  59.594 -56.341  1.00  0.00     0.137 A 
HETATM    9 CL   UNL     1     -42.847  61.198 -56.939  1.00  0.00    -0.062 Cl
HETATM   10  C   UNL     1     -43.570  58.559 -57.126  1.00  0.00     0.011 A 
HETATM   11  C   UNL     1     -43.703  57.302 -56.504  1.00  0.00     0.030 A 
ENDROOT
BRANCH  10  12
HETATM   12  C   UNL     1     -43.924  58.722 -58.594  1.00  0.00     0.164 C 
HETATM   13  N   UNL     1     -42.849  58.165 -59.405  1.00  0.00    -0.330 N 
HETATM   14  C   UNL     1     -42.907  56.976 -60.052  1.00  0.00     0.321 C 
HETATM   15  H   UNL     1     -41.920  58.559 -59.331  1.00  0.00     0.165 HD
HETATM   16  O   UNL     1     -41.908  56.460 -60.539  1.00  0.00    -0.247 OA
HETATM   17  N   UNL     1     -44.140  56.406 -60.153  1.00  0.00    -0.312 N 
HETATM   18  C   UNL     1     -45.313  56.959 -59.690  1.00  0.00     0.024 C 
HETATM   19  H   UNL     1     -44.159  55.548 -60.693  1.00  0.00     0.170 HD
HETATM   20  C   UNL     1     -46.575  56.239 -60.073  1.00  0.00     0.069 C 
HETATM   21  C   UNL     1     -45.243  58.091 -58.962  1.00  0.00     0.067 C 
BRANCH  21  22
HETATM   22  C   UNL     1     -46.475  58.744 -58.461  1.00  0.00     0.293 C 
HETATM   23  O   UNL     1     -47.073  58.415 -57.449  1.00  0.00    -0.259 OA
BRANCH  22  24
HETATM   24  O   UNL     1     -46.838  59.736 -59.310  1.00  0.00    -0.323 OA
HETATM   25  C   UNL     1     -48.191  60.170 -59.159  1.00  0.00     0.213 C 
ENDBRANCH  22  24
ENDBRANCH  21  22
ENDBRANCH  10  12
BRANCH   4  26
HETATM   26  C   UNL     1     -41.748  58.541 -52.192  1.00  0.00     0.060 A 
HETATM   27  C   UNL     1     -40.346  58.477 -52.092  1.00  0.00     0.031 A 
HETATM   28  C   UNL     1     -39.670  59.182 -51.094  1.00  0.00     0.002 A 
HETATM   29  C   UNL     1     -40.383  59.954 -50.182  1.00  0.00     0.000 A 
HETATM   30  C   UNL     1     -41.772  60.020 -50.267  1.00  0.00     0.002 A 
HETATM   31  C   UNL     1     -42.456  59.319 -51.267  1.00  0.00     0.031 A 
ENDBRANCH   4  26
TORSDOF 4
ENDMDL
