MODEL 1
REMARK VINA RESULT:      -8.2      0.000      0.000
REMARK  6 active torsions:
REMARK  status: ('A' for Active; 'I' for Inactive)
REMARK    1  A    between atoms: C_2  and  C_3 
REMARK    2  A    between atoms: C_2  and  C_9 
REMARK    3  A    between atoms: C_9  and  N_10 
REMARK       I    between atoms: N_10  and  C_11 
REMARK       I    between atoms: C_11  and  N_12 
REMARK    4  A    between atoms: N_12  and  C_13 
REMARK    5  A    between atoms: C_15  and  N_16 
REMARK       I    between atoms: N_16  and  C_17 
REMARK    6  A    between atoms: C_17  and  C_18 
ROOT
HETATM    1  N   UNL     1     -42.368  54.298 -55.795  1.00  0.00    -0.342 N 
HETATM    2  C   UNL     1     -42.910  55.487 -56.232  1.00  0.00     0.320 C 
HETATM    3  N   UNL     1     -42.534  55.734 -57.534  1.00  0.00    -0.309 N 
HETATM    4  O   UNL     1     -43.563  56.226 -55.508  1.00  0.00    -0.247 OA
HETATM    5  H   UNL     1     -42.144  53.596 -56.484  1.00  0.00     0.164 HD
HETATM    6  H   UNL     1     -41.722  55.216 -57.839  1.00  0.00     0.170 HD
ENDROOT
BRANCH   3   7
HETATM    7  C   UNL     1     -42.868  56.868 -58.300  1.00  0.00     0.038 A 
HETATM    8  C   UNL     1     -44.059  56.812 -59.040  1.00  0.00     0.059 A 
HETATM    9  C   UNL     1     -44.442  57.869 -59.868  1.00  0.00     0.037 A 
HETATM   10  C   UNL     1     -43.643  59.018 -59.907  1.00  0.00     0.029 A 
HETATM   11  C   UNL     1     -42.472  59.094 -59.149  1.00  0.00     0.004 A 
HETATM   12  C   UNL     1     -42.081  58.016 -58.354  1.00  0.00     0.029 A 
BRANCH   9  13
HETATM   13  N   UNL     1     -45.576  57.843 -60.711  1.00  0.00    -0.323 N 
HETATM   14  C   UNL     1     -46.893  58.093 -60.360  1.00  0.00     0.258 C 
HETATM   15  O   UNL     1     -47.273  58.473 -59.258  1.00  0.00    -0.267 OA
HETATM   16  H   UNL     1     -45.397  57.565 -61.663  1.00  0.00     0.169 HD
BRANCH  14  17
HETATM   17  C   UNL     1     -47.870  57.857 -61.421  1.00  0.00     0.056 A 
HETATM   18  C   UNL     1     -48.273  56.663 -61.987  1.00  0.00     0.158 A 
HETATM   19  O   UNL     1     -49.220  56.867 -62.940  1.00  0.00    -0.334 OA
HETATM   20  C   UNL     1     -49.442  58.203 -62.998  1.00  0.00     0.142 A 
HETATM   21  C   UNL     1     -48.643  58.856 -62.092  1.00  0.00     0.043 A 
ENDBRANCH  14  17
ENDBRANCH   9  13
ENDBRANCH   3   7
BRANCH   1  22
HETATM   22  C   UNL     1     -42.344  53.925 -54.389  1.00  0.00     0.138 C 
BRANCH  22  23
HETATM   23  C   UNL     1     -40.916  54.010 -53.761  1.00  0.00    -0.004 C 
HETATM   24  C   UNL     1     -40.929  54.865 -52.470  1.00  0.00     0.021 C 
HETATM   25  C   UNL     1     -39.980  54.729 -54.764  1.00  0.00     0.021 C 
BRANCH  23  26
HETATM   26  C   UNL     1     -40.438  52.587 -53.410  1.00  0.00    -0.046 A 
HETATM   27  C   UNL     1     -40.511  51.561 -54.368  1.00  0.00     0.027 A 
HETATM   28  C   UNL     1     -40.093  50.280 -54.035  1.00  0.00     0.116 A 
HETATM   29  N   UNL     1     -39.607  49.939 -52.826  1.00  0.00    -0.273 NA
HETATM   30  C   UNL     1     -39.539  50.927 -51.912  1.00  0.00     0.116 A 
HETATM   31  C   UNL     1     -39.931  52.238 -52.151  1.00  0.00     0.027 A 
ENDBRANCH  23  26
ENDBRANCH  22  23
ENDBRANCH   1  22
TORSDOF 6
ENDMDL
MODEL 2
REMARK VINA RESULT:      -8.2      5.938      8.714
REMARK  6 active torsions:
REMARK  status: ('A' for Active; 'I' for Inactive)
REMARK    1  A    between atoms: C_2  and  C_3 
REMARK    2  A    between atoms: C_2  and  C_9 
REMARK    3  A    between atoms: C_9  and  N_10 
REMARK       I    between atoms: N_10  and  C_11 
REMARK       I    between atoms: C_11  and  N_12 
REMARK    4  A    between atoms: N_12  and  C_13 
REMARK    5  A    between atoms: C_15  and  N_16 
REMARK       I    between atoms: N_16  and  C_17 
REMARK    6  A    between atoms: C_17  and  C_18 
ROOT
HETATM    1  N   UNL     1     -42.354  54.900 -52.505  1.00  0.00    -0.342 N 
HETATM    2  C   UNL     1     -42.564  56.258 -52.395  1.00  0.00     0.320 C 
HETATM    3  N   UNL     1     -43.902  56.549 -52.549  1.00  0.00    -0.309 N 
HETATM    4  O   UNL     1     -41.652  57.062 -52.258  1.00  0.00    -0.247 OA
HETATM    5  H   UNL     1     -43.120  54.282 -52.281  1.00  0.00     0.164 HD
HETATM    6  H   UNL     1     -44.436  55.824 -53.006  1.00  0.00     0.170 HD
ENDROOT
BRANCH   3   7
HETATM    7  C   UNL     1     -44.484  57.832 -52.534  1.00  0.00     0.038 A 
HETATM    8  C   UNL     1     -44.685  58.428 -51.280  1.00  0.00     0.059 A 
HETATM    9  C   UNL     1     -45.305  59.674 -51.166  1.00  0.00     0.037 A 
HETATM   10  C   UNL     1     -45.675  60.350 -52.334  1.00  0.00     0.029 A 
HETATM   11  C   UNL     1     -45.452  59.777 -53.588  1.00  0.00     0.004 A 
HETATM   12  C   UNL     1     -44.865  58.515 -53.687  1.00  0.00     0.029 A 
BRANCH   9  13
HETATM   13  N   UNL     1     -45.622  60.290 -49.934  1.00  0.00    -0.323 N 
HETATM   14  C   UNL     1     -44.839  61.171 -49.206  1.00  0.00     0.258 C 
HETATM   15  O   UNL     1     -43.763  61.631 -49.571  1.00  0.00    -0.267 OA
HETATM   16  H   UNL     1     -46.503  60.013 -49.530  1.00  0.00     0.169 HD
BRANCH  14  17
HETATM   17  C   UNL     1     -45.377  61.539 -47.898  1.00  0.00     0.056 A 
HETATM   18  C   UNL     1     -46.520  62.253 -47.594  1.00  0.00     0.158 A 
HETATM   19  O   UNL     1     -46.682  62.370 -46.249  1.00  0.00    -0.334 OA
HETATM   20  C   UNL     1     -45.640  61.727 -45.667  1.00  0.00     0.142 A 
HETATM   21  C   UNL     1     -44.811  61.202 -46.628  1.00  0.00     0.043 A 
ENDBRANCH  14  17
ENDBRANCH   9  13
ENDBRANCH   3   7
BRANCH   1  22
HETATM   22  C   UNL     1     -41.028  54.330 -52.681  1.00  0.00     0.138 C 
BRANCH  22  23
HETATM   23  C   UNL     1     -40.906  53.457 -53.970  1.00  0.00    -0.004 C 
HETATM   24  C   UNL     1     -39.926  54.098 -54.983  1.00  0.00     0.021 C 
HETATM   25  C   UNL     1     -42.292  53.404 -54.660  1.00  0.00     0.021 C 
BRANCH  23  26
HETATM   26  C   UNL     1     -40.377  52.062 -53.581  1.00  0.00    -0.046 A 
HETATM   27  C   UNL     1     -40.381  51.017 -54.523  1.00  0.00     0.027 A 
HETATM   28  C   UNL     1     -39.918  49.761 -54.156  1.00  0.00     0.116 A 
HETATM   29  N   UNL     1     -39.449  49.462 -52.930  1.00  0.00    -0.273 NA
HETATM   30  C   UNL     1     -39.447  50.467 -52.032  1.00  0.00     0.116 A 
HETATM   31  C   UNL     1     -39.888  51.756 -52.305  1.00  0.00     0.027 A 
ENDBRANCH  23  26
ENDBRANCH  22  23
ENDBRANCH   1  22
TORSDOF 6
ENDMDL
MODEL 3
REMARK VINA RESULT:      -8.1      2.815      9.507
REMARK  6 active torsions:
REMARK  status: ('A' for Active; 'I' for Inactive)
REMARK    1  A    between atoms: C_2  and  C_3 
REMARK    2  A    between atoms: C_2  and  C_9 
REMARK    3  A    between atoms: C_9  and  N_10 
REMARK       I    between atoms: N_10  and  C_11 
REMARK       I    between atoms: C_11  and  N_12 
REMARK    4  A    between atoms: N_12  and  C_13 
REMARK    5  A    between atoms: C_15  and  N_16 
REMARK       I    between atoms: N_16  and  C_17 
REMARK    6  A    between atoms: C_17  and  C_18 
ROOT
HETATM    1  N   UNL     1     -45.845  57.730 -56.961  1.00  0.00    -0.342 N 
HETATM    2  C   UNL     1     -44.756  57.729 -56.117  1.00  0.00     0.320 C 
HETATM    3  N   UNL     1     -45.000  56.930 -55.021  1.00  0.00    -0.309 N 
HETATM    4  O   UNL     1     -43.763  58.417 -56.312  1.00  0.00    -0.247 OA
HETATM    5  H   UNL     1     -46.460  56.930 -56.943  1.00  0.00     0.164 HD
HETATM    6  H   UNL     1     -45.978  56.742 -54.852  1.00  0.00     0.170 HD
ENDROOT
BRANCH   3   7
HETATM    7  C   UNL     1     -44.132  56.717 -53.933  1.00  0.00     0.038 A 
HETATM    8  C   UNL     1     -43.352  55.550 -53.956  1.00  0.00     0.059 A 
HETATM    9  C   UNL     1     -42.504  55.231 -52.894  1.00  0.00     0.037 A 
HETATM   10  C   UNL     1     -42.399  56.126 -51.823  1.00  0.00     0.029 A 
HETATM   11  C   UNL     1     -43.149  57.304 -51.807  1.00  0.00     0.004 A 
HETATM   12  C   UNL     1     -44.021  57.594 -52.856  1.00  0.00     0.029 A 
BRANCH   9  13
HETATM   13  N   UNL     1     -41.762  54.031 -52.807  1.00  0.00    -0.323 N 
HETATM   14  C   UNL     1     -40.720  53.623 -53.624  1.00  0.00     0.258 C 
HETATM   15  O   UNL     1     -40.209  54.297 -54.512  1.00  0.00    -0.267 OA
HETATM   16  H   UNL     1     -42.068  53.388 -52.094  1.00  0.00     0.169 HD
BRANCH  14  17
HETATM   17  C   UNL     1     -40.234  52.267 -53.376  1.00  0.00     0.056 A 
HETATM   18  C   UNL     1     -39.736  51.718 -52.210  1.00  0.00     0.158 A 
HETATM   19  O   UNL     1     -39.404  50.412 -52.386  1.00  0.00    -0.334 OA
HETATM   20  C   UNL     1     -39.688  50.101 -53.674  1.00  0.00     0.142 A 
HETATM   21  C   UNL     1     -40.196  51.198 -54.326  1.00  0.00     0.043 A 
ENDBRANCH  14  17
ENDBRANCH   9  13
ENDBRANCH   3   7
BRANCH   1  22
HETATM   22  C   UNL     1     -45.996  58.699 -58.034  1.00  0.00     0.138 C 
BRANCH  22  23
HETATM   23  C   UNL     1     -45.915  58.055 -59.454  1.00  0.00    -0.004 C 
HETATM   24  C   UNL     1     -46.329  59.069 -60.548  1.00  0.00     0.021 C 
HETATM   25  C   UNL     1     -46.930  56.886 -59.521  1.00  0.00     0.021 C 
BRANCH  23  26
HETATM   26  C   UNL     1     -44.464  57.604 -59.717  1.00  0.00    -0.046 A 
HETATM   27  C   UNL     1     -43.492  58.543 -60.104  1.00  0.00     0.027 A 
HETATM   28  C   UNL     1     -42.193  58.123 -60.355  1.00  0.00     0.116 A 
HETATM   29  N   UNL     1     -41.784  56.844 -60.248  1.00  0.00    -0.273 NA
HETATM   30  C   UNL     1     -42.720  55.949 -59.876  1.00  0.00     0.116 A 
HETATM   31  C   UNL     1     -44.042  56.273 -59.603  1.00  0.00     0.027 A 
ENDBRANCH  23  26
ENDBRANCH  22  23
ENDBRANCH   1  22
TORSDOF 6
ENDMDL
MODEL 4
REMARK VINA RESULT:      -7.7      6.895      9.640
REMARK  6 active torsions:
REMARK  status: ('A' for Active; 'I' for Inactive)
REMARK    1  A    between atoms: C_2  and  C_3 
REMARK    2  A    between atoms: C_2  and  C_9 
REMARK    3  A    between atoms: C_9  and  N_10 
REMARK       I    between atoms: N_10  and  C_11 
REMARK       I    between atoms: C_11  and  N_12 
REMARK    4  A    between atoms: N_12  and  C_13 
REMARK    5  A    between atoms: C_15  and  N_16 
REMARK       I    between atoms: N_16  and  C_17 
REMARK    6  A    between atoms: C_17  and  C_18 
ROOT
HETATM    1  N   UNL     1     -41.925  56.849 -52.641  1.00  0.00    -0.342 N 
HETATM    2  C   UNL     1     -43.128  57.353 -52.196  1.00  0.00     0.320 C 
HETATM    3  N   UNL     1     -43.150  58.724 -52.328  1.00  0.00    -0.309 N 
HETATM    4  O   UNL     1     -43.995  56.654 -51.690  1.00  0.00    -0.247 OA
HETATM    5  H   UNL     1     -41.413  57.381 -53.328  1.00  0.00     0.164 HD
HETATM    6  H   UNL     1     -42.239  59.150 -52.417  1.00  0.00     0.170 HD
ENDROOT
BRANCH   3   7
HETATM    7  C   UNL     1     -44.199  59.583 -51.945  1.00  0.00     0.038 A 
HETATM    8  C   UNL     1     -44.093  60.203 -50.691  1.00  0.00     0.059 A 
HETATM    9  C   UNL     1     -45.111  61.027 -50.207  1.00  0.00     0.037 A 
HETATM   10  C   UNL     1     -46.222  61.274 -51.022  1.00  0.00     0.029 A 
HETATM   11  C   UNL     1     -46.321  60.686 -52.285  1.00  0.00     0.004 A 
HETATM   12  C   UNL     1     -45.315  59.834 -52.742  1.00  0.00     0.029 A 
BRANCH   9  13
HETATM   13  N   UNL     1     -45.114  61.607 -48.918  1.00  0.00    -0.323 N 
HETATM   14  C   UNL     1     -45.638  61.070 -47.753  1.00  0.00     0.258 C 
HETATM   15  O   UNL     1     -46.111  59.944 -47.641  1.00  0.00    -0.267 OA
HETATM   16  H   UNL     1     -44.728  62.537 -48.865  1.00  0.00     0.169 HD
BRANCH  14  17
HETATM   17  C   UNL     1     -45.615  61.963 -46.596  1.00  0.00     0.056 A 
HETATM   18  C   UNL     1     -44.895  61.852 -45.422  1.00  0.00     0.158 A 
HETATM   19  O   UNL     1     -45.139  62.903 -44.596  1.00  0.00    -0.334 OA
HETATM   20  C   UNL     1     -46.023  63.711 -45.232  1.00  0.00     0.142 A 
HETATM   21  C   UNL     1     -46.349  63.183 -46.458  1.00  0.00     0.043 A 
ENDBRANCH  14  17
ENDBRANCH   9  13
ENDBRANCH   3   7
BRANCH   1  22
HETATM   22  C   UNL     1     -41.499  55.488 -52.355  1.00  0.00     0.138 C 
BRANCH  22  23
HETATM   23  C   UNL     1     -41.394  54.601 -53.636  1.00  0.00    -0.004 C 
HETATM   24  C   UNL     1     -40.559  55.308 -54.732  1.00  0.00     0.021 C 
HETATM   25  C   UNL     1     -42.817  54.403 -54.215  1.00  0.00     0.021 C 
BRANCH  23  26
HETATM   26  C   UNL     1     -40.707  53.271 -53.268  1.00  0.00    -0.046 A 
HETATM   27  C   UNL     1     -40.308  53.024 -51.943  1.00  0.00     0.027 A 
HETATM   28  C   UNL     1     -39.675  51.830 -51.628  1.00  0.00     0.116 A 
HETATM   29  N   UNL     1     -39.411  50.860 -52.524  1.00  0.00    -0.273 NA
HETATM   30  C   UNL     1     -39.796  51.102 -53.792  1.00  0.00     0.116 A 
HETATM   31  C   UNL     1     -40.436  52.264 -54.204  1.00  0.00     0.027 A 
ENDBRANCH  23  26
ENDBRANCH  22  23
ENDBRANCH   1  22
TORSDOF 6
ENDMDL
MODEL 5
REMARK VINA RESULT:      -7.6      2.828      9.681
REMARK  6 active torsions:
REMARK  status: ('A' for Active; 'I' for Inactive)
REMARK    1  A    between atoms: C_2  and  C_3 
REMARK    2  A    between atoms: C_2  and  C_9 
REMARK    3  A    between atoms: C_9  and  N_10 
REMARK       I    between atoms: N_10  and  C_11 
REMARK       I    between atoms: C_11  and  N_12 
REMARK    4  A    between atoms: N_12  and  C_13 
REMARK    5  A    between atoms: C_15  and  N_16 
REMARK       I    between atoms: N_16  and  C_17 
REMARK    6  A    between atoms: C_17  and  C_18 
ROOT
HETATM    1  N   UNL     1     -43.369  59.162 -56.333  1.00  0.00    -0.342 N 
HETATM    2  C   UNL     1     -43.772  58.180 -55.454  1.00  0.00     0.320 C 
HETATM    3  N   UNL     1     -42.773  57.915 -54.543  1.00  0.00    -0.309 N 
HETATM    4  O   UNL     1     -44.843  57.597 -55.554  1.00  0.00    -0.247 OA
HETATM    5  H   UNL     1     -42.668  59.818 -56.023  1.00  0.00     0.164 HD
HETATM    6  H   UNL     1     -41.854  58.219 -54.830  1.00  0.00     0.170 HD
ENDROOT
BRANCH   3   7
HETATM    7  C   UNL     1     -42.813  56.949 -53.518  1.00  0.00     0.038 A 
HETATM    8  C   UNL     1     -42.172  55.725 -53.767  1.00  0.00     0.059 A 
HETATM    9  C   UNL     1     -42.207  54.691 -52.830  1.00  0.00     0.037 A 
HETATM   10  C   UNL     1     -42.846  54.913 -51.605  1.00  0.00     0.029 A 
HETATM   11  C   UNL     1     -43.460  56.139 -51.337  1.00  0.00     0.004 A 
HETATM   12  C   UNL     1     -43.451  57.152 -52.296  1.00  0.00     0.029 A 
BRANCH   9  13
HETATM   13  N   UNL     1     -41.665  53.404 -53.052  1.00  0.00    -0.323 N 
HETATM   14  C   UNL     1     -40.506  52.873 -52.510  1.00  0.00     0.258 C 
HETATM   15  O   UNL     1     -39.804  53.417 -51.664  1.00  0.00    -0.267 OA
HETATM   16  H   UNL     1     -42.165  52.837 -53.718  1.00  0.00     0.169 HD
BRANCH  14  17
HETATM   17  C   UNL     1     -40.125  51.562 -53.031  1.00  0.00     0.056 A 
HETATM   18  C   UNL     1     -39.553  50.492 -52.369  1.00  0.00     0.158 A 
HETATM   19  O   UNL     1     -39.367  49.439 -53.208  1.00  0.00    -0.334 OA
HETATM   20  C   UNL     1     -39.822  49.818 -54.427  1.00  0.00     0.142 A 
HETATM   21  C   UNL     1     -40.295  51.107 -54.376  1.00  0.00     0.043 A 
ENDBRANCH  14  17
ENDBRANCH   9  13
ENDBRANCH   3   7
BRANCH   1  22
HETATM   22  C   UNL     1     -44.083  59.439 -57.569  1.00  0.00     0.138 C 
BRANCH  22  23
HETATM   23  C   UNL     1     -43.427  58.765 -58.816  1.00  0.00    -0.004 C 
HETATM   24  C   UNL     1     -42.099  58.067 -58.434  1.00  0.00     0.021 C 
HETATM   25  C   UNL     1     -43.072  59.870 -59.842  1.00  0.00     0.021 C 
BRANCH  23  26
HETATM   26  C   UNL     1     -44.398  57.710 -59.384  1.00  0.00    -0.046 A 
HETATM   27  C   UNL     1     -43.920  56.692 -60.228  1.00  0.00     0.027 A 
HETATM   28  C   UNL     1     -44.806  55.758 -60.747  1.00  0.00     0.116 A 
HETATM   29  N   UNL     1     -46.128  55.755 -60.491  1.00  0.00    -0.273 NA
HETATM   30  C   UNL     1     -46.580  56.732 -59.682  1.00  0.00     0.116 A 
HETATM   31  C   UNL     1     -45.772  57.709 -59.114  1.00  0.00     0.027 A 
ENDBRANCH  23  26
ENDBRANCH  22  23
ENDBRANCH   1  22
TORSDOF 6
ENDMDL
MODEL 6
REMARK VINA RESULT:      -7.4      1.684      2.311
REMARK  6 active torsions:
REMARK  status: ('A' for Active; 'I' for Inactive)
REMARK    1  A    between atoms: C_2  and  C_3 
REMARK    2  A    between atoms: C_2  and  C_9 
REMARK    3  A    between atoms: C_9  and  N_10 
REMARK       I    between atoms: N_10  and  C_11 
REMARK       I    between atoms: C_11  and  N_12 
REMARK    4  A    between atoms: N_12  and  C_13 
REMARK    5  A    between atoms: C_15  and  N_16 
REMARK       I    between atoms: N_16  and  C_17 
REMARK    6  A    between atoms: C_17  and  C_18 
ROOT
HETATM    1  N   UNL     1     -42.722  55.725 -55.104  1.00  0.00    -0.342 N 
HETATM    2  C   UNL     1     -42.765  55.945 -56.464  1.00  0.00     0.320 C 
HETATM    3  N   UNL     1     -42.912  57.289 -56.727  1.00  0.00    -0.309 N 
HETATM    4  O   UNL     1     -42.750  55.038 -57.285  1.00  0.00    -0.247 OA
HETATM    5  H   UNL     1     -42.404  56.478 -54.512  1.00  0.00     0.164 HD
HETATM    6  H   UNL     1     -43.264  57.830 -55.951  1.00  0.00     0.170 HD
ENDROOT
BRANCH   3   7
HETATM    7  C   UNL     1     -43.029  57.883 -57.999  1.00  0.00     0.038 A 
HETATM    8  C   UNL     1     -44.244  57.708 -58.678  1.00  0.00     0.059 A 
HETATM    9  C   UNL     1     -44.429  58.215 -59.966  1.00  0.00     0.037 A 
HETATM   10  C   UNL     1     -43.397  58.957 -60.552  1.00  0.00     0.029 A 
HETATM   11  C   UNL     1     -42.195  59.163 -59.870  1.00  0.00     0.004 A 
HETATM   12  C   UNL     1     -42.009  58.619 -58.599  1.00  0.00     0.029 A 
BRANCH   9  13
HETATM   13  N   UNL     1     -45.589  57.997 -60.743  1.00  0.00    -0.323 N 
HETATM   14  C   UNL     1     -46.841  58.564 -60.567  1.00  0.00     0.258 C 
HETATM   15  O   UNL     1     -47.118  59.432 -59.746  1.00  0.00    -0.267 OA
HETATM   16  H   UNL     1     -45.491  57.313 -61.477  1.00  0.00     0.169 HD
BRANCH  14  17
HETATM   17  C   UNL     1     -47.885  58.041 -61.447  1.00  0.00     0.056 A 
HETATM   18  C   UNL     1     -48.133  56.736 -61.828  1.00  0.00     0.158 A 
HETATM   19  O   UNL     1     -49.213  56.663 -62.650  1.00  0.00    -0.334 OA
HETATM   20  C   UNL     1     -49.679  57.926 -62.806  1.00  0.00     0.142 A 
HETATM   21  C   UNL     1     -48.904  58.809 -62.094  1.00  0.00     0.043 A 
ENDBRANCH  14  17
ENDBRANCH   9  13
ENDBRANCH   3   7
BRANCH   1  22
HETATM   22  C   UNL     1     -42.869  54.399 -54.526  1.00  0.00     0.138 C 
BRANCH  22  23
HETATM   23  C   UNL     1     -41.561  53.880 -53.851  1.00  0.00    -0.004 C 
HETATM   24  C   UNL     1     -40.330  54.684 -54.335  1.00  0.00     0.021 C 
HETATM   25  C   UNL     1     -41.333  52.410 -54.286  1.00  0.00     0.021 C 
BRANCH  23  26
HETATM   26  C   UNL     1     -41.689  54.038 -52.323  1.00  0.00    -0.046 A 
HETATM   27  C   UNL     1     -42.924  54.389 -51.750  1.00  0.00     0.027 A 
HETATM   28  C   UNL     1     -43.023  54.545 -50.374  1.00  0.00     0.116 A 
HETATM   29  N   UNL     1     -41.993  54.377 -49.524  1.00  0.00    -0.273 NA
HETATM   30  C   UNL     1     -40.812  54.041 -50.078  1.00  0.00     0.116 A 
HETATM   31  C   UNL     1     -40.615  53.861 -51.441  1.00  0.00     0.027 A 
ENDBRANCH  23  26
ENDBRANCH  22  23
ENDBRANCH   1  22
TORSDOF 6
ENDMDL
MODEL 7
REMARK VINA RESULT:      -7.2      7.983     11.454
REMARK  6 active torsions:
REMARK  status: ('A' for Active; 'I' for Inactive)
REMARK    1  A    between atoms: C_2  and  C_3 
REMARK    2  A    between atoms: C_2  and  C_9 
REMARK    3  A    between atoms: C_9  and  N_10 
REMARK       I    between atoms: N_10  and  C_11 
REMARK       I    between atoms: C_11  and  N_12 
REMARK    4  A    between atoms: N_12  and  C_13 
REMARK    5  A    between atoms: C_15  and  N_16 
REMARK       I    between atoms: N_16  and  C_17 
REMARK    6  A    between atoms: C_17  and  C_18 
ROOT
HETATM    1  N   UNL     1     -44.089  61.034 -48.683  1.00  0.00    -0.342 N 
HETATM    2  C   UNL     1     -43.891  60.814 -50.029  1.00  0.00     0.320 C 
HETATM    3  N   UNL     1     -42.914  59.861 -50.219  1.00  0.00    -0.309 N 
HETATM    4  O   UNL     1     -44.467  61.452 -50.899  1.00  0.00    -0.247 OA
HETATM    5  H   UNL     1     -43.863  60.289 -48.042  1.00  0.00     0.164 HD
HETATM    6  H   UNL     1     -42.311  59.717 -49.421  1.00  0.00     0.170 HD
ENDROOT
BRANCH   3   7
HETATM    7  C   UNL     1     -42.420  59.406 -51.457  1.00  0.00     0.038 A 
HETATM    8  C   UNL     1     -42.083  58.047 -51.551  1.00  0.00     0.059 A 
HETATM    9  C   UNL     1     -41.537  57.520 -52.723  1.00  0.00     0.037 A 
HETATM   10  C   UNL     1     -41.381  58.361 -53.831  1.00  0.00     0.029 A 
HETATM   11  C   UNL     1     -41.743  59.708 -53.755  1.00  0.00     0.004 A 
HETATM   12  C   UNL     1     -42.253  60.231 -52.567  1.00  0.00     0.029 A 
BRANCH   9  13
HETATM   13  N   UNL     1     -41.089  56.186 -52.857  1.00  0.00    -0.323 N 
HETATM   14  C   UNL     1     -41.786  55.028 -52.553  1.00  0.00     0.258 C 
HETATM   15  O   UNL     1     -42.959  54.979 -52.198  1.00  0.00    -0.267 OA
HETATM   16  H   UNL     1     -40.135  56.083 -53.167  1.00  0.00     0.169 HD
BRANCH  14  17
HETATM   17  C   UNL     1     -41.012  53.794 -52.667  1.00  0.00     0.056 A 
HETATM   18  C   UNL     1     -40.439  53.027 -51.670  1.00  0.00     0.158 A 
HETATM   19  O   UNL     1     -39.813  51.938 -52.189  1.00  0.00    -0.334 OA
HETATM   20  C   UNL     1     -39.978  51.988 -53.533  1.00  0.00     0.142 A 
HETATM   21  C   UNL     1     -40.702  53.102 -53.881  1.00  0.00     0.043 A 
ENDBRANCH  14  17
ENDBRANCH   9  13
ENDBRANCH   3   7
BRANCH   1  22
HETATM   22  C   UNL     1     -44.834  62.180 -48.185  1.00  0.00     0.138 C 
BRANCH  22  23
HETATM   23  C   UNL     1     -45.741  61.831 -46.962  1.00  0.00    -0.004 C 
HETATM   24  C   UNL     1     -45.870  60.299 -46.787  1.00  0.00     0.021 C 
HETATM   25  C   UNL     1     -47.167  62.371 -47.240  1.00  0.00     0.021 C 
BRANCH  23  26
HETATM   26  C   UNL     1     -45.113  62.427 -45.686  1.00  0.00    -0.046 A 
HETATM   27  C   UNL     1     -44.524  61.584 -44.729  1.00  0.00     0.027 A 
HETATM   28  C   UNL     1     -43.977  62.130 -43.576  1.00  0.00     0.116 A 
HETATM   29  N   UNL     1     -43.967  63.448 -43.302  1.00  0.00    -0.273 NA
HETATM   30  C   UNL     1     -44.532  64.252 -44.224  1.00  0.00     0.116 A 
HETATM   31  C   UNL     1     -45.103  63.799 -45.407  1.00  0.00     0.027 A 
ENDBRANCH  23  26
ENDBRANCH  22  23
ENDBRANCH   1  22
TORSDOF 6
ENDMDL
MODEL 8
REMARK VINA RESULT:      -7.2      7.024     10.859
REMARK  6 active torsions:
REMARK  status: ('A' for Active; 'I' for Inactive)
REMARK    1  A    between atoms: C_2  and  C_3 
REMARK    2  A    between atoms: C_2  and  C_9 
REMARK    3  A    between atoms: C_9  and  N_10 
REMARK       I    between atoms: N_10  and  C_11 
REMARK       I    between atoms: C_11  and  N_12 
REMARK    4  A    between atoms: N_12  and  C_13 
REMARK    5  A    between atoms: C_15  and  N_16 
REMARK       I    between atoms: N_16  and  C_17 
REMARK    6  A    between atoms: C_17  and  C_18 
ROOT
HETATM    1  N   UNL     1     -44.467  59.898 -50.099  1.00  0.00    -0.342 N 
HETATM    2  C   UNL     1     -44.011  59.362 -51.284  1.00  0.00     0.320 C 
HETATM    3  N   UNL     1     -44.597  58.136 -51.511  1.00  0.00    -0.309 N 
HETATM    4  O   UNL     1     -43.148  59.897 -51.967  1.00  0.00    -0.247 OA
HETATM    5  H   UNL     1     -45.376  59.611 -49.767  1.00  0.00     0.164 HD
HETATM    6  H   UNL     1     -44.990  57.702 -50.688  1.00  0.00     0.170 HD
ENDROOT
BRANCH   3   7
HETATM    7  C   UNL     1     -44.348  57.281 -52.602  1.00  0.00     0.038 A 
HETATM    8  C   UNL     1     -43.596  56.123 -52.348  1.00  0.00     0.059 A 
HETATM    9  C   UNL     1     -43.255  55.246 -53.380  1.00  0.00     0.037 A 
HETATM   10  C   UNL     1     -43.725  55.510 -54.672  1.00  0.00     0.029 A 
HETATM   11  C   UNL     1     -44.500  56.644 -54.927  1.00  0.00     0.004 A 
HETATM   12  C   UNL     1     -44.803  57.532 -53.895  1.00  0.00     0.029 A 
BRANCH   9  13
HETATM   13  N   UNL     1     -42.424  54.115 -53.214  1.00  0.00    -0.323 N 
HETATM   14  C   UNL     1     -41.054  54.039 -53.406  1.00  0.00     0.258 C 
HETATM   15  O   UNL     1     -40.321  54.987 -53.668  1.00  0.00    -0.267 OA
HETATM   16  H   UNL     1     -42.904  53.262 -52.973  1.00  0.00     0.169 HD
BRANCH  14  17
HETATM   17  C   UNL     1     -40.487  52.697 -53.290  1.00  0.00     0.056 A 
HETATM   18  C   UNL     1     -39.769  52.140 -52.248  1.00  0.00     0.158 A 
HETATM   19  O   UNL     1     -39.431  50.853 -52.520  1.00  0.00    -0.334 OA
HETATM   20  C   UNL     1     -39.931  50.561 -53.745  1.00  0.00     0.142 A 
HETATM   21  C   UNL     1     -40.585  51.653 -54.262  1.00  0.00     0.043 A 
ENDBRANCH  14  17
ENDBRANCH   9  13
ENDBRANCH   3   7
BRANCH   1  22
HETATM   22  C   UNL     1     -43.816  61.028 -49.455  1.00  0.00     0.138 C 
BRANCH  22  23
HETATM   23  C   UNL     1     -44.749  62.272 -49.319  1.00  0.00    -0.004 C 
HETATM   24  C   UNL     1     -46.152  61.980 -49.904  1.00  0.00     0.021 C 
HETATM   25  C   UNL     1     -44.149  63.431 -50.155  1.00  0.00     0.021 C 
BRANCH  23  26
HETATM   26  C   UNL     1     -44.897  62.626 -47.825  1.00  0.00    -0.046 A 
HETATM   27  C   UNL     1     -45.039  61.606 -46.868  1.00  0.00     0.027 A 
HETATM   28  C   UNL     1     -45.188  61.937 -45.529  1.00  0.00     0.116 A 
HETATM   29  N   UNL     1     -45.204  63.201 -45.066  1.00  0.00    -0.273 NA
HETATM   30  C   UNL     1     -45.067  64.175 -45.987  1.00  0.00     0.116 A 
HETATM   31  C   UNL     1     -44.911  63.943 -47.348  1.00  0.00     0.027 A 
ENDBRANCH  23  26
ENDBRANCH  22  23
ENDBRANCH   1  22
TORSDOF 6
ENDMDL
MODEL 9
REMARK VINA RESULT:      -7.1      3.261      4.872
REMARK  6 active torsions:
REMARK  status: ('A' for Active; 'I' for Inactive)
REMARK    1  A    between atoms: C_2  and  C_3 
REMARK    2  A    between atoms: C_2  and  C_9 
REMARK    3  A    between atoms: C_9  and  N_10 
REMARK       I    between atoms: N_10  and  C_11 
REMARK       I    between atoms: C_11  and  N_12 
REMARK    4  A    between atoms: N_12  and  C_13 
REMARK    5  A    between atoms: C_15  and  N_16 
REMARK       I    between atoms: N_16  and  C_17 
REMARK    6  A    between atoms: C_17  and  C_18 
ROOT
HETATM    1  N   UNL     1     -43.343  55.617 -54.374  1.00  0.00    -0.342 N 
HETATM    2  C   UNL     1     -42.885  55.633 -55.674  1.00  0.00     0.320 C 
HETATM    3  N   UNL     1     -43.348  56.752 -56.331  1.00  0.00    -0.309 N 
HETATM    4  O   UNL     1     -42.227  54.722 -56.158  1.00  0.00    -0.247 OA
HETATM    5  H   UNL     1     -43.573  56.500 -53.942  1.00  0.00     0.164 HD
HETATM    6  H   UNL     1     -44.151  57.186 -55.900  1.00  0.00     0.170 HD
ENDROOT
BRANCH   3   7
HETATM    7  C   UNL     1     -43.114  57.085 -57.680  1.00  0.00     0.038 A 
HETATM    8  C   UNL     1     -42.427  58.282 -57.934  1.00  0.00     0.059 A 
HETATM    9  C   UNL     1     -42.199  58.717 -59.240  1.00  0.00     0.037 A 
HETATM   10  C   UNL     1     -42.619  57.909 -60.303  1.00  0.00     0.029 A 
HETATM   11  C   UNL     1     -43.277  56.701 -60.059  1.00  0.00     0.004 A 
HETATM   12  C   UNL     1     -43.532  56.294 -58.749  1.00  0.00     0.029 A 
BRANCH   9  13
HETATM   13  N   UNL     1     -41.598  59.954 -59.568  1.00  0.00    -0.323 N 
HETATM   14  C   UNL     1     -42.235  61.136 -59.913  1.00  0.00     0.258 C 
HETATM   15  O   UNL     1     -43.447  61.319 -59.897  1.00  0.00    -0.267 OA
HETATM   16  H   UNL     1     -40.590  59.948 -59.595  1.00  0.00     0.169 HD
BRANCH  14  17
HETATM   17  C   UNL     1     -41.345  62.216 -60.334  1.00  0.00     0.056 A 
HETATM   18  C   UNL     1     -40.150  62.629 -59.777  1.00  0.00     0.158 A 
HETATM   19  O   UNL     1     -39.617  63.666 -60.477  1.00  0.00    -0.334 OA
HETATM   20  C   UNL     1     -40.465  63.933 -61.499  1.00  0.00     0.142 A 
HETATM   21  C   UNL     1     -41.540  63.078 -61.459  1.00  0.00     0.043 A 
ENDBRANCH  14  17
ENDBRANCH   9  13
ENDBRANCH   3   7
BRANCH   1  22
HETATM   22  C   UNL     1     -43.266  54.431 -53.538  1.00  0.00     0.138 C 
BRANCH  22  23
HETATM   23  C   UNL     1     -42.165  54.533 -52.435  1.00  0.00    -0.004 C 
HETATM   24  C   UNL     1     -42.788  54.454 -51.020  1.00  0.00     0.021 C 
HETATM   25  C   UNL     1     -41.485  55.920 -52.547  1.00  0.00     0.021 C 
BRANCH  23  26
HETATM   26  C   UNL     1     -41.174  53.365 -52.607  1.00  0.00    -0.046 A 
HETATM   27  C   UNL     1     -40.490  52.848 -51.493  1.00  0.00     0.027 A 
HETATM   28  C   UNL     1     -39.588  51.807 -51.663  1.00  0.00     0.116 A 
HETATM   29  N   UNL     1     -39.314  51.238 -52.852  1.00  0.00    -0.273 NA
HETATM   30  C   UNL     1     -39.972  51.736 -53.916  1.00  0.00     0.116 A 
HETATM   31  C   UNL     1     -40.894  52.774 -53.846  1.00  0.00     0.027 A 
ENDBRANCH  23  26
ENDBRANCH  22  23
ENDBRANCH   1  22
TORSDOF 6
ENDMDL
MODEL 10
REMARK VINA RESULT:      -7.1     16.455     18.030
REMARK  6 active torsions:
REMARK  status: ('A' for Active; 'I' for Inactive)
REMARK    1  A    between atoms: C_2  and  C_3 
REMARK    2  A    between atoms: C_2  and  C_9 
REMARK    3  A    between atoms: C_9  and  N_10 
REMARK       I    between atoms: N_10  and  C_11 
REMARK       I    between atoms: C_11  and  N_12 
REMARK    4  A    between atoms: N_12  and  C_13 
REMARK    5  A    between atoms: C_15  and  N_16 
REMARK       I    between atoms: N_16  and  C_17 
REMARK    6  A    between atoms: C_17  and  C_18 
ROOT
HETATM    1  N   UNL     1     -35.282  39.457 -53.457  1.00  0.00    -0.342 N 
HETATM    2  C   UNL     1     -36.155  40.077 -54.325  1.00  0.00     0.320 C 
HETATM    3  N   UNL     1     -35.723  39.930 -55.625  1.00  0.00    -0.309 N 
HETATM    4  O   UNL     1     -37.123  40.721 -53.946  1.00  0.00    -0.247 OA
HETATM    5  H   UNL     1     -34.728  38.690 -53.809  1.00  0.00     0.164 HD
HETATM    6  H   UNL     1     -34.745  39.693 -55.715  1.00  0.00     0.170 HD
ENDROOT
BRANCH   3   7
HETATM    7  C   UNL     1     -36.340  40.459 -56.775  1.00  0.00     0.038 A 
HETATM    8  C   UNL     1     -37.284  39.649 -57.424  1.00  0.00     0.059 A 
HETATM    9  C   UNL     1     -37.906  40.071 -58.602  1.00  0.00     0.037 A 
HETATM   10  C   UNL     1     -37.612  41.346 -59.099  1.00  0.00     0.029 A 
HETATM   11  C   UNL     1     -36.696  42.170 -58.442  1.00  0.00     0.004 A 
HETATM   12  C   UNL     1     -36.054  41.723 -57.287  1.00  0.00     0.029 A 
BRANCH   9  13
HETATM   13  N   UNL     1     -38.794  39.272 -59.357  1.00  0.00    -0.323 N 
HETATM   14  C   UNL     1     -38.529  38.608 -60.544  1.00  0.00     0.258 C 
HETATM   15  O   UNL     1     -37.432  38.535 -61.086  1.00  0.00    -0.267 OA
HETATM   16  H   UNL     1     -39.737  39.227 -59.003  1.00  0.00     0.169 HD
BRANCH  14  17
HETATM   17  C   UNL     1     -39.687  37.970 -61.166  1.00  0.00     0.056 A 
HETATM   18  C   UNL     1     -39.795  37.379 -62.411  1.00  0.00     0.158 A 
HETATM   19  O   UNL     1     -41.044  36.883 -62.612  1.00  0.00    -0.334 OA
HETATM   20  C   UNL     1     -41.760  37.146 -61.492  1.00  0.00     0.142 A 
HETATM   21  C   UNL     1     -40.980  37.810 -60.576  1.00  0.00     0.043 A 
ENDBRANCH  14  17
ENDBRANCH   9  13
ENDBRANCH   3   7
BRANCH   1  22
HETATM   22  C   UNL     1     -35.315  39.692 -52.023  1.00  0.00     0.138 C 
BRANCH  22  23
HETATM   23  C   UNL     1     -34.048  40.442 -51.500  1.00  0.00    -0.004 C 
HETATM   24  C   UNL     1     -34.369  41.926 -51.196  1.00  0.00     0.021 C 
HETATM   25  C   UNL     1     -32.977  40.437 -52.619  1.00  0.00     0.021 C 
BRANCH  23  26
HETATM   26  C   UNL     1     -33.563  39.763 -50.204  1.00  0.00    -0.046 A 
HETATM   27  C   UNL     1     -34.392  38.845 -49.534  1.00  0.00     0.027 A 
HETATM   28  C   UNL     1     -33.951  38.252 -48.359  1.00  0.00     0.116 A 
HETATM   29  N   UNL     1     -32.752  38.497 -47.799  1.00  0.00    -0.273 NA
HETATM   30  C   UNL     1     -31.961  39.377 -48.445  1.00  0.00     0.116 A 
HETATM   31  C   UNL     1     -32.314  40.019 -49.625  1.00  0.00     0.027 A 
ENDBRANCH  23  26
ENDBRANCH  22  23
ENDBRANCH   1  22
TORSDOF 6
ENDMDL
