MODEL 1
REMARK VINA RESULT:      -8.1      0.000      0.000
REMARK  14 active torsions:
REMARK  status: ('A' for Active; 'I' for Inactive)
REMARK    1  A    between atoms: C_2  and  O_3 
REMARK    2  A    between atoms: O_3  and  C_4 
REMARK    3  A    between atoms: C_5  and  O_6 
REMARK    4  A    between atoms: C_9  and  C_10 
REMARK    5  A    between atoms: N_11  and  C_12 
REMARK    6  A    between atoms: C_12  and  C_13 
REMARK    7  A    between atoms: C_13  and  C_14 
REMARK    8  A    between atoms: C_14  and  N_15 
REMARK    9  A    between atoms: C_24  and  O_25 
REMARK   10  A    between atoms: C_26  and  C_27 
REMARK   11  A    between atoms: C_27  and  C_28 
REMARK   12  A    between atoms: C_32  and  O_33 
REMARK   13  A    between atoms: O_33  and  C_34 
REMARK   14  A    between atoms: C_34  and  C_35 
ROOT
HETATM    1  C   UNL     1     -44.151  58.851 -55.121  1.00  0.00     0.161 C 
HETATM    2  N   UNL     1     -44.753  59.840 -56.015  1.00  0.00    -0.333 N 
HETATM    3  C   UNL     1     -43.783  60.446 -56.793  1.00  0.00     0.278 C 
HETATM    4  O   UNL     1     -43.943  61.233 -57.709  1.00  0.00    -0.265 OA
HETATM    5  C   UNL     1     -42.467  60.023 -56.284  1.00  0.00     0.146 C 
HETATM    6  C   UNL     1     -42.693  59.140 -55.305  1.00  0.00     0.059 C 
ENDROOT
BRANCH   6   7
HETATM    7  C   UNL     1     -41.619  58.683 -54.404  1.00  0.00     0.193 C 
HETATM    8  O   UNL     1     -40.955  59.497 -53.770  1.00  0.00    -0.287 OA
BRANCH   7   9
HETATM    9  C   UNL     1     -41.425  57.233 -54.159  1.00  0.00     0.015 A 
HETATM   10  C   UNL     1     -41.126  56.832 -52.851  1.00  0.00     0.025 A 
HETATM   11  C   UNL     1     -40.921  55.480 -52.545  1.00  0.00    -0.028 A 
HETATM   12  C   UNL     1     -40.590  55.080 -51.132  1.00  0.00     0.051 C 
HETATM   13  C   UNL     1     -41.025  54.516 -53.561  1.00  0.00     0.074 A 
HETATM   14  C   UNL     1     -41.307  54.920 -54.871  1.00  0.00     0.038 A 
HETATM   15  C   UNL     1     -41.495  56.275 -55.173  1.00  0.00     0.018 A 
BRANCH  13  16
HETATM   16  O   UNL     1     -40.826  53.225 -53.158  1.00  0.00    -0.350 OA
BRANCH  16  17
HETATM   17  C   UNL     1     -40.591  52.225 -54.146  1.00  0.00     0.179 C 
BRANCH  17  18
HETATM   18  C   UNL     1     -39.499  51.265 -53.647  1.00  0.00     0.002 C 
HETATM   19  C   UNL     1     -39.480  51.198 -52.119  1.00  0.00     0.011 C 
HETATM   20  C   UNL     1     -39.680  49.860 -54.226  1.00  0.00     0.011 C 
ENDBRANCH  17  18
ENDBRANCH  16  17
ENDBRANCH  13  16
ENDBRANCH   7   9
ENDBRANCH   6   7
BRANCH   1  21
HETATM   21  C   UNL     1     -44.647  58.928 -53.695  1.00  0.00    -0.028 A 
HETATM   22  C   UNL     1     -44.984  60.152 -53.089  1.00  0.00     0.012 A 
HETATM   23  C   UNL     1     -45.398  60.190 -51.759  1.00  0.00     0.040 A 
HETATM   24  C   UNL     1     -45.441  59.013 -51.021  1.00  0.00     0.099 A 
HETATM   25  C   UNL     1     -45.069  57.790 -51.579  1.00  0.00     0.102 A 
HETATM   26  C   UNL     1     -44.705  57.747 -52.925  1.00  0.00     0.049 A 
BRANCH  24  27
HETATM   27  O   UNL     1     -45.833  59.087 -49.714  1.00  0.00    -0.358 OA
HETATM   28  H   UNL     1     -45.702  60.020 -49.453  1.00  0.00     0.218 HD
ENDBRANCH  24  27
BRANCH  25  29
HETATM   29  O   UNL     1     -45.102  56.715 -50.729  1.00  0.00    -0.349 OA
BRANCH  29  30
HETATM   30  C   UNL     1     -43.887  55.967 -50.615  1.00  0.00     0.171 C 
HETATM   31  C   UNL     1     -44.232  54.490 -50.599  1.00  0.00     0.034 C 
ENDBRANCH  29  30
ENDBRANCH  25  29
ENDBRANCH   1  21
BRANCH   5  32
HETATM   32  O   UNL     1     -41.288  60.521 -56.743  1.00  0.00    -0.355 OA
HETATM   33  H   UNL     1     -40.685  59.765 -56.878  1.00  0.00     0.218 HD
ENDBRANCH   5  32
BRANCH   2  34
HETATM   34  C   UNL     1     -46.164  59.854 -56.374  1.00  0.00     0.129 C 
BRANCH  34  35
HETATM   35  C   UNL     1     -46.674  58.557 -57.005  1.00  0.00     0.048 C 
BRANCH  35  36
HETATM   36  C   UNL     1     -46.257  58.265 -58.450  1.00  0.00     0.236 C 
BRANCH  36  37
HETATM   37  N   UNL     1     -45.451  57.007 -58.689  1.00  0.00    -0.067 N 
HETATM   38  H   UNL     1     -45.785  56.360 -57.961  1.00  0.00     0.280 HD
HETATM   39  C   UNL     1     -45.748  56.280 -59.995  1.00  0.00     0.261 C 
HETATM   40  C   UNL     1     -45.021  54.928 -60.004  1.00  0.00     0.195 C 
HETATM   41  O   UNL     1     -43.613  55.094 -59.800  1.00  0.00    -0.388 OA
HETATM   42  C   UNL     1     -43.324  55.718 -58.544  1.00  0.00     0.195 C 
HETATM   43  C   UNL     1     -43.949  57.117 -58.472  1.00  0.00     0.261 C 
ENDBRANCH  36  37
ENDBRANCH  35  36
ENDBRANCH  34  35
ENDBRANCH   2  34
TORSDOF 14
ENDMDL
MODEL 2
REMARK VINA RESULT:      -7.9      1.009      2.328
REMARK  14 active torsions:
REMARK  status: ('A' for Active; 'I' for Inactive)
REMARK    1  A    between atoms: C_2  and  O_3 
REMARK    2  A    between atoms: O_3  and  C_4 
REMARK    3  A    between atoms: C_5  and  O_6 
REMARK    4  A    between atoms: C_9  and  C_10 
REMARK    5  A    between atoms: N_11  and  C_12 
REMARK    6  A    between atoms: C_12  and  C_13 
REMARK    7  A    between atoms: C_13  and  C_14 
REMARK    8  A    between atoms: C_14  and  N_15 
REMARK    9  A    between atoms: C_24  and  O_25 
REMARK   10  A    between atoms: C_26  and  C_27 
REMARK   11  A    between atoms: C_27  and  C_28 
REMARK   12  A    between atoms: C_32  and  O_33 
REMARK   13  A    between atoms: O_33  and  C_34 
REMARK   14  A    between atoms: C_34  and  C_35 
ROOT
HETATM    1  C   UNL     1     -43.954  58.609 -54.828  1.00  0.00     0.161 C 
HETATM    2  N   UNL     1     -44.641  59.534 -55.730  1.00  0.00    -0.333 N 
HETATM    3  C   UNL     1     -43.731  60.179 -56.549  1.00  0.00     0.278 C 
HETATM    4  O   UNL     1     -43.965  60.929 -57.480  1.00  0.00    -0.265 OA
HETATM    5  C   UNL     1     -42.379  59.855 -56.065  1.00  0.00     0.146 C 
HETATM    6  C   UNL     1     -42.523  58.985 -55.059  1.00  0.00     0.059 C 
ENDROOT
BRANCH   6   7
HETATM    7  C   UNL     1     -41.399  58.621 -54.176  1.00  0.00     0.193 C 
HETATM    8  O   UNL     1     -40.648  59.489 -53.741  1.00  0.00    -0.287 OA
BRANCH   7   9
HETATM    9  C   UNL     1     -41.252  57.223 -53.703  1.00  0.00     0.015 A 
HETATM   10  C   UNL     1     -40.972  56.241 -54.660  1.00  0.00     0.025 A 
HETATM   11  C   UNL     1     -40.828  54.898 -54.289  1.00  0.00    -0.028 A 
HETATM   12  C   UNL     1     -40.538  53.862 -55.342  1.00  0.00     0.051 C 
HETATM   13  C   UNL     1     -40.957  54.535 -52.937  1.00  0.00     0.074 A 
HETATM   14  C   UNL     1     -41.253  55.514 -51.984  1.00  0.00     0.038 A 
HETATM   15  C   UNL     1     -41.412  56.854 -52.364  1.00  0.00     0.018 A 
BRANCH  13  16
HETATM   16  O   UNL     1     -40.780  53.205 -52.675  1.00  0.00    -0.350 OA
BRANCH  16  17
HETATM   17  C   UNL     1     -39.860  52.823 -51.656  1.00  0.00     0.179 C 
BRANCH  17  18
HETATM   18  C   UNL     1     -39.355  51.398 -51.936  1.00  0.00     0.002 C 
HETATM   19  C   UNL     1     -39.856  50.416 -50.875  1.00  0.00     0.011 C 
HETATM   20  C   UNL     1     -39.774  50.917 -53.327  1.00  0.00     0.011 C 
ENDBRANCH  17  18
ENDBRANCH  16  17
ENDBRANCH  13  16
ENDBRANCH   7   9
ENDBRANCH   6   7
BRANCH   1  21
HETATM   21  C   UNL     1     -44.418  58.692 -53.392  1.00  0.00    -0.028 A 
HETATM   22  C   UNL     1     -44.735  57.544 -52.645  1.00  0.00     0.012 A 
HETATM   23  C   UNL     1     -45.200  57.660 -51.336  1.00  0.00     0.040 A 
HETATM   24  C   UNL     1     -45.384  58.921 -50.784  1.00  0.00     0.099 A 
HETATM   25  C   UNL     1     -45.123  60.081 -51.514  1.00  0.00     0.102 A 
HETATM   26  C   UNL     1     -44.609  59.961 -52.806  1.00  0.00     0.049 A 
BRANCH  24  27
HETATM   27  O   UNL     1     -45.859  59.001 -49.505  1.00  0.00    -0.358 OA
HETATM   28  H   UNL     1     -45.200  59.530 -49.013  1.00  0.00     0.218 HD
ENDBRANCH  24  27
BRANCH  25  29
HETATM   29  O   UNL     1     -45.400  61.261 -50.874  1.00  0.00    -0.349 OA
BRANCH  29  30
HETATM   30  C   UNL     1     -44.268  62.043 -50.482  1.00  0.00     0.171 C 
HETATM   31  C   UNL     1     -44.688  62.961 -49.349  1.00  0.00     0.034 C 
ENDBRANCH  29  30
ENDBRANCH  25  29
ENDBRANCH   1  21
BRANCH   5  32
HETATM   32  O   UNL     1     -41.246  60.414 -56.567  1.00  0.00    -0.355 OA
HETATM   33  H   UNL     1     -41.327  60.414 -57.541  1.00  0.00     0.218 HD
ENDBRANCH   5  32
BRANCH   2  34
HETATM   34  C   UNL     1     -46.058  59.448 -56.052  1.00  0.00     0.129 C 
BRANCH  34  35
HETATM   35  C   UNL     1     -46.487  58.130 -56.700  1.00  0.00     0.048 C 
BRANCH  35  36
HETATM   36  C   UNL     1     -46.370  58.023 -58.223  1.00  0.00     0.236 C 
BRANCH  36  37
HETATM   37  N   UNL     1     -45.501  56.912 -58.768  1.00  0.00    -0.067 N 
HETATM   38  H   UNL     1     -45.754  56.097 -58.191  1.00  0.00     0.280 HD
HETATM   39  C   UNL     1     -45.821  56.469 -60.191  1.00  0.00     0.261 C 
HETATM   40  C   UNL     1     -45.012  55.209 -60.529  1.00  0.00     0.195 C 
HETATM   41  O   UNL     1     -43.609  55.429 -60.347  1.00  0.00    -0.388 OA
HETATM   42  C   UNL     1     -43.293  55.780 -58.995  1.00  0.00     0.195 C 
HETATM   43  C   UNL     1     -44.000  57.080 -58.589  1.00  0.00     0.261 C 
ENDBRANCH  36  37
ENDBRANCH  35  36
ENDBRANCH  34  35
ENDBRANCH   2  34
TORSDOF 14
ENDMDL
MODEL 3
REMARK VINA RESULT:      -7.5      0.894      2.237
REMARK  14 active torsions:
REMARK  status: ('A' for Active; 'I' for Inactive)
REMARK    1  A    between atoms: C_2  and  O_3 
REMARK    2  A    between atoms: O_3  and  C_4 
REMARK    3  A    between atoms: C_5  and  O_6 
REMARK    4  A    between atoms: C_9  and  C_10 
REMARK    5  A    between atoms: N_11  and  C_12 
REMARK    6  A    between atoms: C_12  and  C_13 
REMARK    7  A    between atoms: C_13  and  C_14 
REMARK    8  A    between atoms: C_14  and  N_15 
REMARK    9  A    between atoms: C_24  and  O_25 
REMARK   10  A    between atoms: C_26  and  C_27 
REMARK   11  A    between atoms: C_27  and  C_28 
REMARK   12  A    between atoms: C_32  and  O_33 
REMARK   13  A    between atoms: O_33  and  C_34 
REMARK   14  A    between atoms: C_34  and  C_35 
ROOT
HETATM    1  C   UNL     1     -44.040  58.864 -54.904  1.00  0.00     0.161 C 
HETATM    2  N   UNL     1     -44.694  59.865 -55.747  1.00  0.00    -0.333 N 
HETATM    3  C   UNL     1     -43.766  60.509 -56.546  1.00  0.00     0.278 C 
HETATM    4  O   UNL     1     -43.976  61.316 -57.434  1.00  0.00    -0.265 OA
HETATM    5  C   UNL     1     -42.424  60.096 -56.101  1.00  0.00     0.146 C 
HETATM    6  C   UNL     1     -42.596  59.183 -55.138  1.00  0.00     0.059 C 
ENDROOT
BRANCH   6   7
HETATM    7  C   UNL     1     -41.479  58.722 -54.293  1.00  0.00     0.193 C 
HETATM    8  O   UNL     1     -40.770  59.535 -53.707  1.00  0.00    -0.287 OA
BRANCH   7   9
HETATM    9  C   UNL     1     -41.290  57.273 -54.042  1.00  0.00     0.015 A 
HETATM   10  C   UNL     1     -41.307  56.839 -52.711  1.00  0.00     0.025 A 
HETATM   11  C   UNL     1     -41.126  55.486 -52.395  1.00  0.00    -0.028 A 
HETATM   12  C   UNL     1     -41.137  55.050 -50.954  1.00  0.00     0.051 C 
HETATM   13  C   UNL     1     -40.935  54.553 -53.428  1.00  0.00     0.074 A 
HETATM   14  C   UNL     1     -40.901  54.990 -54.757  1.00  0.00     0.038 A 
HETATM   15  C   UNL     1     -41.067  56.347 -55.065  1.00  0.00     0.018 A 
BRANCH  13  16
HETATM   16  O   UNL     1     -40.787  53.257 -53.019  1.00  0.00    -0.350 OA
BRANCH  16  17
HETATM   17  C   UNL     1     -40.774  52.224 -54.001  1.00  0.00     0.179 C 
BRANCH  17  18
HETATM   18  C   UNL     1     -39.637  51.238 -53.686  1.00  0.00     0.002 C 
HETATM   19  C   UNL     1     -39.511  51.004 -52.178  1.00  0.00     0.011 C 
HETATM   20  C   UNL     1     -39.838  49.901 -54.403  1.00  0.00     0.011 C 
ENDBRANCH  17  18
ENDBRANCH  16  17
ENDBRANCH  13  16
ENDBRANCH   7   9
ENDBRANCH   6   7
BRANCH   1  21
HETATM   21  C   UNL     1     -44.480  58.894 -53.458  1.00  0.00    -0.028 A 
HETATM   22  C   UNL     1     -44.727  57.717 -52.731  1.00  0.00     0.012 A 
HETATM   23  C   UNL     1     -45.172  57.783 -51.411  1.00  0.00     0.040 A 
HETATM   24  C   UNL     1     -45.406  59.022 -50.829  1.00  0.00     0.099 A 
HETATM   25  C   UNL     1     -45.215  60.208 -51.539  1.00  0.00     0.102 A 
HETATM   26  C   UNL     1     -44.721  60.140 -52.842  1.00  0.00     0.049 A 
BRANCH  24  27
HETATM   27  O   UNL     1     -45.860  59.052 -49.541  1.00  0.00    -0.358 OA
HETATM   28  H   UNL     1     -46.576  58.388 -49.499  1.00  0.00     0.218 HD
ENDBRANCH  24  27
BRANCH  25  29
HETATM   29  O   UNL     1     -45.537  61.359 -50.868  1.00  0.00    -0.349 OA
BRANCH  29  30
HETATM   30  C   UNL     1     -45.915  62.474 -51.681  1.00  0.00     0.171 C 
HETATM   31  C   UNL     1     -47.418  62.431 -51.887  1.00  0.00     0.034 C 
ENDBRANCH  29  30
ENDBRANCH  25  29
ENDBRANCH   1  21
BRANCH   5  32
HETATM   32  O   UNL     1     -41.273  60.627 -56.592  1.00  0.00    -0.355 OA
HETATM   33  H   UNL     1     -40.606  59.913 -56.609  1.00  0.00     0.218 HD
ENDBRANCH   5  32
BRANCH   2  34
HETATM   34  C   UNL     1     -46.118  59.863 -56.049  1.00  0.00     0.129 C 
BRANCH  34  35
HETATM   35  C   UNL     1     -46.478  59.290 -57.422  1.00  0.00     0.048 C 
BRANCH  35  36
HETATM   36  C   UNL     1     -46.290  57.784 -57.628  1.00  0.00     0.236 C 
BRANCH  36  37
HETATM   37  N   UNL     1     -45.230  57.355 -58.618  1.00  0.00    -0.067 N 
HETATM   38  H   UNL     1     -45.033  58.212 -59.153  1.00  0.00     0.280 HD
HETATM   39  C   UNL     1     -43.883  56.981 -58.011  1.00  0.00     0.261 C 
HETATM   40  C   UNL     1     -42.856  56.775 -59.134  1.00  0.00     0.195 C 
HETATM   41  O   UNL     1     -43.304  55.791 -60.073  1.00  0.00    -0.388 OA
HETATM   42  C   UNL     1     -44.538  56.168 -60.696  1.00  0.00     0.195 C 
HETATM   43  C   UNL     1     -45.652  56.323 -59.653  1.00  0.00     0.261 C 
ENDBRANCH  36  37
ENDBRANCH  35  36
ENDBRANCH  34  35
ENDBRANCH   2  34
TORSDOF 14
ENDMDL
MODEL 4
REMARK VINA RESULT:      -7.3      1.982      4.412
REMARK  14 active torsions:
REMARK  status: ('A' for Active; 'I' for Inactive)
REMARK    1  A    between atoms: C_2  and  O_3 
REMARK    2  A    between atoms: O_3  and  C_4 
REMARK    3  A    between atoms: C_5  and  O_6 
REMARK    4  A    between atoms: C_9  and  C_10 
REMARK    5  A    between atoms: N_11  and  C_12 
REMARK    6  A    between atoms: C_12  and  C_13 
REMARK    7  A    between atoms: C_13  and  C_14 
REMARK    8  A    between atoms: C_14  and  N_15 
REMARK    9  A    between atoms: C_24  and  O_25 
REMARK   10  A    between atoms: C_26  and  C_27 
REMARK   11  A    between atoms: C_27  and  C_28 
REMARK   12  A    between atoms: C_32  and  O_33 
REMARK   13  A    between atoms: O_33  and  C_34 
REMARK   14  A    between atoms: C_34  and  C_35 
ROOT
HETATM    1  C   UNL     1     -43.065  59.679 -53.833  1.00  0.00     0.161 C 
HETATM    2  N   UNL     1     -44.289  60.108 -53.158  1.00  0.00    -0.333 N 
HETATM    3  C   UNL     1     -44.062  60.289 -51.806  1.00  0.00     0.278 C 
HETATM    4  O   UNL     1     -44.828  60.740 -50.973  1.00  0.00    -0.265 OA
HETATM    5  C   UNL     1     -42.715  59.776 -51.503  1.00  0.00     0.146 C 
HETATM    6  C   UNL     1     -42.170  59.397 -52.665  1.00  0.00     0.059 C 
ENDROOT
BRANCH   6   7
HETATM    7  C   UNL     1     -40.923  58.615 -52.722  1.00  0.00     0.193 C 
HETATM    8  O   UNL     1     -39.841  59.157 -52.519  1.00  0.00    -0.287 OA
BRANCH   7   9
HETATM    9  C   UNL     1     -40.980  57.142 -52.894  1.00  0.00     0.015 A 
HETATM   10  C   UNL     1     -41.490  56.386 -51.832  1.00  0.00     0.025 A 
HETATM   11  C   UNL     1     -41.566  54.989 -51.918  1.00  0.00    -0.028 A 
HETATM   12  C   UNL     1     -42.108  54.201 -50.755  1.00  0.00     0.051 C 
HETATM   13  C   UNL     1     -41.134  54.342 -53.088  1.00  0.00     0.074 A 
HETATM   14  C   UNL     1     -40.609  55.098 -54.142  1.00  0.00     0.038 A 
HETATM   15  C   UNL     1     -40.521  56.493 -54.043  1.00  0.00     0.018 A 
BRANCH  13  16
HETATM   16  O   UNL     1     -41.267  52.982 -53.081  1.00  0.00    -0.350 OA
BRANCH  16  17
HETATM   17  C   UNL     1     -40.831  52.243 -54.219  1.00  0.00     0.179 C 
BRANCH  17  18
HETATM   18  C   UNL     1     -39.664  51.328 -53.814  1.00  0.00     0.002 C 
HETATM   19  C   UNL     1     -39.484  51.302 -52.294  1.00  0.00     0.011 C 
HETATM   20  C   UNL     1     -39.859  49.903 -54.338  1.00  0.00     0.011 C 
ENDBRANCH  17  18
ENDBRANCH  16  17
ENDBRANCH  13  16
ENDBRANCH   7   9
ENDBRANCH   6   7
BRANCH   1  21
HETATM   21  C   UNL     1     -43.260  58.522 -54.787  1.00  0.00    -0.028 A 
HETATM   22  C   UNL     1     -43.970  57.366 -54.419  1.00  0.00     0.012 A 
HETATM   23  C   UNL     1     -44.095  56.301 -55.310  1.00  0.00     0.040 A 
HETATM   24  C   UNL     1     -43.481  56.373 -56.554  1.00  0.00     0.099 A 
HETATM   25  C   UNL     1     -42.730  57.487 -56.932  1.00  0.00     0.102 A 
HETATM   26  C   UNL     1     -42.650  58.572 -56.058  1.00  0.00     0.049 A 
BRANCH  24  27
HETATM   27  O   UNL     1     -43.606  55.305 -57.397  1.00  0.00    -0.358 OA
HETATM   28  H   UNL     1     -43.091  54.584 -56.984  1.00  0.00     0.218 HD
ENDBRANCH  24  27
BRANCH  25  29
HETATM   29  O   UNL     1     -42.130  57.409 -58.161  1.00  0.00    -0.349 OA
BRANCH  29  30
HETATM   30  C   UNL     1     -41.936  58.650 -58.845  1.00  0.00     0.171 C 
HETATM   31  C   UNL     1     -42.054  58.401 -60.337  1.00  0.00     0.034 C 
ENDBRANCH  29  30
ENDBRANCH  25  29
ENDBRANCH   1  21
BRANCH   5  32
HETATM   32  O   UNL     1     -42.209  59.691 -50.244  1.00  0.00    -0.355 OA
HETATM   33  H   UNL     1     -42.622  58.917 -49.815  1.00  0.00     0.218 HD
ENDBRANCH   5  32
BRANCH   2  34
HETATM   34  C   UNL     1     -45.426  60.704 -53.847  1.00  0.00     0.129 C 
BRANCH  34  35
HETATM   35  C   UNL     1     -45.099  61.307 -55.214  1.00  0.00     0.048 C 
BRANCH  35  36
HETATM   36  C   UNL     1     -46.235  61.394 -56.237  1.00  0.00     0.236 C 
BRANCH  36  37
HETATM   37  N   UNL     1     -46.231  60.375 -57.355  1.00  0.00    -0.067 N 
HETATM   38  H   UNL     1     -47.129  60.531 -57.833  1.00  0.00     0.280 HD
HETATM   39  C   UNL     1     -45.189  60.604 -58.443  1.00  0.00     0.261 C 
HETATM   40  C   UNL     1     -45.438  59.630 -59.603  1.00  0.00     0.195 C 
HETATM   41  O   UNL     1     -45.438  58.271 -59.149  1.00  0.00    -0.388 OA
HETATM   42  C   UNL     1     -46.459  58.033 -58.174  1.00  0.00     0.195 C 
HETATM   43  C   UNL     1     -46.247  58.912 -56.935  1.00  0.00     0.261 C 
ENDBRANCH  36  37
ENDBRANCH  35  36
ENDBRANCH  34  35
ENDBRANCH   2  34
TORSDOF 14
ENDMDL
MODEL 5
REMARK VINA RESULT:      -7.3      2.742      5.723
REMARK  14 active torsions:
REMARK  status: ('A' for Active; 'I' for Inactive)
REMARK    1  A    between atoms: C_2  and  O_3 
REMARK    2  A    between atoms: O_3  and  C_4 
REMARK    3  A    between atoms: C_5  and  O_6 
REMARK    4  A    between atoms: C_9  and  C_10 
REMARK    5  A    between atoms: N_11  and  C_12 
REMARK    6  A    between atoms: C_12  and  C_13 
REMARK    7  A    between atoms: C_13  and  C_14 
REMARK    8  A    between atoms: C_14  and  N_15 
REMARK    9  A    between atoms: C_24  and  O_25 
REMARK   10  A    between atoms: C_26  and  C_27 
REMARK   11  A    between atoms: C_27  and  C_28 
REMARK   12  A    between atoms: C_32  and  O_33 
REMARK   13  A    between atoms: O_33  and  C_34 
REMARK   14  A    between atoms: C_34  and  C_35 
ROOT
HETATM    1  C   UNL     1     -42.675  60.229 -53.309  1.00  0.00     0.161 C 
HETATM    2  N   UNL     1     -43.769  60.674 -52.447  1.00  0.00    -0.333 N 
HETATM    3  C   UNL     1     -43.397  60.611 -51.116  1.00  0.00     0.278 C 
HETATM    4  O   UNL     1     -44.021  61.004 -50.147  1.00  0.00    -0.265 OA
HETATM    5  C   UNL     1     -42.102  59.914 -51.043  1.00  0.00     0.146 C 
HETATM    6  C   UNL     1     -41.718  59.670 -52.301  1.00  0.00     0.059 C 
ENDROOT
BRANCH   6   7
HETATM    7  C   UNL     1     -40.588  58.776 -52.612  1.00  0.00     0.193 C 
HETATM    8  O   UNL     1     -39.437  59.200 -52.580  1.00  0.00    -0.287 OA
BRANCH   7   9
HETATM    9  C   UNL     1     -40.827  57.329 -52.832  1.00  0.00     0.015 A 
HETATM   10  C   UNL     1     -41.234  56.564 -51.732  1.00  0.00     0.025 A 
HETATM   11  C   UNL     1     -41.470  55.189 -51.862  1.00  0.00    -0.028 A 
HETATM   12  C   UNL     1     -41.896  54.391 -50.659  1.00  0.00     0.051 C 
HETATM   13  C   UNL     1     -41.305  54.573 -53.114  1.00  0.00     0.074 A 
HETATM   14  C   UNL     1     -40.882  55.334 -54.209  1.00  0.00     0.038 A 
HETATM   15  C   UNL     1     -40.632  56.707 -54.068  1.00  0.00     0.018 A 
BRANCH  13  16
HETATM   16  O   UNL     1     -41.578  53.234 -53.142  1.00  0.00    -0.350 OA
BRANCH  16  17
HETATM   17  C   UNL     1     -41.131  52.465 -54.255  1.00  0.00     0.179 C 
BRANCH  17  18
HETATM   18  C   UNL     1     -39.879  51.668 -53.853  1.00  0.00     0.002 C 
HETATM   19  C   UNL     1     -39.671  51.695 -52.337  1.00  0.00     0.011 C 
HETATM   20  C   UNL     1     -39.955  50.219 -54.340  1.00  0.00     0.011 C 
ENDBRANCH  17  18
ENDBRANCH  16  17
ENDBRANCH  13  16
ENDBRANCH   7   9
ENDBRANCH   6   7
BRANCH   1  21
HETATM   21  C   UNL     1     -43.099  59.267 -54.396  1.00  0.00    -0.028 A 
HETATM   22  C   UNL     1     -43.987  58.206 -54.145  1.00  0.00     0.012 A 
HETATM   23  C   UNL     1     -44.324  57.314 -55.162  1.00  0.00     0.040 A 
HETATM   24  C   UNL     1     -43.747  57.457 -56.418  1.00  0.00     0.099 A 
HETATM   25  C   UNL     1     -42.827  58.470 -56.686  1.00  0.00     0.102 A 
HETATM   26  C   UNL     1     -42.532  59.393 -55.681  1.00  0.00     0.049 A 
BRANCH  24  27
HETATM   27  O   UNL     1     -44.084  56.554 -57.387  1.00  0.00    -0.358 OA
HETATM   28  H   UNL     1     -44.448  57.084 -58.124  1.00  0.00     0.218 HD
ENDBRANCH  24  27
BRANCH  25  29
HETATM   29  O   UNL     1     -42.290  58.467 -57.947  1.00  0.00    -0.349 OA
BRANCH  29  30
HETATM   30  C   UNL     1     -42.237  59.733 -58.610  1.00  0.00     0.171 C 
HETATM   31  C   UNL     1     -42.128  59.490 -60.104  1.00  0.00     0.034 C 
ENDBRANCH  29  30
ENDBRANCH  25  29
ENDBRANCH   1  21
BRANCH   5  32
HETATM   32  O   UNL     1     -41.495  59.575 -49.874  1.00  0.00    -0.355 OA
HETATM   33  H   UNL     1     -42.081  58.943 -49.414  1.00  0.00     0.218 HD
ENDBRANCH   5  32
BRANCH   2  34
HETATM   34  C   UNL     1     -44.882  61.491 -52.910  1.00  0.00     0.129 C 
BRANCH  34  35
HETATM   35  C   UNL     1     -46.255  60.827 -52.789  1.00  0.00     0.048 C 
BRANCH  35  36
HETATM   36  C   UNL     1     -47.451  61.731 -52.476  1.00  0.00     0.236 C 
BRANCH  36  37
HETATM   37  N   UNL     1     -48.514  61.855 -53.544  1.00  0.00    -0.067 N 
HETATM   38  H   UNL     1     -48.599  60.899 -53.918  1.00  0.00     0.280 HD
HETATM   39  C   UNL     1     -49.915  62.179 -53.037  1.00  0.00     0.261 C 
HETATM   40  C   UNL     1     -50.917  62.065 -54.195  1.00  0.00     0.195 C 
HETATM   41  O   UNL     1     -50.543  62.909 -55.290  1.00  0.00    -0.388 OA
HETATM   42  C   UNL     1     -49.255  62.566 -55.814  1.00  0.00     0.195 C 
HETATM   43  C   UNL     1     -48.169  62.726 -54.743  1.00  0.00     0.261 C 
ENDBRANCH  36  37
ENDBRANCH  35  36
ENDBRANCH  34  35
ENDBRANCH   2  34
TORSDOF 14
ENDMDL
MODEL 6
REMARK VINA RESULT:      -7.2      2.728      6.778
REMARK  14 active torsions:
REMARK  status: ('A' for Active; 'I' for Inactive)
REMARK    1  A    between atoms: C_2  and  O_3 
REMARK    2  A    between atoms: O_3  and  C_4 
REMARK    3  A    between atoms: C_5  and  O_6 
REMARK    4  A    between atoms: C_9  and  C_10 
REMARK    5  A    between atoms: N_11  and  C_12 
REMARK    6  A    between atoms: C_12  and  C_13 
REMARK    7  A    between atoms: C_13  and  C_14 
REMARK    8  A    between atoms: C_14  and  N_15 
REMARK    9  A    between atoms: C_24  and  O_25 
REMARK   10  A    between atoms: C_26  and  C_27 
REMARK   11  A    between atoms: C_27  and  C_28 
REMARK   12  A    between atoms: C_32  and  O_33 
REMARK   13  A    between atoms: O_33  and  C_34 
REMARK   14  A    between atoms: C_34  and  C_35 
ROOT
HETATM    1  C   UNL     1     -42.876  60.100 -53.202  1.00  0.00     0.161 C 
HETATM    2  N   UNL     1     -43.976  60.455 -52.306  1.00  0.00    -0.333 N 
HETATM    3  C   UNL     1     -43.581  60.348 -50.985  1.00  0.00     0.278 C 
HETATM    4  O   UNL     1     -44.207  60.666 -49.990  1.00  0.00    -0.265 OA
HETATM    5  C   UNL     1     -42.255  59.707 -50.961  1.00  0.00     0.146 C 
HETATM    6  C   UNL     1     -41.880  59.539 -52.234  1.00  0.00     0.059 C 
ENDROOT
BRANCH   6   7
HETATM    7  C   UNL     1     -40.715  58.713 -52.601  1.00  0.00     0.193 C 
HETATM    8  O   UNL     1     -39.579  59.166 -52.502  1.00  0.00    -0.287 OA
BRANCH   7   9
HETATM    9  C   UNL     1     -40.904  57.287 -52.963  1.00  0.00     0.015 A 
HETATM   10  C   UNL     1     -41.404  56.428 -51.977  1.00  0.00     0.025 A 
HETATM   11  C   UNL     1     -41.599  55.066 -52.243  1.00  0.00    -0.028 A 
HETATM   12  C   UNL     1     -42.128  54.165 -51.159  1.00  0.00     0.051 C 
HETATM   13  C   UNL     1     -41.299  54.560 -53.518  1.00  0.00     0.074 A 
HETATM   14  C   UNL     1     -40.784  55.415 -54.498  1.00  0.00     0.038 A 
HETATM   15  C   UNL     1     -40.575  56.773 -54.220  1.00  0.00     0.018 A 
BRANCH  13  16
HETATM   16  O   UNL     1     -41.542  53.225 -53.684  1.00  0.00    -0.350 OA
BRANCH  16  17
HETATM   17  C   UNL     1     -40.573  52.428 -54.360  1.00  0.00     0.179 C 
BRANCH  17  18
HETATM   18  C   UNL     1     -40.222  51.209 -53.491  1.00  0.00     0.002 C 
HETATM   19  C   UNL     1     -39.480  50.146 -54.306  1.00  0.00     0.011 C 
HETATM   20  C   UNL     1     -39.386  51.608 -52.274  1.00  0.00     0.011 C 
ENDBRANCH  17  18
ENDBRANCH  16  17
ENDBRANCH  13  16
ENDBRANCH   7   9
ENDBRANCH   6   7
BRANCH   1  21
HETATM   21  C   UNL     1     -43.273  59.171 -54.327  1.00  0.00    -0.028 A 
HETATM   22  C   UNL     1     -44.150  58.092 -54.126  1.00  0.00     0.012 A 
HETATM   23  C   UNL     1     -44.463  57.230 -55.177  1.00  0.00     0.040 A 
HETATM   24  C   UNL     1     -43.871  57.424 -56.419  1.00  0.00     0.099 A 
HETATM   25  C   UNL     1     -42.960  58.457 -56.639  1.00  0.00     0.102 A 
HETATM   26  C   UNL     1     -42.690  59.348 -55.600  1.00  0.00     0.049 A 
BRANCH  24  27
HETATM   27  O   UNL     1     -44.182  56.551 -57.423  1.00  0.00    -0.358 OA
HETATM   28  H   UNL     1     -43.360  56.442 -57.941  1.00  0.00     0.218 HD
ENDBRANCH  24  27
BRANCH  25  29
HETATM   29  O   UNL     1     -42.405  58.503 -57.892  1.00  0.00    -0.349 OA
BRANCH  29  30
HETATM   30  C   UNL     1     -42.770  59.627 -58.699  1.00  0.00     0.171 C 
HETATM   31  C   UNL     1     -42.152  59.453 -60.074  1.00  0.00     0.034 C 
ENDBRANCH  29  30
ENDBRANCH  25  29
ENDBRANCH   1  21
BRANCH   5  32
HETATM   32  O   UNL     1     -41.616  59.342 -49.818  1.00  0.00    -0.355 OA
HETATM   33  H   UNL     1     -41.816  58.399 -49.660  1.00  0.00     0.218 HD
ENDBRANCH   5  32
BRANCH   2  34
HETATM   34  C   UNL     1     -45.131  61.241 -52.716  1.00  0.00     0.129 C 
BRANCH  34  35
HETATM   35  C   UNL     1     -44.948  62.755 -52.593  1.00  0.00     0.048 C 
BRANCH  35  36
HETATM   36  C   UNL     1     -45.919  63.511 -51.681  1.00  0.00     0.236 C 
BRANCH  36  37
HETATM   37  N   UNL     1     -45.814  63.242 -50.196  1.00  0.00    -0.067 N 
HETATM   38  H   UNL     1     -45.369  62.314 -50.146  1.00  0.00     0.280 HD
HETATM   39  C   UNL     1     -44.859  64.152 -49.433  1.00  0.00     0.261 C 
HETATM   40  C   UNL     1     -44.696  63.633 -47.997  1.00  0.00     0.195 C 
HETATM   41  O   UNL     1     -45.962  63.523 -47.338  1.00  0.00    -0.388 OA
HETATM   42  C   UNL     1     -46.842  62.618 -48.014  1.00  0.00     0.195 C 
HETATM   43  C   UNL     1     -47.128  63.098 -49.442  1.00  0.00     0.261 C 
ENDBRANCH  36  37
ENDBRANCH  35  36
ENDBRANCH  34  35
ENDBRANCH   2  34
TORSDOF 14
ENDMDL
MODEL 7
REMARK VINA RESULT:      -7.1      2.109      4.708
REMARK  14 active torsions:
REMARK  status: ('A' for Active; 'I' for Inactive)
REMARK    1  A    between atoms: C_2  and  O_3 
REMARK    2  A    between atoms: O_3  and  C_4 
REMARK    3  A    between atoms: C_5  and  O_6 
REMARK    4  A    between atoms: C_9  and  C_10 
REMARK    5  A    between atoms: N_11  and  C_12 
REMARK    6  A    between atoms: C_12  and  C_13 
REMARK    7  A    between atoms: C_13  and  C_14 
REMARK    8  A    between atoms: C_14  and  N_15 
REMARK    9  A    between atoms: C_24  and  O_25 
REMARK   10  A    between atoms: C_26  and  C_27 
REMARK   11  A    between atoms: C_27  and  C_28 
REMARK   12  A    between atoms: C_32  and  O_33 
REMARK   13  A    between atoms: O_33  and  C_34 
REMARK   14  A    between atoms: C_34  and  C_35 
ROOT
HETATM    1  C   UNL     1     -43.506  58.507 -56.062  1.00  0.00     0.161 C 
HETATM    2  N   UNL     1     -42.729  59.687 -56.442  1.00  0.00    -0.333 N 
HETATM    3  C   UNL     1     -42.014  59.445 -57.601  1.00  0.00     0.278 C 
HETATM    4  O   UNL     1     -41.352  60.235 -58.249  1.00  0.00    -0.265 OA
HETATM    5  C   UNL     1     -42.133  58.010 -57.913  1.00  0.00     0.146 C 
HETATM    6  C   UNL     1     -42.959  57.480 -57.005  1.00  0.00     0.059 C 
ENDROOT
BRANCH   6   7
HETATM    7  C   UNL     1     -43.125  56.023 -56.858  1.00  0.00     0.193 C 
HETATM    8  O   UNL     1     -43.765  55.386 -57.689  1.00  0.00    -0.287 OA
BRANCH   7   9
HETATM    9  C   UNL     1     -42.406  55.301 -55.780  1.00  0.00     0.015 A 
HETATM   10  C   UNL     1     -43.138  54.942 -54.642  1.00  0.00     0.025 A 
HETATM   11  C   UNL     1     -42.525  54.266 -53.578  1.00  0.00    -0.028 A 
HETATM   12  C   UNL     1     -43.335  53.902 -52.362  1.00  0.00     0.051 C 
HETATM   13  C   UNL     1     -41.162  53.936 -53.661  1.00  0.00     0.074 A 
HETATM   14  C   UNL     1     -40.428  54.310 -54.791  1.00  0.00     0.038 A 
HETATM   15  C   UNL     1     -41.043  55.000 -55.845  1.00  0.00     0.018 A 
BRANCH  13  16
HETATM   16  O   UNL     1     -40.662  53.261 -52.583  1.00  0.00    -0.350 OA
BRANCH  16  17
HETATM   17  C   UNL     1     -39.884  52.088 -52.807  1.00  0.00     0.179 C 
BRANCH  17  18
HETATM   18  C   UNL     1     -39.490  51.474 -51.453  1.00  0.00     0.002 C 
HETATM   19  C   UNL     1     -40.336  52.053 -50.317  1.00  0.00     0.011 C 
HETATM   20  C   UNL     1     -39.619  49.949 -51.470  1.00  0.00     0.011 C 
ENDBRANCH  17  18
ENDBRANCH  16  17
ENDBRANCH  13  16
ENDBRANCH   7   9
ENDBRANCH   6   7
BRANCH   1  21
HETATM   21  C   UNL     1     -43.408  58.152 -54.596  1.00  0.00    -0.028 A 
HETATM   22  C   UNL     1     -44.543  57.828 -53.831  1.00  0.00     0.012 A 
HETATM   23  C   UNL     1     -44.421  57.545 -52.471  1.00  0.00     0.040 A 
HETATM   24  C   UNL     1     -43.173  57.623 -51.866  1.00  0.00     0.099 A 
HETATM   25  C   UNL     1     -42.035  57.987 -52.586  1.00  0.00     0.102 A 
HETATM   26  C   UNL     1     -42.152  58.218 -53.957  1.00  0.00     0.049 A 
BRANCH  24  27
HETATM   27  O   UNL     1     -43.090  57.359 -50.528  1.00  0.00    -0.358 OA
HETATM   28  H   UNL     1     -43.596  56.533 -50.391  1.00  0.00     0.218 HD
ENDBRANCH  24  27
BRANCH  25  29
HETATM   29  O   UNL     1     -40.877  58.081 -51.859  1.00  0.00    -0.349 OA
BRANCH  29  30
HETATM   30  C   UNL     1     -40.582  59.370 -51.313  1.00  0.00     0.171 C 
HETATM   31  C   UNL     1     -39.157  59.357 -50.791  1.00  0.00     0.034 C 
ENDBRANCH  29  30
ENDBRANCH  25  29
ENDBRANCH   1  21
BRANCH   5  32
HETATM   32  O   UNL     1     -41.457  57.402 -58.925  1.00  0.00    -0.355 OA
HETATM   33  H   UNL     1     -42.103  56.868 -59.427  1.00  0.00     0.218 HD
ENDBRANCH   5  32
BRANCH   2  34
HETATM   34  C   UNL     1     -43.016  61.033 -55.967  1.00  0.00     0.129 C 
BRANCH  34  35
HETATM   35  C   UNL     1     -44.505  61.350 -55.812  1.00  0.00     0.048 C 
BRANCH  35  36
HETATM   36  C   UNL     1     -44.925  62.184 -54.598  1.00  0.00     0.236 C 
BRANCH  36  37
HETATM   37  N   UNL     1     -45.093  61.448 -53.287  1.00  0.00    -0.067 N 
HETATM   38  H   UNL     1     -44.786  60.489 -53.502  1.00  0.00     0.280 HD
HETATM   39  C   UNL     1     -44.160  61.891 -52.165  1.00  0.00     0.261 C 
HETATM   40  C   UNL     1     -44.295  60.928 -50.977  1.00  0.00     0.195 C 
HETATM   41  O   UNL     1     -45.654  60.841 -50.532  1.00  0.00    -0.388 OA
HETATM   42  C   UNL     1     -46.525  60.361 -51.562  1.00  0.00     0.195 C 
HETATM   43  C   UNL     1     -46.517  61.308 -52.769  1.00  0.00     0.261 C 
ENDBRANCH  36  37
ENDBRANCH  35  36
ENDBRANCH  34  35
ENDBRANCH   2  34
TORSDOF 14
ENDMDL
MODEL 8
REMARK VINA RESULT:      -7.0      2.092      3.631
REMARK  14 active torsions:
REMARK  status: ('A' for Active; 'I' for Inactive)
REMARK    1  A    between atoms: C_2  and  O_3 
REMARK    2  A    between atoms: O_3  and  C_4 
REMARK    3  A    between atoms: C_5  and  O_6 
REMARK    4  A    between atoms: C_9  and  C_10 
REMARK    5  A    between atoms: N_11  and  C_12 
REMARK    6  A    between atoms: C_12  and  C_13 
REMARK    7  A    between atoms: C_13  and  C_14 
REMARK    8  A    between atoms: C_14  and  N_15 
REMARK    9  A    between atoms: C_24  and  O_25 
REMARK   10  A    between atoms: C_26  and  C_27 
REMARK   11  A    between atoms: C_27  and  C_28 
REMARK   12  A    between atoms: C_32  and  O_33 
REMARK   13  A    between atoms: O_33  and  C_34 
REMARK   14  A    between atoms: C_34  and  C_35 
ROOT
HETATM    1  C   UNL     1     -43.055  58.403 -55.251  1.00  0.00     0.161 C 
HETATM    2  N   UNL     1     -42.389  58.745 -56.508  1.00  0.00    -0.333 N 
HETATM    3  C   UNL     1     -42.518  57.715 -57.423  1.00  0.00     0.278 C 
HETATM    4  O   UNL     1     -42.179  57.708 -58.593  1.00  0.00    -0.265 OA
HETATM    5  C   UNL     1     -43.099  56.559 -56.720  1.00  0.00     0.146 C 
HETATM    6  C   UNL     1     -43.368  56.955 -55.471  1.00  0.00     0.059 C 
ENDROOT
BRANCH   6   7
HETATM    7  C   UNL     1     -43.735  55.998 -54.412  1.00  0.00     0.193 C 
HETATM    8  O   UNL     1     -44.915  55.777 -54.159  1.00  0.00    -0.287 OA
BRANCH   7   9
HETATM    9  C   UNL     1     -42.682  55.198 -53.739  1.00  0.00     0.015 A 
HETATM   10  C   UNL     1     -42.719  55.124 -52.342  1.00  0.00     0.025 A 
HETATM   11  C   UNL     1     -41.752  54.395 -51.637  1.00  0.00    -0.028 A 
HETATM   12  C   UNL     1     -41.810  54.342 -50.133  1.00  0.00     0.051 C 
HETATM   13  C   UNL     1     -40.740  53.722 -52.342  1.00  0.00     0.074 A 
HETATM   14  C   UNL     1     -40.695  53.810 -53.738  1.00  0.00     0.038 A 
HETATM   15  C   UNL     1     -41.656  54.554 -54.436  1.00  0.00     0.018 A 
BRANCH  13  16
HETATM   16  O   UNL     1     -39.859  53.023 -51.566  1.00  0.00    -0.350 OA
BRANCH  16  17
HETATM   17  C   UNL     1     -39.092  51.981 -52.165  1.00  0.00     0.179 C 
BRANCH  17  18
HETATM   18  C   UNL     1     -39.906  50.676 -52.144  1.00  0.00     0.002 C 
HETATM   19  C   UNL     1     -39.699  49.877 -53.433  1.00  0.00     0.011 C 
HETATM   20  C   UNL     1     -39.549  49.811 -50.934  1.00  0.00     0.011 C 
ENDBRANCH  17  18
ENDBRANCH  16  17
ENDBRANCH  13  16
ENDBRANCH   7   9
ENDBRANCH   6   7
BRANCH   1  21
HETATM   21  C   UNL     1     -42.234  58.704 -54.018  1.00  0.00    -0.028 A 
HETATM   22  C   UNL     1     -40.890  58.308 -53.904  1.00  0.00     0.012 A 
HETATM   23  C   UNL     1     -40.175  58.566 -52.735  1.00  0.00     0.040 A 
HETATM   24  C   UNL     1     -40.811  59.184 -51.666  1.00  0.00     0.099 A 
HETATM   25  C   UNL     1     -42.156  59.548 -51.730  1.00  0.00     0.102 A 
HETATM   26  C   UNL     1     -42.854  59.336 -52.920  1.00  0.00     0.049 A 
BRANCH  24  27
HETATM   27  O   UNL     1     -40.088  59.406 -50.528  1.00  0.00    -0.358 OA
HETATM   28  H   UNL     1     -40.128  58.568 -50.025  1.00  0.00     0.218 HD
ENDBRANCH  24  27
BRANCH  25  29
HETATM   29  O   UNL     1     -42.678  60.098 -50.588  1.00  0.00    -0.349 OA
BRANCH  29  30
HETATM   30  C   UNL     1     -44.020  60.586 -50.683  1.00  0.00     0.171 C 
HETATM   31  C   UNL     1     -44.164  61.779 -49.757  1.00  0.00     0.034 C 
ENDBRANCH  29  30
ENDBRANCH  25  29
ENDBRANCH   1  21
BRANCH   5  32
HETATM   32  O   UNL     1     -43.257  55.334 -57.291  1.00  0.00    -0.355 OA
HETATM   33  H   UNL     1     -44.121  54.985 -56.998  1.00  0.00     0.218 HD
ENDBRANCH   5  32
BRANCH   2  34
HETATM   34  C   UNL     1     -42.061  60.107 -56.905  1.00  0.00     0.129 C 
BRANCH  34  35
HETATM   35  C   UNL     1     -43.262  61.050 -57.000  1.00  0.00     0.048 C 
BRANCH  35  36
HETATM   36  C   UNL     1     -44.167  60.917 -58.228  1.00  0.00     0.236 C 
BRANCH  36  37
HETATM   37  N   UNL     1     -44.928  59.619 -58.381  1.00  0.00    -0.067 N 
HETATM   38  H   UNL     1     -44.288  58.913 -57.991  1.00  0.00     0.280 HD
HETATM   39  C   UNL     1     -46.183  59.493 -57.525  1.00  0.00     0.261 C 
HETATM   40  C   UNL     1     -46.727  58.060 -57.623  1.00  0.00     0.195 C 
HETATM   41  O   UNL     1     -46.976  57.691 -58.984  1.00  0.00    -0.388 OA
HETATM   42  C   UNL     1     -45.786  57.744 -59.780  1.00  0.00     0.195 C 
HETATM   43  C   UNL     1     -45.209  59.165 -59.806  1.00  0.00     0.261 C 
ENDBRANCH  36  37
ENDBRANCH  35  36
ENDBRANCH  34  35
ENDBRANCH   2  34
TORSDOF 14
ENDMDL
MODEL 9
REMARK VINA RESULT:      -6.9      2.823      7.460
REMARK  14 active torsions:
REMARK  status: ('A' for Active; 'I' for Inactive)
REMARK    1  A    between atoms: C_2  and  O_3 
REMARK    2  A    between atoms: O_3  and  C_4 
REMARK    3  A    between atoms: C_5  and  O_6 
REMARK    4  A    between atoms: C_9  and  C_10 
REMARK    5  A    between atoms: N_11  and  C_12 
REMARK    6  A    between atoms: C_12  and  C_13 
REMARK    7  A    between atoms: C_13  and  C_14 
REMARK    8  A    between atoms: C_14  and  N_15 
REMARK    9  A    between atoms: C_24  and  O_25 
REMARK   10  A    between atoms: C_26  and  C_27 
REMARK   11  A    between atoms: C_27  and  C_28 
REMARK   12  A    between atoms: C_32  and  O_33 
REMARK   13  A    between atoms: O_33  and  C_34 
REMARK   14  A    between atoms: C_34  and  C_35 
ROOT
HETATM    1  C   UNL     1     -41.850  56.579 -54.920  1.00  0.00     0.161 C 
HETATM    2  N   UNL     1     -42.471  55.254 -54.888  1.00  0.00    -0.333 N 
HETATM    3  C   UNL     1     -43.125  54.995 -56.079  1.00  0.00     0.278 C 
HETATM    4  O   UNL     1     -43.654  53.955 -56.430  1.00  0.00    -0.265 OA
HETATM    5  C   UNL     1     -43.136  56.239 -56.868  1.00  0.00     0.146 C 
HETATM    6  C   UNL     1     -42.435  57.145 -56.177  1.00  0.00     0.059 C 
ENDROOT
BRANCH   6   7
HETATM    7  C   UNL     1     -42.435  58.573 -56.543  1.00  0.00     0.193 C 
HETATM    8  O   UNL     1     -41.737  58.975 -57.469  1.00  0.00    -0.287 OA
BRANCH   7   9
HETATM    9  C   UNL     1     -43.378  59.507 -55.881  1.00  0.00     0.015 A 
HETATM   10  C   UNL     1     -42.832  60.534 -55.102  1.00  0.00     0.025 A 
HETATM   11  C   UNL     1     -43.661  61.449 -54.439  1.00  0.00    -0.028 A 
HETATM   12  C   UNL     1     -43.046  62.537 -53.599  1.00  0.00     0.051 C 
HETATM   13  C   UNL     1     -45.056  61.340 -54.567  1.00  0.00     0.074 A 
HETATM   14  C   UNL     1     -45.600  60.303 -55.332  1.00  0.00     0.038 A 
HETATM   15  C   UNL     1     -44.766  59.381 -55.980  1.00  0.00     0.018 A 
BRANCH  13  16
HETATM   16  O   UNL     1     -45.776  62.290 -53.899  1.00  0.00    -0.350 OA
BRANCH  16  17
HETATM   17  C   UNL     1     -47.023  61.923 -53.315  1.00  0.00     0.179 C 
BRANCH  17  18
HETATM   18  C   UNL     1     -46.852  61.785 -51.794  1.00  0.00     0.002 C 
HETATM   19  C   UNL     1     -46.343  60.391 -51.420  1.00  0.00     0.011 C 
HETATM   20  C   UNL     1     -45.905  62.850 -51.237  1.00  0.00     0.011 C 
ENDBRANCH  17  18
ENDBRANCH  16  17
ENDBRANCH  13  16
ENDBRANCH   7   9
ENDBRANCH   6   7
BRANCH   1  21
HETATM   21  C   UNL     1     -42.087  57.400 -53.673  1.00  0.00    -0.028 A 
HETATM   22  C   UNL     1     -43.355  57.494 -53.074  1.00  0.00     0.012 A 
HETATM   23  C   UNL     1     -43.546  58.294 -51.948  1.00  0.00     0.040 A 
HETATM   24  C   UNL     1     -42.481  59.029 -51.443  1.00  0.00     0.099 A 
HETATM   25  C   UNL     1     -41.222  58.995 -52.042  1.00  0.00     0.102 A 
HETATM   26  C   UNL     1     -41.021  58.153 -53.137  1.00  0.00     0.049 A 
BRANCH  24  27
HETATM   27  O   UNL     1     -42.705  59.819 -50.350  1.00  0.00    -0.358 OA
HETATM   28  H   UNL     1     -42.670  59.217 -49.580  1.00  0.00     0.218 HD
ENDBRANCH  24  27
BRANCH  25  29
HETATM   29  O   UNL     1     -40.274  59.810 -51.480  1.00  0.00    -0.349 OA
BRANCH  29  30
HETATM   30  C   UNL     1     -39.079  59.164 -51.029  1.00  0.00     0.171 C 
HETATM   31  C   UNL     1     -38.475  59.997 -49.914  1.00  0.00     0.034 C 
ENDBRANCH  29  30
ENDBRANCH  25  29
ENDBRANCH   1  21
BRANCH   5  32
HETATM   32  O   UNL     1     -43.800  56.375 -58.047  1.00  0.00    -0.355 OA
HETATM   33  H   UNL     1     -44.297  57.215 -58.007  1.00  0.00     0.218 HD
ENDBRANCH   5  32
BRANCH   2  34
HETATM   34  C   UNL     1     -42.077  54.198 -53.966  1.00  0.00     0.129 C 
BRANCH  34  35
HETATM   35  C   UNL     1     -40.594  54.200 -53.591  1.00  0.00     0.048 C 
BRANCH  35  36
HETATM   36  C   UNL     1     -40.165  53.324 -52.410  1.00  0.00     0.236 C 
BRANCH  36  37
HETATM   37  N   UNL     1     -40.152  51.829 -52.635  1.00  0.00    -0.067 N 
HETATM   38  H   UNL     1     -41.140  51.557 -52.534  1.00  0.00     0.280 HD
HETATM   39  C   UNL     1     -39.789  51.384 -54.047  1.00  0.00     0.261 C 
HETATM   40  C   UNL     1     -40.020  49.872 -54.183  1.00  0.00     0.195 C 
HETATM   41  O   UNL     1     -39.285  49.143 -53.193  1.00  0.00    -0.388 OA
HETATM   42  C   UNL     1     -39.669  49.510 -51.863  1.00  0.00     0.195 C 
HETATM   43  C   UNL     1     -39.399  50.998 -51.606  1.00  0.00     0.261 C 
ENDBRANCH  36  37
ENDBRANCH  35  36
ENDBRANCH  34  35
ENDBRANCH   2  34
TORSDOF 14
ENDMDL
MODEL 10
REMARK VINA RESULT:      -6.9      2.366      4.973
REMARK  14 active torsions:
REMARK  status: ('A' for Active; 'I' for Inactive)
REMARK    1  A    between atoms: C_2  and  O_3 
REMARK    2  A    between atoms: O_3  and  C_4 
REMARK    3  A    between atoms: C_5  and  O_6 
REMARK    4  A    between atoms: C_9  and  C_10 
REMARK    5  A    between atoms: N_11  and  C_12 
REMARK    6  A    between atoms: C_12  and  C_13 
REMARK    7  A    between atoms: C_13  and  C_14 
REMARK    8  A    between atoms: C_14  and  N_15 
REMARK    9  A    between atoms: C_24  and  O_25 
REMARK   10  A    between atoms: C_26  and  C_27 
REMARK   11  A    between atoms: C_27  and  C_28 
REMARK   12  A    between atoms: C_32  and  O_33 
REMARK   13  A    between atoms: O_33  and  C_34 
REMARK   14  A    between atoms: C_34  and  C_35 
ROOT
HETATM    1  C   UNL     1     -43.292  59.747 -52.555  1.00  0.00     0.161 C 
HETATM    2  N   UNL     1     -43.664  61.162 -52.529  1.00  0.00    -0.333 N 
HETATM    3  C   UNL     1     -44.268  61.483 -51.326  1.00  0.00     0.278 C 
HETATM    4  O   UNL     1     -44.603  62.585 -50.930  1.00  0.00    -0.265 OA
HETATM    5  C   UNL     1     -44.508  60.229 -50.593  1.00  0.00     0.146 C 
HETATM    6  C   UNL     1     -43.977  59.242 -51.323  1.00  0.00     0.059 C 
ENDROOT
BRANCH   6   7
HETATM    7  C   UNL     1     -44.236  57.823 -51.019  1.00  0.00     0.193 C 
HETATM    8  O   UNL     1     -45.370  57.447 -50.739  1.00  0.00    -0.287 OA
BRANCH   7   9
HETATM    9  C   UNL     1     -43.154  56.821 -51.182  1.00  0.00     0.015 A 
HETATM   10  C   UNL     1     -43.418  55.708 -51.989  1.00  0.00     0.025 A 
HETATM   11  C   UNL     1     -42.447  54.716 -52.181  1.00  0.00    -0.028 A 
HETATM   12  C   UNL     1     -42.763  53.524 -53.045  1.00  0.00     0.051 C 
HETATM   13  C   UNL     1     -41.191  54.846 -51.565  1.00  0.00     0.074 A 
HETATM   14  C   UNL     1     -40.935  55.951 -50.746  1.00  0.00     0.038 A 
HETATM   15  C   UNL     1     -41.916  56.932 -50.544  1.00  0.00     0.018 A 
BRANCH  13  16
HETATM   16  O   UNL     1     -40.308  53.838 -51.831  1.00  0.00    -0.350 OA
BRANCH  16  17
HETATM   17  C   UNL     1     -40.086  52.840 -50.837  1.00  0.00     0.179 C 
BRANCH  17  18
HETATM   18  C   UNL     1     -39.386  51.631 -51.480  1.00  0.00     0.002 C 
HETATM   19  C   UNL     1     -39.840  50.321 -50.831  1.00  0.00     0.011 C 
HETATM   20  C   UNL     1     -39.632  51.575 -52.989  1.00  0.00     0.011 C 
ENDBRANCH  17  18
ENDBRANCH  16  17
ENDBRANCH  13  16
ENDBRANCH   7   9
ENDBRANCH   6   7
BRANCH   1  21
HETATM   21  C   UNL     1     -43.664  59.036 -53.836  1.00  0.00    -0.028 A 
HETATM   22  C   UNL     1     -44.978  59.042 -54.335  1.00  0.00     0.012 A 
HETATM   23  C   UNL     1     -45.294  58.340 -55.498  1.00  0.00     0.040 A 
HETATM   24  C   UNL     1     -44.308  57.603 -56.142  1.00  0.00     0.099 A 
HETATM   25  C   UNL     1     -43.006  57.540 -55.647  1.00  0.00     0.102 A 
HETATM   26  C   UNL     1     -42.680  58.284 -54.512  1.00  0.00     0.049 A 
BRANCH  24  27
HETATM   27  O   UNL     1     -44.655  56.912 -57.268  1.00  0.00    -0.358 OA
HETATM   28  H   UNL     1     -45.586  56.645 -57.136  1.00  0.00     0.218 HD
ENDBRANCH  24  27
BRANCH  25  29
HETATM   29  O   UNL     1     -42.145  56.733 -56.344  1.00  0.00    -0.349 OA
BRANCH  29  30
HETATM   30  C   UNL     1     -42.064  55.373 -55.904  1.00  0.00     0.171 C 
HETATM   31  C   UNL     1     -40.701  55.151 -55.276  1.00  0.00     0.034 C 
ENDBRANCH  29  30
ENDBRANCH  25  29
ENDBRANCH   1  21
BRANCH   5  32
HETATM   32  O   UNL     1     -45.193  60.164 -49.420  1.00  0.00    -0.355 OA
HETATM   33  H   UNL     1     -45.862  60.876 -49.432  1.00  0.00     0.218 HD
ENDBRANCH   5  32
BRANCH   2  34
HETATM   34  C   UNL     1     -43.080  62.168 -53.404  1.00  0.00     0.129 C 
BRANCH  34  35
HETATM   35  C   UNL     1     -43.984  62.615 -54.555  1.00  0.00     0.048 C 
BRANCH  35  36
HETATM   36  C   UNL     1     -43.325  63.351 -55.724  1.00  0.00     0.236 C 
BRANCH  36  37
HETATM   37  N   UNL     1     -42.412  62.540 -56.617  1.00  0.00    -0.067 N 
HETATM   38  H   UNL     1     -41.582  62.373 -56.032  1.00  0.00     0.280 HD
HETATM   39  C   UNL     1     -42.909  61.141 -56.961  1.00  0.00     0.261 C 
HETATM   40  C   UNL     1     -41.798  60.368 -57.687  1.00  0.00     0.195 C 
HETATM   41  O   UNL     1     -41.352  61.072 -58.852  1.00  0.00    -0.388 OA
HETATM   42  C   UNL     1     -40.823  62.362 -58.528  1.00  0.00     0.195 C 
HETATM   43  C   UNL     1     -41.892  63.240 -57.864  1.00  0.00     0.261 C 
ENDBRANCH  36  37
ENDBRANCH  35  36
ENDBRANCH  34  35
ENDBRANCH   2  34
TORSDOF 14
ENDMDL
