MODEL 1
REMARK VINA RESULT:      -7.8      0.000      0.000
REMARK  6 active torsions:
REMARK  status: ('A' for Active; 'I' for Inactive)
REMARK    1  A    between atoms: C_2  and  O_3 
REMARK    2  A    between atoms: O_3  and  C_4 
REMARK    3  A    between atoms: C_6  and  C_7 
REMARK       I    between atoms: C_7  and  N_8 
REMARK    4  A    between atoms: C_10  and  N_11 
REMARK       I    between atoms: N_11  and  C_12 
REMARK    5  A    between atoms: C_12  and  C_13 
REMARK    6  A    between atoms: N_15  and  C_16 
ROOT
HETATM    1  N   UNL     1     -41.612  56.928 -52.471  1.00  0.00    -0.319 N 
HETATM    2  C   UNL     1     -41.558  56.589 -53.816  1.00  0.00     0.295 C 
HETATM    3  O   UNL     1     -41.915  57.311 -54.742  1.00  0.00    -0.264 OA
HETATM    4  H   UNL     1     -41.143  56.270 -51.848  1.00  0.00     0.169 HD
ENDROOT
BRANCH   1   5
HETATM    5  C   UNL     1     -42.192  58.080 -51.891  1.00  0.00     0.051 A 
HETATM    6  C   UNL     1     -41.382  59.161 -51.490  1.00  0.00     0.061 A 
HETATM    7  C   UNL     1     -41.943  60.268 -50.834  1.00  0.00     0.056 A 
HETATM    8  C   UNL     1     -43.314  60.332 -50.587  1.00  0.00     0.069 A 
HETATM    9  C   UNL     1     -44.122  59.274 -50.991  1.00  0.00     0.039 A 
HETATM   10  C   UNL     1     -43.566  58.161 -51.637  1.00  0.00     0.033 A 
BRANCH   6  11
HETATM   11  C   UNL     1     -39.924  59.230 -51.764  1.00  0.00     0.251 C 
HETATM   12  N   UNL     1     -39.096  59.306 -50.676  1.00  0.00    -0.366 N 
HETATM   13  H   UNL     1     -39.428  59.040 -49.757  1.00  0.00     0.159 HD
HETATM   14  H   UNL     1     -38.110  59.173 -50.866  1.00  0.00     0.159 HD
HETATM   15  O   UNL     1     -39.472  59.167 -52.899  1.00  0.00    -0.268 OA
ENDBRANCH   6  11
BRANCH   8  16
HETATM   16  O   UNL     1     -43.736  61.471 -49.960  1.00  0.00    -0.351 OA
BRANCH  16  17
HETATM   17  C   UNL     1     -45.003  61.422 -49.306  1.00  0.00     0.171 C 
HETATM   18  C   UNL     1     -44.761  61.408 -47.807  1.00  0.00     0.034 C 
ENDBRANCH  16  17
ENDBRANCH   8  16
ENDBRANCH   1   5
BRANCH   2  19
HETATM   19  C   UNL     1     -40.964  55.252 -54.045  1.00  0.00     0.239 A 
HETATM   20  N   UNL     1     -40.727  54.376 -53.046  1.00  0.00    -0.140 NA
HETATM   21  N   UNL     1     -40.278  53.280 -53.714  1.00  0.00    -0.225 N 
HETATM   22  C   UNL     1     -40.162  53.578 -55.047  1.00  0.00     0.237 A 
HETATM   23  N   UNL     1     -40.596  54.791 -55.287  1.00  0.00    -0.216 NA
BRANCH  21  24
HETATM   24  C   UNL     1     -40.019  52.048 -53.059  1.00  0.00     0.059 A 
HETATM   25  C   UNL     1     -39.931  52.015 -51.659  1.00  0.00     0.031 A 
HETATM   26  C   UNL     1     -39.717  50.803 -50.998  1.00  0.00     0.002 A 
HETATM   27  C   UNL     1     -39.583  49.622 -51.727  1.00  0.00     0.000 A 
HETATM   28  C   UNL     1     -39.661  49.649 -53.118  1.00  0.00     0.002 A 
HETATM   29  C   UNL     1     -39.881  50.856 -53.787  1.00  0.00     0.031 A 
ENDBRANCH  21  24
ENDBRANCH   2  19
TORSDOF 6
ENDMDL
MODEL 2
REMARK VINA RESULT:      -7.6     16.134     18.342
REMARK  6 active torsions:
REMARK  status: ('A' for Active; 'I' for Inactive)
REMARK    1  A    between atoms: C_2  and  O_3 
REMARK    2  A    between atoms: O_3  and  C_4 
REMARK    3  A    between atoms: C_6  and  C_7 
REMARK       I    between atoms: C_7  and  N_8 
REMARK    4  A    between atoms: C_10  and  N_11 
REMARK       I    between atoms: N_11  and  C_12 
REMARK    5  A    between atoms: C_12  and  C_13 
REMARK    6  A    between atoms: N_15  and  C_16 
ROOT
HETATM    1  N   UNL     1     -34.860  40.629 -53.134  1.00  0.00    -0.319 N 
HETATM    2  C   UNL     1     -35.669  41.737 -53.337  1.00  0.00     0.295 C 
HETATM    3  O   UNL     1     -35.599  42.788 -52.707  1.00  0.00    -0.264 OA
HETATM    4  H   UNL     1     -34.956  39.897 -53.839  1.00  0.00     0.169 HD
ENDROOT
BRANCH   1   5
HETATM    5  C   UNL     1     -33.908  40.428 -52.108  1.00  0.00     0.051 A 
HETATM    6  C   UNL     1     -32.599  40.011 -52.421  1.00  0.00     0.061 A 
HETATM    7  C   UNL     1     -31.677  39.727 -51.401  1.00  0.00     0.056 A 
HETATM    8  C   UNL     1     -32.029  39.872 -50.060  1.00  0.00     0.069 A 
HETATM    9  C   UNL     1     -33.316  40.293 -49.742  1.00  0.00     0.039 A 
HETATM   10  C   UNL     1     -34.244  40.570 -50.757  1.00  0.00     0.033 A 
BRANCH   6  11
HETATM   11  C   UNL     1     -32.095  39.892 -53.814  1.00  0.00     0.251 C 
HETATM   12  N   UNL     1     -31.462  38.723 -54.140  1.00  0.00    -0.366 N 
HETATM   13  H   UNL     1     -31.587  37.894 -53.572  1.00  0.00     0.159 HD
HETATM   14  H   UNL     1     -31.285  38.582 -55.128  1.00  0.00     0.159 HD
HETATM   15  O   UNL     1     -32.279  40.766 -54.649  1.00  0.00    -0.268 OA
ENDBRANCH   6  11
BRANCH   8  16
HETATM   16  O   UNL     1     -31.036  39.582 -49.167  1.00  0.00    -0.351 OA
BRANCH  16  17
HETATM   17  C   UNL     1     -31.435  39.185 -47.855  1.00  0.00     0.171 C 
HETATM   18  C   UNL     1     -30.577  39.935 -46.853  1.00  0.00     0.034 C 
ENDBRANCH  16  17
ENDBRANCH   8  16
ENDBRANCH   1   5
BRANCH   2  19
HETATM   19  C   UNL     1     -36.623  41.551 -54.455  1.00  0.00     0.239 A 
HETATM   20  N   UNL     1     -36.247  41.578 -55.750  1.00  0.00    -0.140 NA
HETATM   21  N   UNL     1     -37.403  41.279 -56.400  1.00  0.00    -0.225 N 
HETATM   22  C   UNL     1     -38.426  41.196 -55.491  1.00  0.00     0.237 A 
HETATM   23  N   UNL     1     -37.971  41.345 -54.271  1.00  0.00    -0.216 NA
BRANCH  21  24
HETATM   24  C   UNL     1     -37.450  41.072 -57.804  1.00  0.00     0.059 A 
HETATM   25  C   UNL     1     -37.817  39.815 -58.305  1.00  0.00     0.031 A 
HETATM   26  C   UNL     1     -37.908  39.607 -59.683  1.00  0.00     0.002 A 
HETATM   27  C   UNL     1     -37.626  40.648 -60.567  1.00  0.00     0.000 A 
HETATM   28  C   UNL     1     -37.251  41.897 -60.076  1.00  0.00     0.002 A 
HETATM   29  C   UNL     1     -37.165  42.115 -58.699  1.00  0.00     0.031 A 
ENDBRANCH  21  24
ENDBRANCH   2  19
TORSDOF 6
ENDMDL
MODEL 3
REMARK VINA RESULT:      -7.5      1.690      1.910
REMARK  6 active torsions:
REMARK  status: ('A' for Active; 'I' for Inactive)
REMARK    1  A    between atoms: C_2  and  O_3 
REMARK    2  A    between atoms: O_3  and  C_4 
REMARK    3  A    between atoms: C_6  and  C_7 
REMARK       I    between atoms: C_7  and  N_8 
REMARK    4  A    between atoms: C_10  and  N_11 
REMARK       I    between atoms: N_11  and  C_12 
REMARK    5  A    between atoms: C_12  and  C_13 
REMARK    6  A    between atoms: N_15  and  C_16 
ROOT
HETATM    1  N   UNL     1     -42.920  57.207 -52.314  1.00  0.00    -0.319 N 
HETATM    2  C   UNL     1     -41.948  56.499 -51.622  1.00  0.00     0.295 C 
HETATM    3  O   UNL     1     -41.651  56.674 -50.444  1.00  0.00    -0.264 OA
HETATM    4  H   UNL     1     -43.137  56.836 -53.240  1.00  0.00     0.169 HD
ENDROOT
BRANCH   1   5
HETATM    5  C   UNL     1     -43.658  58.328 -51.868  1.00  0.00     0.051 A 
HETATM    6  C   UNL     1     -43.173  59.633 -52.087  1.00  0.00     0.061 A 
HETATM    7  C   UNL     1     -43.858  60.745 -51.570  1.00  0.00     0.056 A 
HETATM    8  C   UNL     1     -45.041  60.583 -50.850  1.00  0.00     0.069 A 
HETATM    9  C   UNL     1     -45.531  59.298 -50.639  1.00  0.00     0.039 A 
HETATM   10  C   UNL     1     -44.847  58.183 -51.145  1.00  0.00     0.033 A 
BRANCH   6  11
HETATM   11  C   UNL     1     -41.964  59.926 -52.899  1.00  0.00     0.251 C 
HETATM   12  N   UNL     1     -42.156  60.634 -54.054  1.00  0.00    -0.366 N 
HETATM   13  H   UNL     1     -43.004  61.169 -54.196  1.00  0.00     0.159 HD
HETATM   14  H   UNL     1     -41.314  60.979 -54.502  1.00  0.00     0.159 HD
HETATM   15  O   UNL     1     -40.842  59.603 -52.534  1.00  0.00    -0.268 OA
ENDBRANCH   6  11
BRANCH   8  16
HETATM   16  O   UNL     1     -45.618  61.744 -50.419  1.00  0.00    -0.351 OA
BRANCH  16  17
HETATM   17  C   UNL     1     -44.766  62.700 -49.789  1.00  0.00     0.171 C 
HETATM   18  C   UNL     1     -44.775  62.429 -48.295  1.00  0.00     0.034 C 
ENDBRANCH  16  17
ENDBRANCH   8  16
ENDBRANCH   1   5
BRANCH   2  19
HETATM   19  C   UNL     1     -41.313  55.445 -52.446  1.00  0.00     0.239 A 
HETATM   20  N   UNL     1     -40.970  54.237 -51.951  1.00  0.00    -0.140 NA
HETATM   21  N   UNL     1     -40.519  53.583 -53.055  1.00  0.00    -0.225 N 
HETATM   22  C   UNL     1     -40.508  54.446 -54.120  1.00  0.00     0.237 A 
HETATM   23  N   UNL     1     -41.009  55.607 -53.778  1.00  0.00    -0.216 NA
BRANCH  21  24
HETATM   24  C   UNL     1     -40.163  52.209 -53.027  1.00  0.00     0.059 A 
HETATM   25  C   UNL     1     -39.813  51.611 -51.808  1.00  0.00     0.031 A 
HETATM   26  C   UNL     1     -39.499  50.250 -51.758  1.00  0.00     0.002 A 
HETATM   27  C   UNL     1     -39.525  49.484 -52.922  1.00  0.00     0.000 A 
HETATM   28  C   UNL     1     -39.864  50.073 -54.138  1.00  0.00     0.002 A 
HETATM   29  C   UNL     1     -40.185  51.432 -54.195  1.00  0.00     0.031 A 
ENDBRANCH  21  24
ENDBRANCH   2  19
TORSDOF 6
ENDMDL
MODEL 4
REMARK VINA RESULT:      -7.5      4.338      8.472
REMARK  6 active torsions:
REMARK  status: ('A' for Active; 'I' for Inactive)
REMARK    1  A    between atoms: C_2  and  O_3 
REMARK    2  A    between atoms: O_3  and  C_4 
REMARK    3  A    between atoms: C_6  and  C_7 
REMARK       I    between atoms: C_7  and  N_8 
REMARK    4  A    between atoms: C_10  and  N_11 
REMARK       I    between atoms: N_11  and  C_12 
REMARK    5  A    between atoms: C_12  and  C_13 
REMARK    6  A    between atoms: N_15  and  C_16 
ROOT
HETATM    1  N   UNL     1     -41.718  55.238 -55.726  1.00  0.00    -0.319 N 
HETATM    2  C   UNL     1     -42.785  55.048 -56.593  1.00  0.00     0.295 C 
HETATM    3  O   UNL     1     -43.610  54.143 -56.510  1.00  0.00    -0.264 OA
HETATM    4  H   UNL     1     -41.219  56.119 -55.855  1.00  0.00     0.169 HD
ENDROOT
BRANCH   1   5
HETATM    5  C   UNL     1     -41.287  54.388 -54.682  1.00  0.00     0.051 A 
HETATM    6  C   UNL     1     -41.720  54.608 -53.359  1.00  0.00     0.061 A 
HETATM    7  C   UNL     1     -41.226  53.820 -52.307  1.00  0.00     0.056 A 
HETATM    8  C   UNL     1     -40.317  52.791 -52.551  1.00  0.00     0.069 A 
HETATM    9  C   UNL     1     -39.894  52.560 -53.856  1.00  0.00     0.039 A 
HETATM   10  C   UNL     1     -40.377  53.350 -54.910  1.00  0.00     0.033 A 
BRANCH   6  11
HETATM   11  C   UNL     1     -42.736  55.628 -52.995  1.00  0.00     0.251 C 
HETATM   12  N   UNL     1     -43.641  55.277 -52.029  1.00  0.00    -0.366 N 
HETATM   13  H   UNL     1     -43.453  54.501 -51.405  1.00  0.00     0.159 HD
HETATM   14  H   UNL     1     -44.209  56.033 -51.665  1.00  0.00     0.159 HD
HETATM   15  O   UNL     1     -42.740  56.747 -53.487  1.00  0.00    -0.268 OA
ENDBRANCH   6  11
BRANCH   8  16
HETATM   16  O   UNL     1     -39.931  52.087 -51.445  1.00  0.00    -0.351 OA
BRANCH  16  17
HETATM   17  C   UNL     1     -39.389  50.784 -51.660  1.00  0.00     0.171 C 
HETATM   18  C   UNL     1     -39.904  49.872 -50.561  1.00  0.00     0.034 C 
ENDBRANCH  16  17
ENDBRANCH   8  16
ENDBRANCH   1   5
BRANCH   2  19
HETATM   19  C   UNL     1     -42.872  56.100 -57.632  1.00  0.00     0.239 A 
HETATM   20  N   UNL     1     -42.407  57.352 -57.446  1.00  0.00    -0.140 NA
HETATM   21  N   UNL     1     -42.611  57.927 -58.661  1.00  0.00    -0.225 N 
HETATM   22  C   UNL     1     -43.278  57.046 -59.473  1.00  0.00     0.237 A 
HETATM   23  N   UNL     1     -43.441  55.896 -58.868  1.00  0.00    -0.216 NA
BRANCH  21  24
HETATM   24  C   UNL     1     -42.148  59.234 -58.968  1.00  0.00     0.059 A 
HETATM   25  C   UNL     1     -41.655  60.051 -57.940  1.00  0.00     0.031 A 
HETATM   26  C   UNL     1     -41.158  61.323 -58.232  1.00  0.00     0.002 A 
HETATM   27  C   UNL     1     -41.157  61.789 -59.546  1.00  0.00     0.000 A 
HETATM   28  C   UNL     1     -41.654  60.986 -60.571  1.00  0.00     0.002 A 
HETATM   29  C   UNL     1     -42.147  59.709 -60.288  1.00  0.00     0.031 A 
ENDBRANCH  21  24
ENDBRANCH   2  19
TORSDOF 6
ENDMDL
MODEL 5
REMARK VINA RESULT:      -7.2      5.291      7.337
REMARK  6 active torsions:
REMARK  status: ('A' for Active; 'I' for Inactive)
REMARK    1  A    between atoms: C_2  and  O_3 
REMARK    2  A    between atoms: O_3  and  C_4 
REMARK    3  A    between atoms: C_6  and  C_7 
REMARK       I    between atoms: C_7  and  N_8 
REMARK    4  A    between atoms: C_10  and  N_11 
REMARK       I    between atoms: N_11  and  C_12 
REMARK    5  A    between atoms: C_12  and  C_13 
REMARK    6  A    between atoms: N_15  and  C_16 
ROOT
HETATM    1  N   UNL     1     -42.364  57.834 -57.330  1.00  0.00    -0.319 N 
HETATM    2  C   UNL     1     -43.556  57.403 -56.765  1.00  0.00     0.295 C 
HETATM    3  O   UNL     1     -44.677  57.702 -57.166  1.00  0.00    -0.264 OA
HETATM    4  H   UNL     1     -41.530  57.375 -56.962  1.00  0.00     0.169 HD
ENDROOT
BRANCH   1   5
HETATM    5  C   UNL     1     -42.188  58.780 -58.365  1.00  0.00     0.051 A 
HETATM    6  C   UNL     1     -42.380  58.409 -59.711  1.00  0.00     0.061 A 
HETATM    7  C   UNL     1     -42.122  59.321 -60.746  1.00  0.00     0.056 A 
HETATM    8  C   UNL     1     -41.692  60.618 -60.465  1.00  0.00     0.069 A 
HETATM    9  C   UNL     1     -41.511  60.995 -59.139  1.00  0.00     0.039 A 
HETATM   10  C   UNL     1     -41.758  60.085 -58.100  1.00  0.00     0.033 A 
BRANCH   6  11
HETATM   11  C   UNL     1     -42.901  57.080 -60.121  1.00  0.00     0.251 C 
HETATM   12  N   UNL     1     -44.150  57.055 -60.682  1.00  0.00    -0.366 N 
HETATM   13  H   UNL     1     -44.563  57.901 -61.057  1.00  0.00     0.159 HD
HETATM   14  H   UNL     1     -44.418  56.180 -61.117  1.00  0.00     0.159 HD
HETATM   15  O   UNL     1     -42.235  56.060 -60.018  1.00  0.00    -0.268 OA
ENDBRANCH   6  11
BRANCH   8  16
HETATM   16  O   UNL     1     -41.496  61.411 -61.560  1.00  0.00    -0.351 OA
BRANCH  16  17
HETATM   17  C   UNL     1     -41.118  62.767 -61.321  1.00  0.00     0.171 C 
HETATM   18  C   UNL     1     -39.699  62.958 -61.825  1.00  0.00     0.034 C 
ENDBRANCH  16  17
ENDBRANCH   8  16
ENDBRANCH   1   5
BRANCH   2  19
HETATM   19  C   UNL     1     -43.349  56.479 -55.627  1.00  0.00     0.239 A 
HETATM   20  N   UNL     1     -42.387  55.533 -55.619  1.00  0.00    -0.140 NA
HETATM   21  N   UNL     1     -42.506  55.000 -54.373  1.00  0.00    -0.225 N 
HETATM   22  C   UNL     1     -43.585  55.562 -53.742  1.00  0.00     0.237 A 
HETATM   23  N   UNL     1     -44.121  56.496 -54.488  1.00  0.00    -0.216 NA
BRANCH  21  24
HETATM   24  C   UNL     1     -41.593  54.035 -53.872  1.00  0.00     0.059 A 
HETATM   25  C   UNL     1     -41.341  53.974 -52.494  1.00  0.00     0.031 A 
HETATM   26  C   UNL     1     -40.476  53.004 -51.981  1.00  0.00     0.002 A 
HETATM   27  C   UNL     1     -39.855  52.097 -52.839  1.00  0.00     0.000 A 
HETATM   28  C   UNL     1     -40.094  52.158 -54.210  1.00  0.00     0.002 A 
HETATM   29  C   UNL     1     -40.963  53.122 -54.730  1.00  0.00     0.031 A 
ENDBRANCH  21  24
ENDBRANCH   2  19
TORSDOF 6
ENDMDL
MODEL 6
REMARK VINA RESULT:      -7.2      2.566      8.844
REMARK  6 active torsions:
REMARK  status: ('A' for Active; 'I' for Inactive)
REMARK    1  A    between atoms: C_2  and  O_3 
REMARK    2  A    between atoms: O_3  and  C_4 
REMARK    3  A    between atoms: C_6  and  C_7 
REMARK       I    between atoms: C_7  and  N_8 
REMARK    4  A    between atoms: C_10  and  N_11 
REMARK       I    between atoms: N_11  and  C_12 
REMARK    5  A    between atoms: C_12  and  C_13 
REMARK    6  A    between atoms: N_15  and  C_16 
ROOT
HETATM    1  N   UNL     1     -41.808  57.398 -53.052  1.00  0.00    -0.319 N 
HETATM    2  C   UNL     1     -41.055  58.563 -53.024  1.00  0.00     0.295 C 
HETATM    3  O   UNL     1     -39.852  58.633 -53.258  1.00  0.00    -0.264 OA
HETATM    4  H   UNL     1     -42.815  57.541 -52.975  1.00  0.00     0.169 HD
ENDROOT
BRANCH   1   5
HETATM    5  C   UNL     1     -41.346  56.072 -53.218  1.00  0.00     0.051 A 
HETATM    6  C   UNL     1     -41.239  55.210 -52.108  1.00  0.00     0.061 A 
HETATM    7  C   UNL     1     -40.699  53.922 -52.255  1.00  0.00     0.056 A 
HETATM    8  C   UNL     1     -40.278  53.462 -53.502  1.00  0.00     0.069 A 
HETATM    9  C   UNL     1     -40.391  54.303 -54.604  1.00  0.00     0.039 A 
HETATM   10  C   UNL     1     -40.921  55.594 -54.462  1.00  0.00     0.033 A 
BRANCH   6  11
HETATM   11  C   UNL     1     -41.719  55.570 -50.750  1.00  0.00     0.251 C 
HETATM   12  N   UNL     1     -42.643  54.733 -50.182  1.00  0.00    -0.366 N 
HETATM   13  H   UNL     1     -42.768  53.791 -50.532  1.00  0.00     0.159 HD
HETATM   14  H   UNL     1     -42.827  54.886 -49.198  1.00  0.00     0.159 HD
HETATM   15  O   UNL     1     -41.279  56.532 -50.137  1.00  0.00    -0.268 OA
ENDBRANCH   6  11
BRANCH   8  16
HETATM   16  O   UNL     1     -39.790  52.185 -53.512  1.00  0.00    -0.351 OA
BRANCH  16  17
HETATM   17  C   UNL     1     -40.474  51.234 -54.329  1.00  0.00     0.171 C 
HETATM   18  C   UNL     1     -39.665  49.950 -54.336  1.00  0.00     0.034 C 
ENDBRANCH  16  17
ENDBRANCH   8  16
ENDBRANCH   1   5
BRANCH   2  19
HETATM   19  C   UNL     1     -41.870  59.763 -52.725  1.00  0.00     0.239 A 
HETATM   20  N   UNL     1     -42.295  60.067 -51.481  1.00  0.00    -0.140 NA
HETATM   21  N   UNL     1     -42.909  61.267 -51.663  1.00  0.00    -0.225 N 
HETATM   22  C   UNL     1     -42.922  61.570 -53.000  1.00  0.00     0.237 A 
HETATM   23  N   UNL     1     -42.270  60.663 -53.685  1.00  0.00    -0.216 NA
BRANCH  21  24
HETATM   24  C   UNL     1     -43.407  62.035 -50.578  1.00  0.00     0.059 A 
HETATM   25  C   UNL     1     -44.185  61.412 -49.591  1.00  0.00     0.031 A 
HETATM   26  C   UNL     1     -44.648  62.146 -48.496  1.00  0.00     0.002 A 
HETATM   27  C   UNL     1     -44.346  63.502 -48.385  1.00  0.00     0.000 A 
HETATM   28  C   UNL     1     -43.581  64.129 -49.367  1.00  0.00     0.002 A 
HETATM   29  C   UNL     1     -43.108  63.401 -50.462  1.00  0.00     0.031 A 
ENDBRANCH  21  24
ENDBRANCH   2  19
TORSDOF 6
ENDMDL
MODEL 7
REMARK VINA RESULT:      -7.1      2.664      8.799
REMARK  6 active torsions:
REMARK  status: ('A' for Active; 'I' for Inactive)
REMARK    1  A    between atoms: C_2  and  O_3 
REMARK    2  A    between atoms: O_3  and  C_4 
REMARK    3  A    between atoms: C_6  and  C_7 
REMARK       I    between atoms: C_7  and  N_8 
REMARK    4  A    between atoms: C_10  and  N_11 
REMARK       I    between atoms: N_11  and  C_12 
REMARK    5  A    between atoms: C_12  and  C_13 
REMARK    6  A    between atoms: N_15  and  C_16 
ROOT
HETATM    1  N   UNL     1     -42.129  55.845 -51.744  1.00  0.00    -0.319 N 
HETATM    2  C   UNL     1     -43.395  55.840 -51.175  1.00  0.00     0.295 C 
HETATM    3  O   UNL     1     -43.971  54.847 -50.741  1.00  0.00    -0.264 OA
HETATM    4  H   UNL     1     -41.745  56.774 -51.918  1.00  0.00     0.169 HD
ENDROOT
BRANCH   1   5
HETATM    5  C   UNL     1     -41.316  54.731 -52.057  1.00  0.00     0.051 A 
HETATM    6  C   UNL     1     -41.256  54.240 -53.376  1.00  0.00     0.061 A 
HETATM    7  C   UNL     1     -40.519  53.082 -53.674  1.00  0.00     0.056 A 
HETATM    8  C   UNL     1     -39.814  52.409 -52.677  1.00  0.00     0.069 A 
HETATM    9  C   UNL     1     -39.860  52.894 -51.374  1.00  0.00     0.039 A 
HETATM   10  C   UNL     1     -40.602  54.044 -51.069  1.00  0.00     0.033 A 
BRANCH   6  11
HETATM   11  C   UNL     1     -41.908  54.917 -54.526  1.00  0.00     0.251 C 
HETATM   12  N   UNL     1     -41.103  55.248 -55.582  1.00  0.00    -0.366 N 
HETATM   13  H   UNL     1     -40.199  54.806 -55.699  1.00  0.00     0.159 HD
HETATM   14  H   UNL     1     -41.584  55.542 -56.425  1.00  0.00     0.159 HD
HETATM   15  O   UNL     1     -43.113  55.123 -54.561  1.00  0.00    -0.268 OA
ENDBRANCH   6  11
BRANCH   8  16
HETATM   16  O   UNL     1     -39.123  51.309 -53.101  1.00  0.00    -0.351 OA
BRANCH  16  17
HETATM   17  C   UNL     1     -39.862  50.100 -53.269  1.00  0.00     0.171 C 
HETATM   18  C   UNL     1     -39.818  49.720 -54.738  1.00  0.00     0.034 C 
ENDBRANCH  16  17
ENDBRANCH   8  16
ENDBRANCH   1   5
BRANCH   2  19
HETATM   19  C   UNL     1     -43.988  57.194 -51.090  1.00  0.00     0.239 A 
HETATM   20  N   UNL     1     -43.254  58.322 -51.189  1.00  0.00    -0.140 NA
HETATM   21  N   UNL     1     -44.202  59.297 -51.149  1.00  0.00    -0.225 N 
HETATM   22  C   UNL     1     -45.428  58.727 -50.920  1.00  0.00     0.237 A 
HETATM   23  N   UNL     1     -45.331  57.420 -50.894  1.00  0.00    -0.216 NA
BRANCH  21  24
HETATM   24  C   UNL     1     -43.888  60.666 -51.350  1.00  0.00     0.059 A 
HETATM   25  C   UNL     1     -43.589  61.476 -50.244  1.00  0.00     0.031 A 
HETATM   26  C   UNL     1     -43.240  62.816 -50.430  1.00  0.00     0.002 A 
HETATM   27  C   UNL     1     -43.194  63.355 -51.714  1.00  0.00     0.000 A 
HETATM   28  C   UNL     1     -43.499  62.559 -52.817  1.00  0.00     0.002 A 
HETATM   29  C   UNL     1     -43.843  61.216 -52.640  1.00  0.00     0.031 A 
ENDBRANCH  21  24
ENDBRANCH   2  19
TORSDOF 6
ENDMDL
MODEL 8
REMARK VINA RESULT:      -7.1     16.205     18.297
REMARK  6 active torsions:
REMARK  status: ('A' for Active; 'I' for Inactive)
REMARK    1  A    between atoms: C_2  and  O_3 
REMARK    2  A    between atoms: O_3  and  C_4 
REMARK    3  A    between atoms: C_6  and  C_7 
REMARK       I    between atoms: C_7  and  N_8 
REMARK    4  A    between atoms: C_10  and  N_11 
REMARK       I    between atoms: N_11  and  C_12 
REMARK    5  A    between atoms: C_12  and  C_13 
REMARK    6  A    between atoms: N_15  and  C_16 
ROOT
HETATM    1  N   UNL     1     -34.851  40.469 -53.223  1.00  0.00    -0.319 N 
HETATM    2  C   UNL     1     -35.700  41.564 -53.311  1.00  0.00     0.295 C 
HETATM    3  O   UNL     1     -35.644  42.560 -52.596  1.00  0.00    -0.264 OA
HETATM    4  H   UNL     1     -34.945  39.797 -53.985  1.00  0.00     0.169 HD
ENDROOT
BRANCH   1   5
HETATM    5  C   UNL     1     -33.865  40.215 -52.243  1.00  0.00     0.051 A 
HETATM    6  C   UNL     1     -34.225  39.683 -50.989  1.00  0.00     0.061 A 
HETATM    7  C   UNL     1     -33.261  39.511 -49.983  1.00  0.00     0.056 A 
HETATM    8  C   UNL     1     -31.925  39.840 -50.210  1.00  0.00     0.069 A 
HETATM    9  C   UNL     1     -31.559  40.355 -51.450  1.00  0.00     0.039 A 
HETATM   10  C   UNL     1     -32.520  40.538 -52.455  1.00  0.00     0.033 A 
BRANCH   6  11
HETATM   11  C   UNL     1     -35.603  39.233 -50.662  1.00  0.00     0.251 C 
HETATM   12  N   UNL     1     -36.192  39.803 -49.565  1.00  0.00    -0.366 N 
HETATM   13  H   UNL     1     -35.837  40.671 -49.182  1.00  0.00     0.159 HD
HETATM   14  H   UNL     1     -37.183  39.625 -49.458  1.00  0.00     0.159 HD
HETATM   15  O   UNL     1     -36.210  38.435 -51.362  1.00  0.00    -0.268 OA
ENDBRANCH   6  11
BRANCH   8  16
HETATM   16  O   UNL     1     -31.085  39.607 -49.158  1.00  0.00    -0.351 OA
BRANCH  16  17
HETATM   17  C   UNL     1     -31.679  39.483 -47.866  1.00  0.00     0.171 C 
HETATM   18  C   UNL     1     -30.670  39.955 -46.835  1.00  0.00     0.034 C 
ENDBRANCH  16  17
ENDBRANCH   8  16
ENDBRANCH   1   5
BRANCH   2  19
HETATM   19  C   UNL     1     -36.680  41.441 -54.415  1.00  0.00     0.239 A 
HETATM   20  N   UNL     1     -36.324  41.477 -55.716  1.00  0.00    -0.140 NA
HETATM   21  N   UNL     1     -37.503  41.240 -56.351  1.00  0.00    -0.225 N 
HETATM   22  C   UNL     1     -38.513  41.183 -55.426  1.00  0.00     0.237 A 
HETATM   23  N   UNL     1     -38.032  41.289 -54.212  1.00  0.00    -0.216 NA
BRANCH  21  24
HETATM   24  C   UNL     1     -37.582  41.063 -57.757  1.00  0.00     0.059 A 
HETATM   25  C   UNL     1     -37.176  42.102 -58.608  1.00  0.00     0.031 A 
HETATM   26  C   UNL     1     -37.210  41.928 -59.994  1.00  0.00     0.002 A 
HETATM   27  C   UNL     1     -37.656  40.724 -60.537  1.00  0.00     0.000 A 
HETATM   28  C   UNL     1     -38.071  39.691 -59.697  1.00  0.00     0.002 A 
HETATM   29  C   UNL     1     -38.033  39.855 -58.310  1.00  0.00     0.031 A 
ENDBRANCH  21  24
ENDBRANCH   2  19
TORSDOF 6
ENDMDL
MODEL 9
REMARK VINA RESULT:      -7.0      2.259      2.874
REMARK  6 active torsions:
REMARK  status: ('A' for Active; 'I' for Inactive)
REMARK    1  A    between atoms: C_2  and  O_3 
REMARK    2  A    between atoms: O_3  and  C_4 
REMARK    3  A    between atoms: C_6  and  C_7 
REMARK       I    between atoms: C_7  and  N_8 
REMARK    4  A    between atoms: C_10  and  N_11 
REMARK       I    between atoms: N_11  and  C_12 
REMARK    5  A    between atoms: C_12  and  C_13 
REMARK    6  A    between atoms: N_15  and  C_16 
ROOT
HETATM    1  N   UNL     1     -42.825  56.503 -51.423  1.00  0.00    -0.319 N 
HETATM    2  C   UNL     1     -41.560  56.518 -50.853  1.00  0.00     0.295 C 
HETATM    3  O   UNL     1     -41.006  57.510 -50.388  1.00  0.00    -0.264 OA
HETATM    4  H   UNL     1     -43.188  55.571 -51.626  1.00  0.00     0.169 HD
ENDROOT
BRANCH   1   5
HETATM    5  C   UNL     1     -43.662  57.608 -51.702  1.00  0.00     0.051 A 
HETATM    6  C   UNL     1     -43.306  58.539 -52.697  1.00  0.00     0.061 A 
HETATM    7  C   UNL     1     -44.090  59.683 -52.917  1.00  0.00     0.056 A 
HETATM    8  C   UNL     1     -45.247  59.910 -52.173  1.00  0.00     0.069 A 
HETATM    9  C   UNL     1     -45.612  58.989 -51.196  1.00  0.00     0.039 A 
HETATM   10  C   UNL     1     -44.827  57.849 -50.965  1.00  0.00     0.033 A 
BRANCH   6  11
HETATM   11  C   UNL     1     -42.136  58.362 -53.595  1.00  0.00     0.251 C 
HETATM   12  N   UNL     1     -41.035  59.130 -53.329  1.00  0.00    -0.366 N 
HETATM   13  H   UNL     1     -40.918  59.565 -52.422  1.00  0.00     0.159 HD
HETATM   14  H   UNL     1     -40.191  58.875 -53.829  1.00  0.00     0.159 HD
HETATM   15  O   UNL     1     -42.127  57.536 -54.497  1.00  0.00    -0.268 OA
ENDBRANCH   6  11
BRANCH   8  16
HETATM   16  O   UNL     1     -45.930  61.048 -52.498  1.00  0.00    -0.351 OA
BRANCH  16  17
HETATM   17  C   UNL     1     -46.067  62.038 -51.478  1.00  0.00     0.171 C 
HETATM   18  C   UNL     1     -45.057  63.138 -51.749  1.00  0.00     0.034 C 
ENDBRANCH  16  17
ENDBRANCH   8  16
ENDBRANCH   1   5
BRANCH   2  19
HETATM   19  C   UNL     1     -40.936  55.175 -50.809  1.00  0.00     0.239 A 
HETATM   20  N   UNL     1     -41.104  54.259 -51.785  1.00  0.00    -0.140 NA
HETATM   21  N   UNL     1     -40.298  53.242 -51.379  1.00  0.00    -0.225 N 
HETATM   22  C   UNL     1     -39.778  53.542 -50.146  1.00  0.00     0.237 A 
HETATM   23  N   UNL     1     -40.143  54.744 -49.772  1.00  0.00    -0.216 NA
BRANCH  21  24
HETATM   24  C   UNL     1     -40.063  52.095 -52.181  1.00  0.00     0.059 A 
HETATM   25  C   UNL     1     -39.681  50.892 -51.570  1.00  0.00     0.031 A 
HETATM   26  C   UNL     1     -39.485  49.744 -52.342  1.00  0.00     0.002 A 
HETATM   27  C   UNL     1     -39.661  49.793 -53.724  1.00  0.00     0.000 A 
HETATM   28  C   UNL     1     -40.032  50.987 -54.339  1.00  0.00     0.002 A 
HETATM   29  C   UNL     1     -40.236  52.138 -53.573  1.00  0.00     0.031 A 
ENDBRANCH  21  24
ENDBRANCH   2  19
TORSDOF 6
ENDMDL
MODEL 10
REMARK VINA RESULT:      -6.9      2.384      8.859
REMARK  6 active torsions:
REMARK  status: ('A' for Active; 'I' for Inactive)
REMARK    1  A    between atoms: C_2  and  O_3 
REMARK    2  A    between atoms: O_3  and  C_4 
REMARK    3  A    between atoms: C_6  and  C_7 
REMARK       I    between atoms: C_7  and  N_8 
REMARK    4  A    between atoms: C_10  and  N_11 
REMARK       I    between atoms: N_11  and  C_12 
REMARK    5  A    between atoms: C_12  and  C_13 
REMARK    6  A    between atoms: N_15  and  C_16 
ROOT
HETATM    1  N   UNL     1     -41.830  57.175 -52.371  1.00  0.00    -0.319 N 
HETATM    2  C   UNL     1     -41.135  58.319 -52.734  1.00  0.00     0.295 C 
HETATM    3  O   UNL     1     -40.015  58.337 -53.235  1.00  0.00    -0.264 OA
HETATM    4  H   UNL     1     -42.803  57.335 -52.105  1.00  0.00     0.169 HD
ENDROOT
BRANCH   1   5
HETATM    5  C   UNL     1     -41.363  55.840 -52.373  1.00  0.00     0.051 A 
HETATM    6  C   UNL     1     -41.532  55.028 -53.513  1.00  0.00     0.061 A 
HETATM    7  C   UNL     1     -41.148  53.677 -53.489  1.00  0.00     0.056 A 
HETATM    8  C   UNL     1     -40.574  53.118 -52.348  1.00  0.00     0.069 A 
HETATM    9  C   UNL     1     -40.394  53.916 -51.223  1.00  0.00     0.039 A 
HETATM   10  C   UNL     1     -40.784  55.264 -51.238  1.00  0.00     0.033 A 
BRANCH   6  11
HETATM   11  C   UNL     1     -42.067  55.536 -54.802  1.00  0.00     0.251 C 
HETATM   12  N   UNL     1     -41.293  55.330 -55.912  1.00  0.00    -0.366 N 
HETATM   13  H   UNL     1     -40.560  54.632 -55.907  1.00  0.00     0.159 HD
HETATM   14  H   UNL     1     -41.743  55.518 -56.801  1.00  0.00     0.159 HD
HETATM   15  O   UNL     1     -43.166  56.065 -54.887  1.00  0.00    -0.268 OA
ENDBRANCH   6  11
BRANCH   8  16
HETATM   16  O   UNL     1     -40.228  51.801 -52.462  1.00  0.00    -0.351 OA
BRANCH  16  17
HETATM   17  C   UNL     1     -39.469  51.424 -53.611  1.00  0.00     0.171 C 
HETATM   18  C   UNL     1     -40.078  50.157 -54.185  1.00  0.00     0.034 C 
ENDBRANCH  16  17
ENDBRANCH   8  16
ENDBRANCH   1   5
BRANCH   2  19
HETATM   19  C   UNL     1     -41.913  59.558 -52.503  1.00  0.00     0.239 A 
HETATM   20  N   UNL     1     -42.355  59.927 -51.282  1.00  0.00    -0.140 NA
HETATM   21  N   UNL     1     -42.922  61.139 -51.526  1.00  0.00    -0.225 N 
HETATM   22  C   UNL     1     -42.894  61.388 -52.874  1.00  0.00     0.237 A 
HETATM   23  N   UNL     1     -42.260  60.432 -53.507  1.00  0.00    -0.216 NA
BRANCH  21  24
HETATM   24  C   UNL     1     -43.416  61.967 -50.485  1.00  0.00     0.059 A 
HETATM   25  C   UNL     1     -44.312  61.436 -49.546  1.00  0.00     0.031 A 
HETATM   26  C   UNL     1     -44.776  62.227 -48.492  1.00  0.00     0.002 A 
HETATM   27  C   UNL     1     -44.355  63.550 -48.374  1.00  0.00     0.000 A 
HETATM   28  C   UNL     1     -43.471  64.088 -49.308  1.00  0.00     0.002 A 
HETATM   29  C   UNL     1     -42.998  63.301 -50.362  1.00  0.00     0.031 A 
ENDBRANCH  21  24
ENDBRANCH   2  19
TORSDOF 6
ENDMDL
