MODEL 1
REMARK VINA RESULT:      -8.5      0.000      0.000
REMARK  3 active torsions:
REMARK  status: ('A' for Active; 'I' for Inactive)
REMARK    1  A    between atoms: O_2  and  C_3 
REMARK    2  A    between atoms: C_4  and  N_5 
REMARK       I    between atoms: N_5  and  C_6 
REMARK       I    between atoms: C_6  and  N_7 
REMARK    3  A    between atoms: C_8  and  C_9 
ROOT
HETATM    1  N   UNL     1     -41.641  54.764 -52.684  1.00  0.00    -0.306 N 
HETATM    2  C   UNL     1     -41.905  55.617 -53.738  1.00  0.00     0.323 C 
HETATM    3  N   UNL     1     -42.914  56.579 -53.480  1.00  0.00    -0.324 N 
HETATM    4  C   UNL     1     -42.858  57.853 -54.243  1.00  0.00     0.139 C 
HETATM    5  C   UNL     1     -44.046  58.811 -53.975  1.00  0.00     0.032 C 
HETATM    6  C   UNL     1     -44.437  58.905 -52.515  1.00  0.00     0.004 C 
HETATM    7  C   UNL     1     -44.751  57.510 -52.017  1.00  0.00     0.020 C 
HETATM    8  C   UNL     1     -43.518  56.632 -52.141  1.00  0.00     0.128 C 
HETATM    9  O   UNL     1     -41.295  55.538 -54.799  1.00  0.00    -0.247 OA
HETATM   10  H   UNL     1     -41.694  55.154 -51.755  1.00  0.00     0.171 HD
ENDROOT
BRANCH   4  11
HETATM   11  C   UNL     1     -42.806  57.673 -55.736  1.00  0.00     0.033 A 
HETATM   12  N   UNL     1     -43.520  56.706 -56.404  1.00  0.00    -0.357 N 
HETATM   13  H   UNL     1     -44.063  55.983 -55.953  1.00  0.00     0.166 HD
HETATM   14  C   UNL     1     -43.357  56.836 -57.765  1.00  0.00     0.042 A 
HETATM   15  C   UNL     1     -42.478  57.898 -57.972  1.00  0.00    -0.007 A 
HETATM   16  C   UNL     1     -43.906  56.095 -58.819  1.00  0.00     0.030 A 
HETATM   17  C   UNL     1     -42.131  58.408 -56.694  1.00  0.00     0.041 A 
HETATM   18  C   UNL     1     -42.129  58.243 -59.292  1.00  0.00     0.014 A 
HETATM   19  C   UNL     1     -42.672  57.517 -60.357  1.00  0.00     0.001 A 
HETATM   20  C   UNL     1     -43.548  56.459 -60.120  1.00  0.00     0.002 A 
ENDBRANCH   4  11
BRANCH   1  21
HETATM   21  C   UNL     1     -40.876  53.578 -52.745  1.00  0.00     0.072 A 
HETATM   22  C   UNL     1     -40.119  53.232 -51.612  1.00  0.00     0.095 A 
HETATM   23  C   UNL     1     -39.415  52.028 -51.549  1.00  0.00     0.042 A 
HETATM   24  C   UNL     1     -39.438  51.172 -52.648  1.00  0.00     0.045 A 
HETATM   25  C   UNL     1     -40.165  51.527 -53.781  1.00  0.00     0.118 A 
HETATM   26  C   UNL     1     -40.884  52.719 -53.843  1.00  0.00     0.074 A 
HETATM   27  F   UNL     1     -40.189  50.690 -54.827  1.00  0.00    -0.206 F 
BRANCH  22  28
HETATM   28  O   UNL     1     -40.089  54.083 -50.531  1.00  0.00    -0.354 OA
HETATM   29  C   UNL     1     -40.468  53.367 -49.350  1.00  0.00     0.210 C 
ENDBRANCH  22  28
ENDBRANCH   1  21
TORSDOF 3
ENDMDL
MODEL 2
REMARK VINA RESULT:      -8.0      2.146      6.785
REMARK  3 active torsions:
REMARK  status: ('A' for Active; 'I' for Inactive)
REMARK    1  A    between atoms: O_2  and  C_3 
REMARK    2  A    between atoms: C_4  and  N_5 
REMARK       I    between atoms: N_5  and  C_6 
REMARK       I    between atoms: C_6  and  N_7 
REMARK    3  A    between atoms: C_8  and  C_9 
ROOT
HETATM    1  N   UNL     1     -43.392  57.470 -55.947  1.00  0.00    -0.306 N 
HETATM    2  C   UNL     1     -43.099  56.497 -55.011  1.00  0.00     0.323 C 
HETATM    3  N   UNL     1     -43.347  56.875 -53.668  1.00  0.00    -0.324 N 
HETATM    4  C   UNL     1     -43.647  55.793 -52.694  1.00  0.00     0.139 C 
HETATM    5  C   UNL     1     -43.812  56.277 -51.232  1.00  0.00     0.032 C 
HETATM    6  C   UNL     1     -44.611  57.557 -51.099  1.00  0.00     0.004 C 
HETATM    7  C   UNL     1     -43.945  58.622 -51.944  1.00  0.00     0.020 C 
HETATM    8  C   UNL     1     -43.941  58.193 -53.400  1.00  0.00     0.128 C 
HETATM    9  O   UNL     1     -42.670  55.396 -55.340  1.00  0.00    -0.247 OA
HETATM   10  H   UNL     1     -44.193  58.056 -55.762  1.00  0.00     0.171 HD
ENDROOT
BRANCH   4  11
HETATM   11  C   UNL     1     -42.611  54.703 -52.650  1.00  0.00     0.033 A 
HETATM   12  N   UNL     1     -42.451  53.773 -53.651  1.00  0.00    -0.357 N 
HETATM   13  H   UNL     1     -43.063  53.683 -54.449  1.00  0.00     0.166 HD
HETATM   14  C   UNL     1     -41.369  52.962 -53.391  1.00  0.00     0.042 A 
HETATM   15  C   UNL     1     -40.843  53.361 -52.163  1.00  0.00    -0.007 A 
HETATM   16  C   UNL     1     -40.828  51.907 -54.135  1.00  0.00     0.030 A 
HETATM   17  C   UNL     1     -41.635  54.446 -51.703  1.00  0.00     0.041 A 
HETATM   18  C   UNL     1     -39.722  52.681 -51.651  1.00  0.00     0.014 A 
HETATM   19  C   UNL     1     -39.165  51.628 -52.384  1.00  0.00     0.001 A 
HETATM   20  C   UNL     1     -39.712  51.250 -53.608  1.00  0.00     0.002 A 
ENDBRANCH   4  11
BRANCH   1  21
HETATM   21  C   UNL     1     -43.017  57.455 -57.309  1.00  0.00     0.072 A 
HETATM   22  C   UNL     1     -42.134  58.454 -57.753  1.00  0.00     0.095 A 
HETATM   23  C   UNL     1     -41.635  58.454 -59.057  1.00  0.00     0.042 A 
HETATM   24  C   UNL     1     -42.051  57.462 -59.941  1.00  0.00     0.045 A 
HETATM   25  C   UNL     1     -42.949  56.488 -59.510  1.00  0.00     0.118 A 
HETATM   26  C   UNL     1     -43.436  56.473 -58.205  1.00  0.00     0.074 A 
HETATM   27  F   UNL     1     -43.333  55.533 -60.367  1.00  0.00    -0.206 F 
BRANCH  22  28
HETATM   28  O   UNL     1     -41.730  59.439 -56.881  1.00  0.00    -0.354 OA
HETATM   29  C   UNL     1     -42.093  60.720 -57.408  1.00  0.00     0.210 C 
ENDBRANCH  22  28
ENDBRANCH   1  21
TORSDOF 3
ENDMDL
MODEL 3
REMARK VINA RESULT:      -8.0      2.933      7.508
REMARK  3 active torsions:
REMARK  status: ('A' for Active; 'I' for Inactive)
REMARK    1  A    between atoms: O_2  and  C_3 
REMARK    2  A    between atoms: C_4  and  N_5 
REMARK       I    between atoms: N_5  and  C_6 
REMARK       I    between atoms: C_6  and  N_7 
REMARK    3  A    between atoms: C_8  and  C_9 
ROOT
HETATM    1  N   UNL     1     -42.108  56.232 -56.960  1.00  0.00    -0.306 N 
HETATM    2  C   UNL     1     -42.215  56.540 -55.618  1.00  0.00     0.323 C 
HETATM    3  N   UNL     1     -41.934  55.463 -54.740  1.00  0.00    -0.324 N 
HETATM    4  C   UNL     1     -41.438  55.797 -53.380  1.00  0.00     0.139 C 
HETATM    5  C   UNL     1     -41.246  54.572 -52.451  1.00  0.00     0.032 C 
HETATM    6  C   UNL     1     -40.610  53.381 -53.137  1.00  0.00     0.004 C 
HETATM    7  C   UNL     1     -41.459  53.015 -54.336  1.00  0.00     0.020 C 
HETATM    8  C   UNL     1     -41.499  54.180 -55.310  1.00  0.00     0.128 C 
HETATM    9  O   UNL     1     -42.520  57.666 -55.238  1.00  0.00    -0.247 OA
HETATM   10  H   UNL     1     -41.379  55.587 -57.225  1.00  0.00     0.171 HD
ENDROOT
BRANCH   4  11
HETATM   11  C   UNL     1     -42.322  56.751 -52.622  1.00  0.00     0.033 A 
HETATM   12  N   UNL     1     -41.960  58.045 -52.330  1.00  0.00    -0.357 N 
HETATM   13  H   UNL     1     -41.048  58.438 -52.515  1.00  0.00     0.166 HD
HETATM   14  C   UNL     1     -42.997  58.713 -51.718  1.00  0.00     0.042 A 
HETATM   15  C   UNL     1     -44.043  57.803 -51.578  1.00  0.00    -0.007 A 
HETATM   16  C   UNL     1     -43.084  60.036 -51.270  1.00  0.00     0.030 A 
HETATM   17  C   UNL     1     -43.606  56.574 -52.138  1.00  0.00     0.041 A 
HETATM   18  C   UNL     1     -45.237  58.230 -50.965  1.00  0.00     0.014 A 
HETATM   19  C   UNL     1     -45.343  59.550 -50.516  1.00  0.00     0.001 A 
HETATM   20  C   UNL     1     -44.281  60.438 -50.669  1.00  0.00     0.002 A 
ENDBRANCH   4  11
BRANCH   1  21
HETATM   21  C   UNL     1     -42.562  57.028 -58.036  1.00  0.00     0.072 A 
HETATM   22  C   UNL     1     -43.553  56.487 -58.874  1.00  0.00     0.095 A 
HETATM   23  C   UNL     1     -44.128  57.243 -59.898  1.00  0.00     0.042 A 
HETATM   24  C   UNL     1     -43.682  58.545 -60.111  1.00  0.00     0.045 A 
HETATM   25  C   UNL     1     -42.681  59.071 -59.299  1.00  0.00     0.118 A 
HETATM   26  C   UNL     1     -42.116  58.329 -58.265  1.00  0.00     0.074 A 
HETATM   27  F   UNL     1     -42.270  60.330 -59.506  1.00  0.00    -0.206 F 
BRANCH  22  28
HETATM   28  O   UNL     1     -43.985  55.198 -58.669  1.00  0.00    -0.354 OA
HETATM   29  C   UNL     1     -44.476  54.658 -59.900  1.00  0.00     0.210 C 
ENDBRANCH  22  28
ENDBRANCH   1  21
TORSDOF 3
ENDMDL
MODEL 4
REMARK VINA RESULT:      -7.9     15.128     17.244
REMARK  3 active torsions:
REMARK  status: ('A' for Active; 'I' for Inactive)
REMARK    1  A    between atoms: O_2  and  C_3 
REMARK    2  A    between atoms: C_4  and  N_5 
REMARK       I    between atoms: N_5  and  C_6 
REMARK       I    between atoms: C_6  and  N_7 
REMARK    3  A    between atoms: C_8  and  C_9 
ROOT
HETATM    1  N   UNL     1     -35.563  40.958 -56.073  1.00  0.00    -0.306 N 
HETATM    2  C   UNL     1     -36.274  40.916 -54.890  1.00  0.00     0.323 C 
HETATM    3  N   UNL     1     -35.475  40.791 -53.725  1.00  0.00    -0.324 N 
HETATM    4  C   UNL     1     -36.029  41.324 -52.453  1.00  0.00     0.139 C 
HETATM    5  C   UNL     1     -35.140  41.065 -51.211  1.00  0.00     0.032 C 
HETATM    6  C   UNL     1     -33.662  41.288 -51.461  1.00  0.00     0.004 C 
HETATM    7  C   UNL     1     -33.238  40.407 -52.617  1.00  0.00     0.020 C 
HETATM    8  C   UNL     1     -34.012  40.791 -53.865  1.00  0.00     0.128 C 
HETATM    9  O   UNL     1     -37.498  40.992 -54.871  1.00  0.00    -0.247 OA
HETATM   10  H   UNL     1     -34.675  41.438 -56.057  1.00  0.00     0.171 HD
ENDROOT
BRANCH   4  11
HETATM   11  C   UNL     1     -37.389  40.785 -52.103  1.00  0.00     0.033 A 
HETATM   12  N   UNL     1     -38.561  41.432 -52.416  1.00  0.00    -0.357 N 
HETATM   13  H   UNL     1     -38.612  42.356 -52.822  1.00  0.00     0.166 HD
HETATM   14  C   UNL     1     -39.649  40.665 -52.063  1.00  0.00     0.042 A 
HETATM   15  C   UNL     1     -39.156  39.505 -51.468  1.00  0.00    -0.007 A 
HETATM   16  C   UNL     1     -41.019  40.912 -52.212  1.00  0.00     0.030 A 
HETATM   17  C   UNL     1     -37.739  39.596 -51.488  1.00  0.00     0.041 A 
HETATM   18  C   UNL     1     -40.069  38.540 -51.000  1.00  0.00     0.014 A 
HETATM   19  C   UNL     1     -41.441  38.768 -51.146  1.00  0.00     0.001 A 
HETATM   20  C   UNL     1     -41.906  39.937 -51.745  1.00  0.00     0.002 A 
ENDBRANCH   4  11
BRANCH   1  21
HETATM   21  C   UNL     1     -36.102  40.833 -57.373  1.00  0.00     0.072 A 
HETATM   22  C   UNL     1     -36.276  39.535 -57.885  1.00  0.00     0.095 A 
HETATM   23  C   UNL     1     -36.894  39.318 -59.117  1.00  0.00     0.042 A 
HETATM   24  C   UNL     1     -37.312  40.415 -59.868  1.00  0.00     0.045 A 
HETATM   25  C   UNL     1     -37.114  41.702 -59.375  1.00  0.00     0.118 A 
HETATM   26  C   UNL     1     -36.514  41.924 -58.137  1.00  0.00     0.074 A 
HETATM   27  F   UNL     1     -37.531  42.748 -60.101  1.00  0.00    -0.206 F 
BRANCH  22  28
HETATM   28  O   UNL     1     -35.854  38.454 -57.147  1.00  0.00    -0.354 OA
HETATM   29  C   UNL     1     -36.970  37.599 -56.872  1.00  0.00     0.210 C 
ENDBRANCH  22  28
ENDBRANCH   1  21
TORSDOF 3
ENDMDL
MODEL 5
REMARK VINA RESULT:      -7.8      1.997      3.031
REMARK  3 active torsions:
REMARK  status: ('A' for Active; 'I' for Inactive)
REMARK    1  A    between atoms: O_2  and  C_3 
REMARK    2  A    between atoms: C_4  and  N_5 
REMARK       I    between atoms: N_5  and  C_6 
REMARK       I    between atoms: C_6  and  N_7 
REMARK    3  A    between atoms: C_8  and  C_9 
ROOT
HETATM    1  N   UNL     1     -41.491  56.942 -54.250  1.00  0.00    -0.306 N 
HETATM    2  C   UNL     1     -42.110  57.240 -55.448  1.00  0.00     0.323 C 
HETATM    3  N   UNL     1     -42.517  58.590 -55.583  1.00  0.00    -0.324 N 
HETATM    4  C   UNL     1     -42.618  59.143 -56.959  1.00  0.00     0.139 C 
HETATM    5  C   UNL     1     -43.160  60.592 -57.028  1.00  0.00     0.032 C 
HETATM    6  C   UNL     1     -42.591  61.508 -55.964  1.00  0.00     0.004 C 
HETATM    7  C   UNL     1     -42.873  60.893 -54.609  1.00  0.00     0.020 C 
HETATM    8  C   UNL     1     -42.194  59.539 -54.508  1.00  0.00     0.128 C 
HETATM    9  O   UNL     1     -42.273  56.389 -56.317  1.00  0.00    -0.247 OA
HETATM   10  H   UNL     1     -40.899  57.655 -53.851  1.00  0.00     0.171 HD
ENDROOT
BRANCH   4  11
HETATM   11  C   UNL     1     -43.490  58.335 -57.882  1.00  0.00     0.033 A 
HETATM   12  N   UNL     1     -42.993  57.446 -58.805  1.00  0.00    -0.357 N 
HETATM   13  H   UNL     1     -42.010  57.323 -59.007  1.00  0.00     0.166 HD
HETATM   14  C   UNL     1     -44.017  56.780 -59.440  1.00  0.00     0.042 A 
HETATM   15  C   UNL     1     -45.212  57.289 -58.933  1.00  0.00    -0.007 A 
HETATM   16  C   UNL     1     -43.979  55.784 -60.422  1.00  0.00     0.030 A 
HETATM   17  C   UNL     1     -44.870  58.271 -57.966  1.00  0.00     0.041 A 
HETATM   18  C   UNL     1     -46.430  56.782 -59.425  1.00  0.00     0.014 A 
HETATM   19  C   UNL     1     -46.410  55.783 -60.403  1.00  0.00     0.001 A 
HETATM   20  C   UNL     1     -45.201  55.292 -60.892  1.00  0.00     0.002 A 
ENDBRANCH   4  11
BRANCH   1  21
HETATM   21  C   UNL     1     -41.211  55.648 -53.756  1.00  0.00     0.072 A 
HETATM   22  C   UNL     1     -41.633  55.344 -52.449  1.00  0.00     0.095 A 
HETATM   23  C   UNL     1     -41.486  54.060 -51.921  1.00  0.00     0.042 A 
HETATM   24  C   UNL     1     -40.877  53.075 -52.694  1.00  0.00     0.045 A 
HETATM   25  C   UNL     1     -40.434  53.383 -53.977  1.00  0.00     0.118 A 
HETATM   26  C   UNL     1     -40.593  54.657 -54.517  1.00  0.00     0.074 A 
HETATM   27  F   UNL     1     -39.860  52.423 -54.715  1.00  0.00    -0.206 F 
BRANCH  22  28
HETATM   28  O   UNL     1     -42.225  56.321 -51.683  1.00  0.00    -0.354 OA
HETATM   29  C   UNL     1     -41.348  56.684 -50.611  1.00  0.00     0.210 C 
ENDBRANCH  22  28
ENDBRANCH   1  21
TORSDOF 3
ENDMDL
MODEL 6
REMARK VINA RESULT:      -7.6      2.410      7.019
REMARK  3 active torsions:
REMARK  status: ('A' for Active; 'I' for Inactive)
REMARK    1  A    between atoms: O_2  and  C_3 
REMARK    2  A    between atoms: C_4  and  N_5 
REMARK       I    between atoms: N_5  and  C_6 
REMARK       I    between atoms: C_6  and  N_7 
REMARK    3  A    between atoms: C_8  and  C_9 
ROOT
HETATM    1  N   UNL     1     -43.023  57.592 -55.262  1.00  0.00    -0.306 N 
HETATM    2  C   UNL     1     -42.534  56.689 -54.338  1.00  0.00     0.323 C 
HETATM    3  N   UNL     1     -41.818  57.273 -53.263  1.00  0.00    -0.324 N 
HETATM    4  C   UNL     1     -41.784  56.530 -51.977  1.00  0.00     0.139 C 
HETATM    5  C   UNL     1     -40.904  57.186 -50.883  1.00  0.00     0.032 C 
HETATM    6  C   UNL     1     -41.056  58.691 -50.799  1.00  0.00     0.004 C 
HETATM    7  C   UNL     1     -40.744  59.276 -52.160  1.00  0.00     0.020 C 
HETATM    8  C   UNL     1     -41.725  58.738 -53.187  1.00  0.00     0.128 C 
HETATM    9  O   UNL     1     -42.724  55.482 -54.453  1.00  0.00    -0.247 OA
HETATM   10  H   UNL     1     -43.348  58.479 -54.907  1.00  0.00     0.171 HD
ENDROOT
BRANCH   4  11
HETATM   11  C   UNL     1     -41.294  55.113 -52.101  1.00  0.00     0.033 A 
HETATM   12  N   UNL     1     -40.930  54.541 -53.298  1.00  0.00    -0.357 N 
HETATM   13  H   UNL     1     -41.043  54.984 -54.199  1.00  0.00     0.166 HD
HETATM   14  C   UNL     1     -40.431  53.274 -53.100  1.00  0.00     0.042 A 
HETATM   15  C   UNL     1     -40.515  53.010 -51.734  1.00  0.00    -0.007 A 
HETATM   16  C   UNL     1     -39.928  52.344 -54.017  1.00  0.00     0.030 A 
HETATM   17  C   UNL     1     -41.067  54.165 -51.119  1.00  0.00     0.041 A 
HETATM   18  C   UNL     1     -40.074  51.762 -51.254  1.00  0.00     0.014 A 
HETATM   19  C   UNL     1     -39.563  50.823 -52.156  1.00  0.00     0.001 A 
HETATM   20  C   UNL     1     -39.491  51.113 -53.517  1.00  0.00     0.002 A 
ENDBRANCH   4  11
BRANCH   1  21
HETATM   21  C   UNL     1     -43.550  57.278 -56.535  1.00  0.00     0.072 A 
HETATM   22  C   UNL     1     -44.762  57.885 -56.907  1.00  0.00     0.095 A 
HETATM   23  C   UNL     1     -45.300  57.710 -58.183  1.00  0.00     0.042 A 
HETATM   24  C   UNL     1     -44.636  56.887 -59.090  1.00  0.00     0.045 A 
HETATM   25  C   UNL     1     -43.450  56.263 -58.713  1.00  0.00     0.118 A 
HETATM   26  C   UNL     1     -42.899  56.448 -57.447  1.00  0.00     0.074 A 
HETATM   27  F   UNL     1     -42.815  55.484 -59.599  1.00  0.00    -0.206 F 
BRANCH  22  28
HETATM   28  O   UNL     1     -45.422  58.689 -56.006  1.00  0.00    -0.354 OA
HETATM   29  C   UNL     1     -45.353  60.051 -56.444  1.00  0.00     0.210 C 
ENDBRANCH  22  28
ENDBRANCH   1  21
TORSDOF 3
ENDMDL
MODEL 7
REMARK VINA RESULT:      -7.4      2.554      5.056
REMARK  3 active torsions:
REMARK  status: ('A' for Active; 'I' for Inactive)
REMARK    1  A    between atoms: O_2  and  C_3 
REMARK    2  A    between atoms: C_4  and  N_5 
REMARK       I    between atoms: N_5  and  C_6 
REMARK       I    between atoms: C_6  and  N_7 
REMARK    3  A    between atoms: C_8  and  C_9 
ROOT
HETATM    1  N   UNL     1     -43.145  55.048 -56.662  1.00  0.00    -0.306 N 
HETATM    2  C   UNL     1     -43.303  56.266 -57.293  1.00  0.00     0.323 C 
HETATM    3  N   UNL     1     -43.882  56.192 -58.584  1.00  0.00    -0.324 N 
HETATM    4  C   UNL     1     -44.626  57.382 -59.073  1.00  0.00     0.139 C 
HETATM    5  C   UNL     1     -45.146  57.258 -60.527  1.00  0.00     0.032 C 
HETATM    6  C   UNL     1     -45.739  55.902 -60.850  1.00  0.00     0.004 C 
HETATM    7  C   UNL     1     -44.691  54.846 -60.563  1.00  0.00     0.020 C 
HETATM    8  C   UNL     1     -44.316  54.883 -59.093  1.00  0.00     0.128 C 
HETATM    9  O   UNL     1     -42.972  57.318 -56.755  1.00  0.00    -0.247 OA
HETATM   10  H   UNL     1     -43.863  54.356 -56.817  1.00  0.00     0.171 HD
ENDROOT
BRANCH   4  11
HETATM   11  C   UNL     1     -43.834  58.660 -59.029  1.00  0.00     0.033 A 
HETATM   12  N   UNL     1     -44.024  59.634 -58.077  1.00  0.00    -0.357 N 
HETATM   13  H   UNL     1     -44.762  59.621 -57.387  1.00  0.00     0.166 HD
HETATM   14  C   UNL     1     -43.098  60.643 -58.222  1.00  0.00     0.042 A 
HETATM   15  C   UNL     1     -42.314  60.323 -59.329  1.00  0.00    -0.007 A 
HETATM   16  C   UNL     1     -42.904  61.810 -57.472  1.00  0.00     0.030 A 
HETATM   17  C   UNL     1     -42.791  59.085 -59.834  1.00  0.00     0.041 A 
HETATM   18  C   UNL     1     -41.283  61.204 -59.709  1.00  0.00     0.014 A 
HETATM   19  C   UNL     1     -41.072  62.371 -58.968  1.00  0.00     0.001 A 
HETATM   20  C   UNL     1     -41.872  62.666 -57.866  1.00  0.00     0.002 A 
ENDBRANCH   4  11
BRANCH   1  21
HETATM   21  C   UNL     1     -42.385  54.807 -55.495  1.00  0.00     0.072 A 
HETATM   22  C   UNL     1     -42.977  55.113 -54.257  1.00  0.00     0.095 A 
HETATM   23  C   UNL     1     -42.337  54.812 -53.053  1.00  0.00     0.042 A 
HETATM   24  C   UNL     1     -41.072  54.230 -53.086  1.00  0.00     0.045 A 
HETATM   25  C   UNL     1     -40.473  53.952 -54.312  1.00  0.00     0.118 A 
HETATM   26  C   UNL     1     -41.115  54.234 -55.517  1.00  0.00     0.074 A 
HETATM   27  F   UNL     1     -39.261  53.381 -54.330  1.00  0.00    -0.206 F 
BRANCH  22  28
HETATM   28  O   UNL     1     -44.222  55.696 -54.226  1.00  0.00    -0.354 OA
HETATM   29  C   UNL     1     -44.160  56.912 -53.473  1.00  0.00     0.210 C 
ENDBRANCH  22  28
ENDBRANCH   1  21
TORSDOF 3
ENDMDL
MODEL 8
REMARK VINA RESULT:      -7.3      2.173      5.208
REMARK  3 active torsions:
REMARK  status: ('A' for Active; 'I' for Inactive)
REMARK    1  A    between atoms: O_2  and  C_3 
REMARK    2  A    between atoms: C_4  and  N_5 
REMARK       I    between atoms: N_5  and  C_6 
REMARK       I    between atoms: C_6  and  N_7 
REMARK    3  A    between atoms: C_8  and  C_9 
ROOT
HETATM    1  N   UNL     1     -41.873  54.280 -53.692  1.00  0.00    -0.306 N 
HETATM    2  C   UNL     1     -42.639  55.420 -53.544  1.00  0.00     0.323 C 
HETATM    3  N   UNL     1     -42.886  56.126 -54.748  1.00  0.00    -0.324 N 
HETATM    4  C   UNL     1     -44.119  56.953 -54.819  1.00  0.00     0.139 C 
HETATM    5  C   UNL     1     -44.269  57.767 -56.129  1.00  0.00     0.032 C 
HETATM    6  C   UNL     1     -43.894  56.992 -57.375  1.00  0.00     0.004 C 
HETATM    7  C   UNL     1     -42.473  56.493 -57.213  1.00  0.00     0.020 C 
HETATM    8  C   UNL     1     -42.388  55.567 -56.013  1.00  0.00     0.128 C 
HETATM    9  O   UNL     1     -43.069  55.770 -52.450  1.00  0.00    -0.247 OA
HETATM   10  H   UNL     1     -42.013  53.741 -54.534  1.00  0.00     0.171 HD
ENDROOT
BRANCH   4  11
HETATM   11  C   UNL     1     -44.253  57.950 -53.700  1.00  0.00     0.033 A 
HETATM   12  N   UNL     1     -45.169  57.823 -52.682  1.00  0.00    -0.357 N 
HETATM   13  H   UNL     1     -45.884  57.109 -52.643  1.00  0.00     0.166 HD
HETATM   14  C   UNL     1     -45.002  58.823 -51.750  1.00  0.00     0.042 A 
HETATM   15  C   UNL     1     -43.970  59.640 -52.209  1.00  0.00    -0.007 A 
HETATM   16  C   UNL     1     -45.686  59.072 -50.555  1.00  0.00     0.030 A 
HETATM   17  C   UNL     1     -43.516  59.090 -53.436  1.00  0.00     0.041 A 
HETATM   18  C   UNL     1     -43.597  60.759 -51.439  1.00  0.00     0.014 A 
HETATM   19  C   UNL     1     -44.266  61.020 -50.240  1.00  0.00     0.001 A 
HETATM   20  C   UNL     1     -45.295  60.186 -49.806  1.00  0.00     0.002 A 
ENDBRANCH   4  11
BRANCH   1  21
HETATM   21  C   UNL     1     -41.279  53.535 -52.649  1.00  0.00     0.072 A 
HETATM   22  C   UNL     1     -40.452  52.456 -53.009  1.00  0.00     0.095 A 
HETATM   23  C   UNL     1     -39.746  51.732 -52.047  1.00  0.00     0.042 A 
HETATM   24  C   UNL     1     -39.895  52.066 -50.703  1.00  0.00     0.045 A 
HETATM   25  C   UNL     1     -40.736  53.116 -50.344  1.00  0.00     0.118 A 
HETATM   26  C   UNL     1     -41.429  53.854 -51.301  1.00  0.00     0.074 A 
HETATM   27  F   UNL     1     -40.862  53.435 -49.049  1.00  0.00    -0.206 F 
BRANCH  22  28
HETATM   28  O   UNL     1     -40.313  52.121 -54.336  1.00  0.00    -0.354 OA
HETATM   29  C   UNL     1     -40.050  50.718 -54.448  1.00  0.00     0.210 C 
ENDBRANCH  22  28
ENDBRANCH   1  21
TORSDOF 3
ENDMDL
MODEL 9
REMARK VINA RESULT:      -7.1      3.137      5.579
REMARK  3 active torsions:
REMARK  status: ('A' for Active; 'I' for Inactive)
REMARK    1  A    between atoms: O_2  and  C_3 
REMARK    2  A    between atoms: C_4  and  N_5 
REMARK       I    between atoms: N_5  and  C_6 
REMARK       I    between atoms: C_6  and  N_7 
REMARK    3  A    between atoms: C_8  and  C_9 
ROOT
HETATM    1  N   UNL     1     -43.359  56.479 -55.581  1.00  0.00    -0.306 N 
HETATM    2  C   UNL     1     -43.288  57.550 -56.450  1.00  0.00     0.323 C 
HETATM    3  N   UNL     1     -43.354  57.203 -57.823  1.00  0.00    -0.324 N 
HETATM    4  C   UNL     1     -43.881  58.224 -58.765  1.00  0.00     0.139 C 
HETATM    5  C   UNL     1     -43.832  57.805 -60.255  1.00  0.00     0.032 C 
HETATM    6  C   UNL     1     -44.251  56.369 -60.499  1.00  0.00     0.004 C 
HETATM    7  C   UNL     1     -43.369  55.469 -59.659  1.00  0.00     0.020 C 
HETATM    8  C   UNL     1     -43.558  55.794 -58.188  1.00  0.00     0.128 C 
HETATM    9  O   UNL     1     -43.188  58.703 -56.044  1.00  0.00    -0.247 OA
HETATM   10  H   UNL     1     -43.963  55.714 -55.845  1.00  0.00     0.171 HD
ENDROOT
BRANCH   4  11
HETATM   11  C   UNL     1     -43.173  59.550 -58.690  1.00  0.00     0.033 A 
HETATM   12  N   UNL     1     -43.757  60.690 -58.187  1.00  0.00    -0.357 N 
HETATM   13  H   UNL     1     -44.726  60.760 -57.911  1.00  0.00     0.166 HD
HETATM   14  C   UNL     1     -42.849  61.724 -58.150  1.00  0.00     0.042 A 
HETATM   15  C   UNL     1     -41.656  61.241 -58.685  1.00  0.00    -0.007 A 
HETATM   16  C   UNL     1     -42.995  63.042 -57.701  1.00  0.00     0.030 A 
HETATM   17  C   UNL     1     -41.874  59.881 -59.029  1.00  0.00     0.041 A 
HETATM   18  C   UNL     1     -40.551  62.109 -58.774  1.00  0.00     0.014 A 
HETATM   19  C   UNL     1     -40.677  63.428 -58.325  1.00  0.00     0.001 A 
HETATM   20  C   UNL     1     -41.883  63.884 -57.796  1.00  0.00     0.002 A 
ENDBRANCH   4  11
BRANCH   1  21
HETATM   21  C   UNL     1     -43.076  56.509 -54.197  1.00  0.00     0.072 A 
HETATM   22  C   UNL     1     -41.759  56.223 -53.795  1.00  0.00     0.095 A 
HETATM   23  C   UNL     1     -41.369  56.328 -52.459  1.00  0.00     0.042 A 
HETATM   24  C   UNL     1     -42.317  56.690 -51.504  1.00  0.00     0.045 A 
HETATM   25  C   UNL     1     -43.627  56.946 -51.897  1.00  0.00     0.118 A 
HETATM   26  C   UNL     1     -44.018  56.860 -53.232  1.00  0.00     0.074 A 
HETATM   27  F   UNL     1     -44.526  57.305 -50.971  1.00  0.00    -0.206 F 
BRANCH  22  28
HETATM   28  O   UNL     1     -40.827  55.856 -54.738  1.00  0.00    -0.354 OA
HETATM   29  C   UNL     1     -40.435  54.496 -54.518  1.00  0.00     0.210 C 
ENDBRANCH  22  28
ENDBRANCH   1  21
TORSDOF 3
ENDMDL
MODEL 10
REMARK VINA RESULT:      -7.1      3.276      7.727
REMARK  3 active torsions:
REMARK  status: ('A' for Active; 'I' for Inactive)
REMARK    1  A    between atoms: O_2  and  C_3 
REMARK    2  A    between atoms: C_4  and  N_5 
REMARK       I    between atoms: N_5  and  C_6 
REMARK       I    between atoms: C_6  and  N_7 
REMARK    3  A    between atoms: C_8  and  C_9 
ROOT
HETATM    1  N   UNL     1     -43.541  56.474 -57.055  1.00  0.00    -0.306 N 
HETATM    2  C   UNL     1     -43.116  56.958 -55.834  1.00  0.00     0.323 C 
HETATM    3  N   UNL     1     -42.577  55.978 -54.964  1.00  0.00    -0.324 N 
HETATM    4  C   UNL     1     -41.587  56.427 -53.951  1.00  0.00     0.139 C 
HETATM    5  C   UNL     1     -41.117  55.316 -52.978  1.00  0.00     0.032 C 
HETATM    6  C   UNL     1     -40.849  53.987 -53.654  1.00  0.00     0.004 C 
HETATM    7  C   UNL     1     -42.107  53.564 -54.385  1.00  0.00     0.020 C 
HETATM    8  C   UNL     1     -42.454  54.594 -55.445  1.00  0.00     0.128 C 
HETATM    9  O   UNL     1     -43.197  58.149 -55.549  1.00  0.00    -0.247 OA
HETATM   10  H   UNL     1     -42.999  55.727 -57.465  1.00  0.00     0.171 HD
ENDROOT
BRANCH   4  11
HETATM   11  C   UNL     1     -42.068  57.556 -53.081  1.00  0.00     0.033 A 
HETATM   12  N   UNL     1     -43.360  57.653 -52.617  1.00  0.00    -0.357 N 
HETATM   13  H   UNL     1     -44.111  57.035 -52.888  1.00  0.00     0.166 HD
HETATM   14  C   UNL     1     -43.491  58.729 -51.768  1.00  0.00     0.042 A 
HETATM   15  C   UNL     1     -42.251  59.365 -51.719  1.00  0.00    -0.007 A 
HETATM   16  C   UNL     1     -44.604  59.192 -51.056  1.00  0.00     0.030 A 
HETATM   17  C   UNL     1     -41.371  58.628 -52.554  1.00  0.00     0.041 A 
HETATM   18  C   UNL     1     -42.109  60.516 -50.920  1.00  0.00     0.014 A 
HETATM   19  C   UNL     1     -43.209  60.989 -50.198  1.00  0.00     0.001 A 
HETATM   20  C   UNL     1     -44.437  60.334 -50.266  1.00  0.00     0.002 A 
ENDBRANCH   4  11
BRANCH   1  21
HETATM   21  C   UNL     1     -44.328  57.171 -57.999  1.00  0.00     0.072 A 
HETATM   22  C   UNL     1     -43.863  57.221 -59.325  1.00  0.00     0.095 A 
HETATM   23  C   UNL     1     -44.626  57.800 -60.340  1.00  0.00     0.042 A 
HETATM   24  C   UNL     1     -45.857  58.371 -60.021  1.00  0.00     0.045 A 
HETATM   25  C   UNL     1     -46.305  58.346 -58.703  1.00  0.00     0.118 A 
HETATM   26  C   UNL     1     -45.556  57.753 -57.689  1.00  0.00     0.074 A 
HETATM   27  F   UNL     1     -47.495  58.887 -58.410  1.00  0.00    -0.206 F 
BRANCH  22  28
HETATM   28  O   UNL     1     -42.643  56.666 -59.637  1.00  0.00    -0.354 OA
HETATM   29  C   UNL     1     -41.735  57.701 -60.029  1.00  0.00     0.210 C 
ENDBRANCH  22  28
ENDBRANCH   1  21
TORSDOF 3
ENDMDL
