MODEL 1
REMARK VINA RESULT:      -8.3      0.000      0.000
REMARK  2 active torsions:
REMARK  status: ('A' for Active; 'I' for Inactive)
REMARK    1  A    between atoms: C_9  and  N_10 
REMARK    2  A    between atoms: N_10  and  C_11 
ROOT
HETATM    1  C   UNL     1     -40.505  53.115 -54.825  1.00  0.00     0.050 C 
HETATM    2  C   UNL     1     -40.269  52.479 -53.491  1.00  0.00    -0.032 A 
HETATM    3  C   UNL     1     -40.464  53.138 -52.201  1.00  0.00     0.053 A 
HETATM    4  C   UNL     1     -40.091  52.295 -51.164  1.00  0.00     0.114 A 
HETATM    5  N   UNL     1     -40.101  52.570 -49.851  1.00  0.00    -0.226 NA
HETATM    6  C   UNL     1     -40.519  53.806 -49.579  1.00  0.00     0.125 A 
HETATM    7  C   UNL     1     -40.563  54.220 -48.140  1.00  0.00     0.093 C 
HETATM    8  N   UNL     1     -40.919  54.714 -50.481  1.00  0.00    -0.215 NA
HETATM    9  C   UNL     1     -40.920  54.423 -51.804  1.00  0.00     0.143 A 
HETATM   10  S   UNL     1     -39.587  50.764 -51.694  1.00  0.00    -0.074 SA
HETATM   11  C   UNL     1     -39.818  51.173 -53.334  1.00  0.00    -0.012 A 
HETATM   12  C   UNL     1     -39.511  50.159 -54.388  1.00  0.00     0.057 C 
ENDROOT
BRANCH   9  13
HETATM   13  N   UNL     1     -41.410  55.364 -52.725  1.00  0.00    -0.340 N 
HETATM   14  H   UNL     1     -41.315  55.072 -53.683  1.00  0.00     0.167 HD
BRANCH  13  15
HETATM   15  C   UNL     1     -42.178  56.529 -52.550  1.00  0.00     0.036 A 
HETATM   16  C   UNL     1     -43.426  56.545 -51.917  1.00  0.00     0.069 A 
HETATM   17  C   UNL     1     -44.144  57.735 -51.771  1.00  0.00     0.104 A 
HETATM   18  C   UNL     1     -43.638  58.929 -52.290  1.00  0.00     0.102 A 
HETATM   19  O   UNL     1     -45.345  57.656 -51.111  1.00  0.00    -0.346 OA
HETATM   20  O   UNL     1     -44.302  60.125 -52.218  1.00  0.00    -0.346 OA
HETATM   21  C   UNL     1     -42.393  58.939 -52.909  1.00  0.00     0.042 A 
HETATM   22  C   UNL     1     -45.680  59.934 -51.877  1.00  0.00     0.202 C 
HETATM   23  C   UNL     1     -45.817  58.951 -50.726  1.00  0.00     0.202 C 
HETATM   24  C   UNL     1     -41.671  57.748 -53.036  1.00  0.00     0.032 A 
ENDBRANCH  13  15
ENDBRANCH   9  13
TORSDOF 2
ENDMDL
MODEL 2
REMARK VINA RESULT:      -8.0      3.874      7.600
REMARK  2 active torsions:
REMARK  status: ('A' for Active; 'I' for Inactive)
REMARK    1  A    between atoms: C_9  and  N_10 
REMARK    2  A    between atoms: N_10  and  C_11 
ROOT
HETATM    1  C   UNL     1     -41.767  57.026 -51.517  1.00  0.00     0.050 C 
HETATM    2  C   UNL     1     -42.766  57.247 -52.610  1.00  0.00    -0.032 A 
HETATM    3  C   UNL     1     -42.650  56.725 -53.970  1.00  0.00     0.053 A 
HETATM    4  C   UNL     1     -43.707  57.169 -54.752  1.00  0.00     0.114 A 
HETATM    5  N   UNL     1     -43.914  56.920 -56.053  1.00  0.00    -0.226 NA
HETATM    6  C   UNL     1     -42.962  56.165 -56.599  1.00  0.00     0.125 A 
HETATM    7  C   UNL     1     -43.092  55.831 -58.054  1.00  0.00     0.093 C 
HETATM    8  N   UNL     1     -41.897  55.661 -55.958  1.00  0.00    -0.215 NA
HETATM    9  C   UNL     1     -41.704  55.904 -54.639  1.00  0.00     0.143 A 
HETATM   10  S   UNL     1     -44.823  58.116 -53.893  1.00  0.00    -0.074 SA
HETATM   11  C   UNL     1     -43.925  57.998 -52.448  1.00  0.00    -0.012 A 
HETATM   12  C   UNL     1     -44.425  58.690 -51.221  1.00  0.00     0.057 C 
ENDROOT
BRANCH   9  13
HETATM   13  N   UNL     1     -40.621  55.308 -53.972  1.00  0.00    -0.340 N 
HETATM   14  H   UNL     1     -39.948  55.974 -53.628  1.00  0.00     0.167 HD
BRANCH  13  15
HETATM   15  C   UNL     1     -40.410  53.991 -53.525  1.00  0.00     0.036 A 
HETATM   16  C   UNL     1     -40.370  53.629 -52.174  1.00  0.00     0.069 A 
HETATM   17  C   UNL     1     -40.157  52.303 -51.791  1.00  0.00     0.104 A 
HETATM   18  C   UNL     1     -39.945  51.317 -52.757  1.00  0.00     0.102 A 
HETATM   19  O   UNL     1     -40.164  52.040 -50.444  1.00  0.00    -0.346 OA
HETATM   20  O   UNL     1     -39.693  50.004 -52.455  1.00  0.00    -0.346 OA
HETATM   21  C   UNL     1     -39.995  51.651 -54.106  1.00  0.00     0.042 A 
HETATM   22  C   UNL     1     -39.334  49.849 -51.077  1.00  0.00     0.202 C 
HETATM   23  C   UNL     1     -40.278  50.637 -50.185  1.00  0.00     0.202 C 
HETATM   24  C   UNL     1     -40.226  52.978 -54.484  1.00  0.00     0.032 A 
ENDBRANCH  13  15
ENDBRANCH   9  13
TORSDOF 2
ENDMDL
MODEL 3
REMARK VINA RESULT:      -8.0      3.965      7.064
REMARK  2 active torsions:
REMARK  status: ('A' for Active; 'I' for Inactive)
REMARK    1  A    between atoms: C_9  and  N_10 
REMARK    2  A    between atoms: N_10  and  C_11 
ROOT
HETATM    1  C   UNL     1     -43.622  55.990 -54.942  1.00  0.00     0.050 C 
HETATM    2  C   UNL     1     -42.853  57.263 -54.765  1.00  0.00    -0.032 A 
HETATM    3  C   UNL     1     -42.057  57.606 -53.589  1.00  0.00     0.053 A 
HETATM    4  C   UNL     1     -41.531  58.883 -53.714  1.00  0.00     0.114 A 
HETATM    5  N   UNL     1     -40.781  59.543 -52.820  1.00  0.00    -0.226 NA
HETATM    6  C   UNL     1     -40.557  58.845 -51.708  1.00  0.00     0.125 A 
HETATM    7  C   UNL     1     -39.733  59.492 -50.637  1.00  0.00     0.093 C 
HETATM    8  N   UNL     1     -40.994  57.600 -51.463  1.00  0.00    -0.215 NA
HETATM    9  C   UNL     1     -41.738  56.935 -52.378  1.00  0.00     0.143 A 
HETATM   10  S   UNL     1     -41.916  59.623 -55.192  1.00  0.00    -0.074 SA
HETATM   11  C   UNL     1     -42.827  58.279 -55.714  1.00  0.00    -0.012 A 
HETATM   12  C   UNL     1     -43.489  58.323 -57.053  1.00  0.00     0.057 C 
ENDROOT
BRANCH   9  13
HETATM   13  N   UNL     1     -42.125  55.607 -52.131  1.00  0.00    -0.340 N 
HETATM   14  H   UNL     1     -43.122  55.489 -52.050  1.00  0.00     0.167 HD
BRANCH  13  15
HETATM   15  C   UNL     1     -41.404  54.400 -52.176  1.00  0.00     0.036 A 
HETATM   16  C   UNL     1     -41.455  53.509 -53.253  1.00  0.00     0.069 A 
HETATM   17  C   UNL     1     -40.713  52.324 -53.242  1.00  0.00     0.104 A 
HETATM   18  C   UNL     1     -39.932  51.994 -52.132  1.00  0.00     0.102 A 
HETATM   19  O   UNL     1     -40.805  51.527 -54.356  1.00  0.00    -0.346 OA
HETATM   20  O   UNL     1     -39.210  50.834 -52.035  1.00  0.00    -0.346 OA
HETATM   21  C   UNL     1     -39.855  52.873 -51.057  1.00  0.00     0.042 A 
HETATM   22  C   UNL     1     -39.625  49.880 -53.020  1.00  0.00     0.202 C 
HETATM   23  C   UNL     1     -39.768  50.541 -54.380  1.00  0.00     0.202 C 
HETATM   24  C   UNL     1     -40.585  54.065 -51.082  1.00  0.00     0.032 A 
ENDBRANCH  13  15
ENDBRANCH   9  13
TORSDOF 2
ENDMDL
MODEL 4
REMARK VINA RESULT:      -7.9      2.196      2.516
REMARK  2 active torsions:
REMARK  status: ('A' for Active; 'I' for Inactive)
REMARK    1  A    between atoms: C_9  and  N_10 
REMARK    2  A    between atoms: N_10  and  C_11 
ROOT
HETATM    1  C   UNL     1     -41.573  53.387 -54.639  1.00  0.00     0.050 C 
HETATM    2  C   UNL     1     -40.923  52.807 -53.421  1.00  0.00    -0.032 A 
HETATM    3  C   UNL     1     -41.019  53.365 -52.073  1.00  0.00     0.053 A 
HETATM    4  C   UNL     1     -40.246  52.629 -51.187  1.00  0.00     0.114 A 
HETATM    5  N   UNL     1     -40.065  52.864 -49.879  1.00  0.00    -0.226 NA
HETATM    6  C   UNL     1     -40.720  53.940 -49.446  1.00  0.00     0.125 A 
HETATM    7  C   UNL     1     -40.582  54.299 -47.998  1.00  0.00     0.093 C 
HETATM    8  N   UNL     1     -41.509  54.731 -50.190  1.00  0.00    -0.215 NA
HETATM    9  C   UNL     1     -41.698  54.476 -51.507  1.00  0.00     0.143 A 
HETATM   10  S   UNL     1     -39.486  51.295 -51.910  1.00  0.00    -0.074 SA
HETATM   11  C   UNL     1     -40.134  51.663 -53.445  1.00  0.00    -0.012 A 
HETATM   12  C   UNL     1     -39.795  50.788 -54.608  1.00  0.00     0.057 C 
ENDROOT
BRANCH   9  13
HETATM   13  N   UNL     1     -42.584  55.274 -52.250  1.00  0.00    -0.340 N 
HETATM   14  H   UNL     1     -43.553  55.069 -52.072  1.00  0.00     0.167 HD
BRANCH  13  15
HETATM   15  C   UNL     1     -42.372  56.423 -53.034  1.00  0.00     0.036 A 
HETATM   16  C   UNL     1     -43.209  56.805 -54.088  1.00  0.00     0.069 A 
HETATM   17  C   UNL     1     -42.949  57.959 -54.831  1.00  0.00     0.104 A 
HETATM   18  C   UNL     1     -41.821  58.735 -54.553  1.00  0.00     0.102 A 
HETATM   19  O   UNL     1     -43.842  58.268 -55.826  1.00  0.00    -0.346 OA
HETATM   20  O   UNL     1     -41.482  59.857 -55.263  1.00  0.00    -0.346 OA
HETATM   21  C   UNL     1     -40.984  58.382 -53.501  1.00  0.00     0.042 A 
HETATM   22  C   UNL     1     -42.203  59.925 -56.500  1.00  0.00     0.202 C 
HETATM   23  C   UNL     1     -43.674  59.615 -56.281  1.00  0.00     0.202 C 
HETATM   24  C   UNL     1     -41.260  57.236 -52.749  1.00  0.00     0.032 A 
ENDBRANCH  13  15
ENDBRANCH   9  13
TORSDOF 2
ENDMDL
MODEL 5
REMARK VINA RESULT:      -7.8      3.632      5.214
REMARK  2 active torsions:
REMARK  status: ('A' for Active; 'I' for Inactive)
REMARK    1  A    between atoms: C_9  and  N_10 
REMARK    2  A    between atoms: N_10  and  C_11 
ROOT
HETATM    1  C   UNL     1     -42.982  55.574 -51.240  1.00  0.00     0.050 C 
HETATM    2  C   UNL     1     -41.864  54.582 -51.160  1.00  0.00    -0.032 A 
HETATM    3  C   UNL     1     -41.465  53.679 -52.238  1.00  0.00     0.053 A 
HETATM    4  C   UNL     1     -40.442  52.842 -51.816  1.00  0.00     0.114 A 
HETATM    5  N   UNL     1     -39.848  51.867 -52.520  1.00  0.00    -0.226 NA
HETATM    6  C   UNL     1     -40.346  51.733 -53.749  1.00  0.00     0.125 A 
HETATM    7  C   UNL     1     -39.758  50.666 -54.621  1.00  0.00     0.093 C 
HETATM    8  N   UNL     1     -41.322  52.480 -54.286  1.00  0.00    -0.215 NA
HETATM    9  C   UNL     1     -41.905  53.473 -53.572  1.00  0.00     0.143 A 
HETATM   10  S   UNL     1     -39.933  53.155 -50.227  1.00  0.00    -0.074 SA
HETATM   11  C   UNL     1     -41.081  54.401 -50.026  1.00  0.00    -0.012 A 
HETATM   12  C   UNL     1     -41.148  55.126 -48.720  1.00  0.00     0.057 C 
ENDROOT
BRANCH   9  13
HETATM   13  N   UNL     1     -42.876  54.289 -54.177  1.00  0.00    -0.340 N 
HETATM   14  H   UNL     1     -43.769  54.259 -53.713  1.00  0.00     0.167 HD
BRANCH  13  15
HETATM   15  C   UNL     1     -42.777  55.277 -55.173  1.00  0.00     0.036 A 
HETATM   16  C   UNL     1     -42.935  55.017 -56.539  1.00  0.00     0.069 A 
HETATM   17  C   UNL     1     -42.826  56.041 -57.483  1.00  0.00     0.104 A 
HETATM   18  C   UNL     1     -42.522  57.342 -57.078  1.00  0.00     0.102 A 
HETATM   19  O   UNL     1     -43.026  55.694 -58.797  1.00  0.00    -0.346 OA
HETATM   20  O   UNL     1     -42.363  58.387 -57.950  1.00  0.00    -0.346 OA
HETATM   21  C   UNL     1     -42.375  57.626 -55.725  1.00  0.00     0.042 A 
HETATM   22  C   UNL     1     -42.201  57.921 -59.295  1.00  0.00     0.202 C 
HETATM   23  C   UNL     1     -43.228  56.849 -59.618  1.00  0.00     0.202 C 
HETATM   24  C   UNL     1     -42.502  56.600 -54.783  1.00  0.00     0.032 A 
ENDBRANCH  13  15
ENDBRANCH   9  13
TORSDOF 2
ENDMDL
MODEL 6
REMARK VINA RESULT:      -7.7      4.469      5.611
REMARK  2 active torsions:
REMARK  status: ('A' for Active; 'I' for Inactive)
REMARK    1  A    between atoms: C_9  and  N_10 
REMARK    2  A    between atoms: N_10  and  C_11 
ROOT
HETATM    1  C   UNL     1     -40.109  54.250 -54.909  1.00  0.00     0.050 C 
HETATM    2  C   UNL     1     -40.879  54.314 -53.626  1.00  0.00    -0.032 A 
HETATM    3  C   UNL     1     -41.846  55.354 -53.279  1.00  0.00     0.053 A 
HETATM    4  C   UNL     1     -42.328  55.158 -51.993  1.00  0.00     0.114 A 
HETATM    5  N   UNL     1     -43.201  55.929 -51.328  1.00  0.00    -0.226 NA
HETATM    6  C   UNL     1     -43.605  56.987 -52.030  1.00  0.00     0.125 A 
HETATM    7  C   UNL     1     -44.579  57.920 -51.378  1.00  0.00     0.093 C 
HETATM    8  N   UNL     1     -43.229  57.287 -53.282  1.00  0.00    -0.215 NA
HETATM    9  C   UNL     1     -42.359  56.494 -53.952  1.00  0.00     0.143 A 
HETATM   10  S   UNL     1     -41.707  53.764 -51.250  1.00  0.00    -0.074 SA
HETATM   11  C   UNL     1     -40.743  53.381 -52.604  1.00  0.00    -0.012 A 
HETATM   12  C   UNL     1     -39.878  52.163 -52.561  1.00  0.00     0.057 C 
ENDROOT
BRANCH   9  13
HETATM   13  N   UNL     1     -42.033  56.788 -55.287  1.00  0.00    -0.340 N 
HETATM   14  H   UNL     1     -41.044  56.885 -55.445  1.00  0.00     0.167 HD
BRANCH  13  15
HETATM   15  C   UNL     1     -42.807  56.773 -56.462  1.00  0.00     0.036 A 
HETATM   16  C   UNL     1     -42.965  55.641 -57.269  1.00  0.00     0.069 A 
HETATM   17  C   UNL     1     -43.748  55.686 -58.426  1.00  0.00     0.104 A 
HETATM   18  C   UNL     1     -44.359  56.879 -58.814  1.00  0.00     0.102 A 
HETATM   19  O   UNL     1     -43.867  54.518 -59.137  1.00  0.00    -0.346 OA
HETATM   20  O   UNL     1     -45.110  57.008 -59.954  1.00  0.00    -0.346 OA
HETATM   21  C   UNL     1     -44.228  58.013 -58.019  1.00  0.00     0.042 A 
HETATM   22  C   UNL     1     -44.896  55.904 -60.842  1.00  0.00     0.202 C 
HETATM   23  C   UNL     1     -44.939  54.589 -60.083  1.00  0.00     0.202 C 
HETATM   24  C   UNL     1     -43.458  57.957 -56.853  1.00  0.00     0.032 A 
ENDBRANCH  13  15
ENDBRANCH   9  13
TORSDOF 2
ENDMDL
MODEL 7
REMARK VINA RESULT:      -7.6      3.635      4.804
REMARK  2 active torsions:
REMARK  status: ('A' for Active; 'I' for Inactive)
REMARK    1  A    between atoms: C_9  and  N_10 
REMARK    2  A    between atoms: N_10  and  C_11 
ROOT
HETATM    1  C   UNL     1     -40.439  52.713 -54.561  1.00  0.00     0.050 C 
HETATM    2  C   UNL     1     -40.845  53.156 -53.190  1.00  0.00    -0.032 A 
HETATM    3  C   UNL     1     -41.841  54.187 -52.902  1.00  0.00     0.053 A 
HETATM    4  C   UNL     1     -41.931  54.405 -51.535  1.00  0.00     0.114 A 
HETATM    5  N   UNL     1     -42.711  55.297 -50.906  1.00  0.00    -0.226 NA
HETATM    6  C   UNL     1     -43.450  56.026 -51.741  1.00  0.00     0.125 A 
HETATM    7  C   UNL     1     -44.355  57.060 -51.142  1.00  0.00     0.093 C 
HETATM    8  N   UNL     1     -43.468  55.910 -53.077  1.00  0.00    -0.215 NA
HETATM    9  C   UNL     1     -42.689  54.996 -53.703  1.00  0.00     0.143 A 
HETATM   10  S   UNL     1     -40.922  53.388 -50.626  1.00  0.00    -0.074 SA
HETATM   11  C   UNL     1     -40.298  52.634 -52.023  1.00  0.00    -0.012 A 
HETATM   12  C   UNL     1     -39.268  51.561 -51.874  1.00  0.00     0.057 C 
ENDROOT
BRANCH   9  13
HETATM   13  N   UNL     1     -42.776  54.843 -55.097  1.00  0.00    -0.340 N 
HETATM   14  H   UNL     1     -43.062  53.920 -55.381  1.00  0.00     0.167 HD
BRANCH  13  15
HETATM   15  C   UNL     1     -42.734  55.782 -56.144  1.00  0.00     0.036 A 
HETATM   16  C   UNL     1     -42.407  57.130 -55.961  1.00  0.00     0.069 A 
HETATM   17  C   UNL     1     -42.380  58.016 -57.041  1.00  0.00     0.104 A 
HETATM   18  C   UNL     1     -42.715  57.573 -58.323  1.00  0.00     0.102 A 
HETATM   19  O   UNL     1     -42.020  59.312 -56.768  1.00  0.00    -0.346 OA
HETATM   20  O   UNL     1     -42.746  58.392 -59.421  1.00  0.00    -0.346 OA
HETATM   21  C   UNL     1     -43.028  56.234 -58.530  1.00  0.00     0.042 A 
HETATM   22  C   UNL     1     -42.743  59.773 -59.039  1.00  0.00     0.202 C 
HETATM   23  C   UNL     1     -41.699  60.029 -57.965  1.00  0.00     0.202 C 
HETATM   24  C   UNL     1     -43.036  55.348 -57.448  1.00  0.00     0.032 A 
ENDBRANCH  13  15
ENDBRANCH   9  13
TORSDOF 2
ENDMDL
MODEL 8
REMARK VINA RESULT:      -7.5      3.842      7.000
REMARK  2 active torsions:
REMARK  status: ('A' for Active; 'I' for Inactive)
REMARK    1  A    between atoms: C_9  and  N_10 
REMARK    2  A    between atoms: N_10  and  C_11 
ROOT
HETATM    1  C   UNL     1     -43.312  55.822 -55.846  1.00  0.00     0.050 C 
HETATM    2  C   UNL     1     -43.539  56.968 -54.910  1.00  0.00    -0.032 A 
HETATM    3  C   UNL     1     -42.679  57.310 -53.778  1.00  0.00     0.053 A 
HETATM    4  C   UNL     1     -43.207  58.383 -53.074  1.00  0.00     0.114 A 
HETATM    5  N   UNL     1     -42.711  58.948 -51.964  1.00  0.00    -0.226 NA
HETATM    6  C   UNL     1     -41.592  58.365 -51.536  1.00  0.00     0.125 A 
HETATM    7  C   UNL     1     -40.955  58.914 -50.296  1.00  0.00     0.093 C 
HETATM    8  N   UNL     1     -40.970  57.332 -52.126  1.00  0.00    -0.215 NA
HETATM    9  C   UNL     1     -41.470  56.778 -53.256  1.00  0.00     0.143 A 
HETATM   10  S   UNL     1     -44.631  58.998 -53.762  1.00  0.00    -0.074 SA
HETATM   11  C   UNL     1     -44.619  57.837 -55.011  1.00  0.00    -0.012 A 
HETATM   12  C   UNL     1     -45.716  57.848 -56.026  1.00  0.00     0.057 C 
ENDROOT
BRANCH   9  13
HETATM   13  N   UNL     1     -40.766  55.745 -53.897  1.00  0.00    -0.340 N 
HETATM   14  H   UNL     1     -40.219  56.060 -54.681  1.00  0.00     0.167 HD
BRANCH  13  15
HETATM   15  C   UNL     1     -40.530  54.408 -53.528  1.00  0.00     0.036 A 
HETATM   16  C   UNL     1     -40.454  53.974 -52.200  1.00  0.00     0.069 A 
HETATM   17  C   UNL     1     -40.218  52.630 -51.895  1.00  0.00     0.104 A 
HETATM   18  C   UNL     1     -40.018  51.702 -52.919  1.00  0.00     0.102 A 
HETATM   19  O   UNL     1     -40.189  52.295 -50.565  1.00  0.00    -0.346 OA
HETATM   20  O   UNL     1     -39.745  50.378 -52.695  1.00  0.00    -0.346 OA
HETATM   21  C   UNL     1     -40.104  52.108 -54.246  1.00  0.00     0.042 A 
HETATM   22  C   UNL     1     -39.351  50.152 -51.336  1.00  0.00     0.202 C 
HETATM   23  C   UNL     1     -40.282  50.878 -50.380  1.00  0.00     0.202 C 
HETATM   24  C   UNL     1     -40.359  53.450 -54.545  1.00  0.00     0.032 A 
ENDBRANCH  13  15
ENDBRANCH   9  13
TORSDOF 2
ENDMDL
MODEL 9
REMARK VINA RESULT:      -7.5      2.325      4.003
REMARK  2 active torsions:
REMARK  status: ('A' for Active; 'I' for Inactive)
REMARK    1  A    between atoms: C_9  and  N_10 
REMARK    2  A    between atoms: N_10  and  C_11 
ROOT
HETATM    1  C   UNL     1     -40.969  55.318 -50.979  1.00  0.00     0.050 C 
HETATM    2  C   UNL     1     -40.590  53.870 -50.926  1.00  0.00    -0.032 A 
HETATM    3  C   UNL     1     -40.337  53.026 -52.092  1.00  0.00     0.053 A 
HETATM    4  C   UNL     1     -40.077  51.721 -51.699  1.00  0.00     0.114 A 
HETATM    5  N   UNL     1     -39.834  50.668 -52.493  1.00  0.00    -0.226 NA
HETATM    6  C   UNL     1     -39.867  50.972 -53.790  1.00  0.00     0.125 A 
HETATM    7  C   UNL     1     -39.615  49.865 -54.767  1.00  0.00     0.093 C 
HETATM    8  N   UNL     1     -40.093  52.190 -54.304  1.00  0.00    -0.215 NA
HETATM    9  C   UNL     1     -40.322  53.252 -53.494  1.00  0.00     0.143 A 
HETATM   10  S   UNL     1     -40.073  51.517 -50.014  1.00  0.00    -0.074 SA
HETATM   11  C   UNL     1     -40.449  53.159 -49.740  1.00  0.00    -0.012 A 
HETATM   12  C   UNL     1     -40.605  53.645 -48.335  1.00  0.00     0.057 C 
ENDROOT
BRANCH   9  13
HETATM   13  N   UNL     1     -40.486  54.531 -54.051  1.00  0.00    -0.340 N 
HETATM   14  H   UNL     1     -39.656  54.881 -54.499  1.00  0.00     0.167 HD
BRANCH  13  15
HETATM   15  C   UNL     1     -41.634  55.314 -54.269  1.00  0.00     0.036 A 
HETATM   16  C   UNL     1     -41.600  56.701 -54.449  1.00  0.00     0.069 A 
HETATM   17  C   UNL     1     -42.775  57.427 -54.664  1.00  0.00     0.104 A 
HETATM   18  C   UNL     1     -44.012  56.778 -54.667  1.00  0.00     0.102 A 
HETATM   19  O   UNL     1     -42.639  58.779 -54.860  1.00  0.00    -0.346 OA
HETATM   20  O   UNL     1     -45.206  57.430 -54.833  1.00  0.00    -0.346 OA
HETATM   21  C   UNL     1     -44.067  55.399 -54.504  1.00  0.00     0.042 A 
HETATM   22  C   UNL     1     -45.056  58.843 -54.652  1.00  0.00     0.202 C 
HETATM   23  C   UNL     1     -43.835  59.352 -55.399  1.00  0.00     0.202 C 
HETATM   24  C   UNL     1     -42.887  54.675 -54.308  1.00  0.00     0.032 A 
ENDBRANCH  13  15
ENDBRANCH   9  13
TORSDOF 2
ENDMDL
MODEL 10
REMARK VINA RESULT:      -7.5      4.467      5.444
REMARK  2 active torsions:
REMARK  status: ('A' for Active; 'I' for Inactive)
REMARK    1  A    between atoms: C_9  and  N_10 
REMARK    2  A    between atoms: N_10  and  C_11 
ROOT
HETATM    1  C   UNL     1     -40.167  54.200 -55.086  1.00  0.00     0.050 C 
HETATM    2  C   UNL     1     -40.933  54.216 -53.800  1.00  0.00    -0.032 A 
HETATM    3  C   UNL     1     -41.930  55.218 -53.430  1.00  0.00     0.053 A 
HETATM    4  C   UNL     1     -42.401  54.983 -52.146  1.00  0.00     0.114 A 
HETATM    5  N   UNL     1     -43.295  55.714 -51.463  1.00  0.00    -0.226 NA
HETATM    6  C   UNL     1     -43.735  56.771 -52.144  1.00  0.00     0.125 A 
HETATM    7  C   UNL     1     -44.734  57.662 -51.470  1.00  0.00     0.093 C 
HETATM    8  N   UNL     1     -43.373  57.107 -53.391  1.00  0.00    -0.215 NA
HETATM    9  C   UNL     1     -42.481  56.354 -54.080  1.00  0.00     0.143 A 
HETATM   10  S   UNL     1     -41.733  53.596 -51.432  1.00  0.00    -0.074 SA
HETATM   11  C   UNL     1     -40.764  53.269 -52.796  1.00  0.00    -0.012 A 
HETATM   12  C   UNL     1     -39.861  52.078 -52.779  1.00  0.00     0.057 C 
ENDROOT
BRANCH   9  13
HETATM   13  N   UNL     1     -42.170  56.683 -55.409  1.00  0.00    -0.340 N 
HETATM   14  H   UNL     1     -41.187  56.828 -55.566  1.00  0.00     0.167 HD
BRANCH  13  15
HETATM   15  C   UNL     1     -42.943  56.650 -56.585  1.00  0.00     0.036 A 
HETATM   16  C   UNL     1     -43.795  57.688 -56.979  1.00  0.00     0.069 A 
HETATM   17  C   UNL     1     -44.537  57.599 -58.160  1.00  0.00     0.104 A 
HETATM   18  C   UNL     1     -44.465  56.450 -58.951  1.00  0.00     0.102 A 
HETATM   19  O   UNL     1     -45.322  58.678 -58.479  1.00  0.00    -0.346 OA
HETATM   20  O   UNL     1     -45.191  56.278 -60.100  1.00  0.00    -0.346 OA
HETATM   21  C   UNL     1     -43.614  55.413 -58.585  1.00  0.00     0.042 A 
HETATM   22  C   UNL     1     -46.256  57.232 -60.189  1.00  0.00     0.202 C 
HETATM   23  C   UNL     1     -45.758  58.625 -59.841  1.00  0.00     0.202 C 
HETATM   24  C   UNL     1     -42.860  55.515 -57.412  1.00  0.00     0.032 A 
ENDBRANCH  13  15
ENDBRANCH   9  13
TORSDOF 2
ENDMDL
