MODEL 1
REMARK VINA RESULT:      -9.4      0.000      0.000
REMARK  6 active torsions:
REMARK  status: ('A' for Active; 'I' for Inactive)
REMARK    1  A    between atoms: O_2  and  C_3 
REMARK    2  A    between atoms: C_6  and  C_7 
REMARK    3  A    between atoms: C_7  and  N_8 
REMARK       I    between atoms: N_8  and  C_9 
REMARK    4  A    between atoms: C_9  and  C_10 
REMARK    5  A    between atoms: C_13  and  C_14 
REMARK    6  A    between atoms: C_19  and  C_20 
ROOT
HETATM    1  C   UNL     1     -42.641  56.023 -55.532  1.00  0.00     0.096 A 
HETATM    2  C   UNL     1     -42.067  55.341 -54.475  1.00  0.00     0.138 A 
HETATM    3  N   UNL     1     -42.175  56.174 -53.384  1.00  0.00    -0.240 N 
HETATM    4  C   UNL     1     -41.630  55.881 -52.069  1.00  0.00     0.221 C 
HETATM    5  C   UNL     1     -41.290  54.385 -51.942  1.00  0.00     0.066 C 
HETATM    6  C   UNL     1     -40.587  53.891 -53.210  1.00  0.00     0.118 C 
HETATM    7  N   UNL     1     -41.456  54.129 -54.368  1.00  0.00    -0.365 N 
HETATM    8  N   UNL     1     -42.629  57.399 -53.692  1.00  0.00    -0.181 NA
HETATM    9  C   UNL     1     -42.944  57.295 -54.987  1.00  0.00     0.160 A 
HETATM   10  H   UNL     1     -41.073  53.712 -55.219  1.00  0.00     0.161 HD
ENDROOT
BRANCH   1  11
HETATM   11  C   UNL     1     -42.843  55.610 -56.907  1.00  0.00     0.257 C 
HETATM   12  N   UNL     1     -42.474  56.540 -57.850  1.00  0.00    -0.352 N 
HETATM   13  H   UNL     1     -41.926  57.334 -57.543  1.00  0.00     0.163 HD
HETATM   14  O   UNL     1     -43.293  54.505 -57.190  1.00  0.00    -0.267 OA
BRANCH  12  15
HETATM   15  C   UNL     1     -42.612  56.296 -59.266  1.00  0.00     0.161 C 
BRANCH  15  16
HETATM   16  C   UNL     1     -44.047  56.357 -59.725  1.00  0.00    -0.040 A 
HETATM   17  C   UNL     1     -44.551  55.422 -60.638  1.00  0.00     0.011 A 
HETATM   18  C   UNL     1     -45.897  55.448 -61.010  1.00  0.00     0.037 A 
HETATM   19  C   UNL     1     -46.768  56.392 -60.466  1.00  0.00     0.068 A 
HETATM   20  C   UNL     1     -46.274  57.335 -59.566  1.00  0.00     0.037 A 
HETATM   21  C   UNL     1     -44.924  57.316 -59.197  1.00  0.00     0.011 A 
BRANCH  19  22
HETATM   22  O   UNL     1     -48.065  56.295 -60.891  1.00  0.00    -0.356 OA
HETATM   23  C   UNL     1     -48.357  56.853 -62.166  1.00  0.00     0.210 C 
ENDBRANCH  19  22
ENDBRANCH  15  16
ENDBRANCH  12  15
ENDBRANCH   1  11
BRANCH   4  24
HETATM   24  C   UNL     1     -42.581  56.281 -50.962  1.00  0.00     0.409 C 
HETATM   25  F   UNL     1     -43.866  55.971 -51.247  1.00  0.00    -0.169 F 
HETATM   26  F   UNL     1     -42.264  55.603 -49.825  1.00  0.00    -0.169 F 
HETATM   27  F   UNL     1     -42.520  57.590 -50.641  1.00  0.00    -0.169 F 
ENDBRANCH   4  24
BRANCH   6  28
HETATM   28  C   UNL     1     -40.241  52.418 -53.135  1.00  0.00    -0.035 A 
HETATM   29  C   UNL     1     -40.334  51.586 -54.263  1.00  0.00     0.009 A 
HETATM   30  C   UNL     1     -40.024  50.228 -54.175  1.00  0.00     0.001 A 
HETATM   31  C   UNL     1     -39.614  49.684 -52.961  1.00  0.00     0.000 A 
HETATM   32  C   UNL     1     -39.510  50.497 -51.834  1.00  0.00     0.001 A 
HETATM   33  C   UNL     1     -39.821  51.855 -51.919  1.00  0.00     0.009 A 
ENDBRANCH   6  28
TORSDOF 6
ENDMDL
MODEL 2
REMARK VINA RESULT:      -9.0      2.705      3.526
REMARK  6 active torsions:
REMARK  status: ('A' for Active; 'I' for Inactive)
REMARK    1  A    between atoms: O_2  and  C_3 
REMARK    2  A    between atoms: C_6  and  C_7 
REMARK    3  A    between atoms: C_7  and  N_8 
REMARK       I    between atoms: N_8  and  C_9 
REMARK    4  A    between atoms: C_9  and  C_10 
REMARK    5  A    between atoms: C_13  and  C_14 
REMARK    6  A    between atoms: C_19  and  C_20 
ROOT
HETATM    1  C   UNL     1     -42.176  56.268 -54.773  1.00  0.00     0.096 A 
HETATM    2  C   UNL     1     -41.623  55.399 -53.850  1.00  0.00     0.138 A 
HETATM    3  N   UNL     1     -41.602  56.081 -52.654  1.00  0.00    -0.240 N 
HETATM    4  C   UNL     1     -41.029  55.563 -51.423  1.00  0.00     0.221 C 
HETATM    5  C   UNL     1     -40.829  54.039 -51.515  1.00  0.00     0.066 C 
HETATM    6  C   UNL     1     -40.234  53.664 -52.876  1.00  0.00     0.118 C 
HETATM    7  N   UNL     1     -41.128  54.134 -53.940  1.00  0.00    -0.365 N 
HETATM    8  N   UNL     1     -41.950  57.372 -52.771  1.00  0.00    -0.181 NA
HETATM    9  C   UNL     1     -42.331  57.475 -54.048  1.00  0.00     0.160 A 
HETATM   10  H   UNL     1     -40.826  53.805 -54.859  1.00  0.00     0.161 HD
ENDROOT
BRANCH   1  11
HETATM   11  C   UNL     1     -42.480  56.066 -56.176  1.00  0.00     0.257 C 
HETATM   12  N   UNL     1     -42.243  57.157 -56.981  1.00  0.00    -0.352 N 
HETATM   13  H   UNL     1     -41.711  57.925 -56.591  1.00  0.00     0.163 HD
HETATM   14  O   UNL     1     -42.896  54.995 -56.600  1.00  0.00    -0.267 OA
BRANCH  12  15
HETATM   15  C   UNL     1     -42.495  57.134 -58.401  1.00  0.00     0.161 C 
BRANCH  15  16
HETATM   16  C   UNL     1     -42.268  58.475 -59.051  1.00  0.00    -0.040 A 
HETATM   17  C   UNL     1     -42.092  59.629 -58.276  1.00  0.00     0.011 A 
HETATM   18  C   UNL     1     -41.821  60.857 -58.884  1.00  0.00     0.037 A 
HETATM   19  C   UNL     1     -41.700  60.954 -60.271  1.00  0.00     0.068 A 
HETATM   20  C   UNL     1     -41.886  59.815 -61.052  1.00  0.00     0.037 A 
HETATM   21  C   UNL     1     -42.166  58.584 -60.445  1.00  0.00     0.011 A 
BRANCH  19  22
HETATM   22  O   UNL     1     -41.406  62.205 -60.740  1.00  0.00    -0.356 OA
HETATM   23  C   UNL     1     -40.150  62.748 -60.353  1.00  0.00     0.210 C 
ENDBRANCH  19  22
ENDBRANCH  15  16
ENDBRANCH  12  15
ENDBRANCH   1  11
BRANCH   4  24
HETATM   24  C   UNL     1     -41.887  55.891 -50.220  1.00  0.00     0.409 C 
HETATM   25  F   UNL     1     -41.812  54.942 -49.259  1.00  0.00    -0.169 F 
HETATM   26  F   UNL     1     -41.448  57.049 -49.654  1.00  0.00    -0.169 F 
HETATM   27  F   UNL     1     -43.186  56.094 -50.518  1.00  0.00    -0.169 F 
ENDBRANCH   4  24
BRANCH   6  28
HETATM   28  C   UNL     1     -40.028  52.169 -53.016  1.00  0.00    -0.035 A 
HETATM   29  C   UNL     1     -40.207  51.518 -54.248  1.00  0.00     0.009 A 
HETATM   30  C   UNL     1     -40.026  50.139 -54.359  1.00  0.00     0.001 A 
HETATM   31  C   UNL     1     -39.661  49.392 -53.243  1.00  0.00     0.000 A 
HETATM   32  C   UNL     1     -39.474  50.023 -52.015  1.00  0.00     0.001 A 
HETATM   33  C   UNL     1     -39.656  51.402 -51.901  1.00  0.00     0.009 A 
ENDBRANCH   6  28
TORSDOF 6
ENDMDL
MODEL 3
REMARK VINA RESULT:      -8.6      2.949      3.904
REMARK  6 active torsions:
REMARK  status: ('A' for Active; 'I' for Inactive)
REMARK    1  A    between atoms: O_2  and  C_3 
REMARK    2  A    between atoms: C_6  and  C_7 
REMARK    3  A    between atoms: C_7  and  N_8 
REMARK       I    between atoms: N_8  and  C_9 
REMARK    4  A    between atoms: C_9  and  C_10 
REMARK    5  A    between atoms: C_13  and  C_14 
REMARK    6  A    between atoms: C_19  and  C_20 
ROOT
HETATM    1  C   UNL     1     -42.476  55.959 -52.038  1.00  0.00     0.096 A 
HETATM    2  C   UNL     1     -41.613  54.921 -51.740  1.00  0.00     0.138 A 
HETATM    3  N   UNL     1     -41.109  55.195 -50.487  1.00  0.00    -0.240 N 
HETATM    4  C   UNL     1     -40.101  54.394 -49.814  1.00  0.00     0.221 C 
HETATM    5  C   UNL     1     -39.972  53.011 -50.478  1.00  0.00     0.066 C 
HETATM    6  C   UNL     1     -39.972  53.152 -52.003  1.00  0.00     0.118 C 
HETATM    7  N   UNL     1     -41.209  53.817 -52.427  1.00  0.00    -0.365 N 
HETATM    8  N   UNL     1     -41.460  56.405 -50.026  1.00  0.00    -0.181 NA
HETATM    9  C   UNL     1     -42.316  56.852 -50.950  1.00  0.00     0.160 A 
HETATM   10  H   UNL     1     -41.301  53.830 -53.445  1.00  0.00     0.161 HD
ENDROOT
BRANCH   1  11
HETATM   11  C   UNL     1     -43.315  56.168 -53.202  1.00  0.00     0.257 C 
HETATM   12  N   UNL     1     -43.491  57.485 -53.557  1.00  0.00    -0.352 N 
HETATM   13  H   UNL     1     -42.891  58.176 -53.124  1.00  0.00     0.163 HD
HETATM   14  O   UNL     1     -43.806  55.232 -53.821  1.00  0.00    -0.267 OA
BRANCH  12  15
HETATM   15  C   UNL     1     -44.299  57.875 -54.687  1.00  0.00     0.161 C 
BRANCH  15  16
HETATM   16  C   UNL     1     -43.518  57.897 -55.976  1.00  0.00    -0.040 A 
HETATM   17  C   UNL     1     -43.542  56.804 -56.852  1.00  0.00     0.011 A 
HETATM   18  C   UNL     1     -42.865  56.857 -58.072  1.00  0.00     0.037 A 
HETATM   19  C   UNL     1     -42.170  58.006 -58.452  1.00  0.00     0.068 A 
HETATM   20  C   UNL     1     -42.128  59.095 -57.582  1.00  0.00     0.037 A 
HETATM   21  C   UNL     1     -42.800  59.041 -56.354  1.00  0.00     0.011 A 
BRANCH  19  22
HETATM   22  O   UNL     1     -41.573  57.941 -59.681  1.00  0.00    -0.356 OA
HETATM   23  C   UNL     1     -41.963  58.928 -60.627  1.00  0.00     0.210 C 
ENDBRANCH  19  22
ENDBRANCH  15  16
ENDBRANCH  12  15
ENDBRANCH   1  11
BRANCH   4  24
HETATM   24  C   UNL     1     -40.406  54.224 -48.341  1.00  0.00     0.409 C 
HETATM   25  F   UNL     1     -41.036  53.058 -48.076  1.00  0.00    -0.169 F 
HETATM   26  F   UNL     1     -39.240  54.202 -47.638  1.00  0.00    -0.169 F 
HETATM   27  F   UNL     1     -41.134  55.231 -47.819  1.00  0.00    -0.169 F 
ENDBRANCH   4  24
BRANCH   6  28
HETATM   28  C   UNL     1     -39.856  51.812 -52.701  1.00  0.00    -0.035 A 
HETATM   29  C   UNL     1     -39.566  50.638 -51.987  1.00  0.00     0.009 A 
HETATM   30  C   UNL     1     -39.450  49.413 -52.645  1.00  0.00     0.001 A 
HETATM   31  C   UNL     1     -39.626  49.343 -54.025  1.00  0.00     0.000 A 
HETATM   32  C   UNL     1     -39.920  50.498 -54.747  1.00  0.00     0.001 A 
HETATM   33  C   UNL     1     -40.035  51.725 -54.091  1.00  0.00     0.009 A 
ENDBRANCH   6  28
TORSDOF 6
ENDMDL
MODEL 4
REMARK VINA RESULT:      -8.3      3.564      8.083
REMARK  6 active torsions:
REMARK  status: ('A' for Active; 'I' for Inactive)
REMARK    1  A    between atoms: O_2  and  C_3 
REMARK    2  A    between atoms: C_6  and  C_7 
REMARK    3  A    between atoms: C_7  and  N_8 
REMARK       I    between atoms: N_8  and  C_9 
REMARK    4  A    between atoms: C_9  and  C_10 
REMARK    5  A    between atoms: C_13  and  C_14 
REMARK    6  A    between atoms: C_19  and  C_20 
ROOT
HETATM    1  C   UNL     1     -42.641  55.980 -56.267  1.00  0.00     0.096 A 
HETATM    2  C   UNL     1     -42.545  57.219 -55.663  1.00  0.00     0.138 A 
HETATM    3  N   UNL     1     -43.088  58.118 -56.553  1.00  0.00    -0.240 N 
HETATM    4  C   UNL     1     -43.123  59.556 -56.350  1.00  0.00     0.221 C 
HETATM    5  C   UNL     1     -42.861  59.905 -54.873  1.00  0.00     0.066 C 
HETATM    6  C   UNL     1     -41.703  59.063 -54.328  1.00  0.00     0.118 C 
HETATM    7  N   UNL     1     -42.027  57.640 -54.476  1.00  0.00    -0.365 N 
HETATM    8  N   UNL     1     -43.380  57.576 -57.745  1.00  0.00    -0.181 NA
HETATM    9  C   UNL     1     -43.142  56.274 -57.559  1.00  0.00     0.160 A 
HETATM   10  H   UNL     1     -41.332  57.046 -54.021  1.00  0.00     0.161 HD
ENDROOT
BRANCH   1  11
HETATM   11  C   UNL     1     -42.268  54.670 -55.771  1.00  0.00     0.257 C 
HETATM   12  N   UNL     1     -40.935  54.527 -55.462  1.00  0.00    -0.352 N 
HETATM   13  H   UNL     1     -40.368  55.364 -55.415  1.00  0.00     0.163 HD
HETATM   14  O   UNL     1     -43.092  53.774 -55.626  1.00  0.00    -0.267 OA
BRANCH  12  15
HETATM   15  C   UNL     1     -40.390  53.288 -54.961  1.00  0.00     0.161 C 
BRANCH  15  16
HETATM   16  C   UNL     1     -40.423  53.210 -53.456  1.00  0.00    -0.040 A 
HETATM   17  C   UNL     1     -39.996  52.057 -52.785  1.00  0.00     0.011 A 
HETATM   18  C   UNL     1     -39.972  52.015 -51.389  1.00  0.00     0.037 A 
HETATM   19  C   UNL     1     -40.354  53.127 -50.637  1.00  0.00     0.068 A 
HETATM   20  C   UNL     1     -40.793  54.275 -51.294  1.00  0.00     0.037 A 
HETATM   21  C   UNL     1     -40.826  54.316 -52.694  1.00  0.00     0.011 A 
BRANCH  19  22
HETATM   22  O   UNL     1     -40.260  52.968 -49.282  1.00  0.00    -0.356 OA
HETATM   23  C   UNL     1     -40.544  54.113 -48.488  1.00  0.00     0.210 C 
ENDBRANCH  19  22
ENDBRANCH  15  16
ENDBRANCH  12  15
ENDBRANCH   1  11
BRANCH   4  24
HETATM   24  C   UNL     1     -44.443  60.156 -56.787  1.00  0.00     0.409 C 
HETATM   25  F   UNL     1     -45.491  59.342 -56.527  1.00  0.00    -0.169 F 
HETATM   26  F   UNL     1     -44.667  61.308 -56.095  1.00  0.00    -0.169 F 
HETATM   27  F   UNL     1     -44.479  60.494 -58.091  1.00  0.00    -0.169 F 
ENDBRANCH   4  24
BRANCH   6  28
HETATM   28  C   UNL     1     -41.414  59.365 -52.871  1.00  0.00    -0.035 A 
HETATM   29  C   UNL     1     -42.290  60.146 -52.098  1.00  0.00     0.009 A 
HETATM   30  C   UNL     1     -42.005  60.427 -50.762  1.00  0.00     0.001 A 
HETATM   31  C   UNL     1     -40.843  59.928 -50.177  1.00  0.00     0.000 A 
HETATM   32  C   UNL     1     -39.967  59.148 -50.928  1.00  0.00     0.001 A 
HETATM   33  C   UNL     1     -40.250  58.867 -52.267  1.00  0.00     0.009 A 
ENDBRANCH   6  28
TORSDOF 6
ENDMDL
MODEL 5
REMARK VINA RESULT:      -8.0      3.673      8.298
REMARK  6 active torsions:
REMARK  status: ('A' for Active; 'I' for Inactive)
REMARK    1  A    between atoms: O_2  and  C_3 
REMARK    2  A    between atoms: C_6  and  C_7 
REMARK    3  A    between atoms: C_7  and  N_8 
REMARK       I    between atoms: N_8  and  C_9 
REMARK    4  A    between atoms: C_9  and  C_10 
REMARK    5  A    between atoms: C_13  and  C_14 
REMARK    6  A    between atoms: C_19  and  C_20 
ROOT
HETATM    1  C   UNL     1     -42.662  58.773 -54.806  1.00  0.00     0.096 A 
HETATM    2  C   UNL     1     -43.043  58.741 -56.135  1.00  0.00     0.138 A 
HETATM    3  N   UNL     1     -42.738  59.982 -56.647  1.00  0.00    -0.240 N 
HETATM    4  C   UNL     1     -43.043  60.410 -58.002  1.00  0.00     0.221 C 
HETATM    5  C   UNL     1     -43.363  59.198 -58.896  1.00  0.00     0.066 C 
HETATM    6  C   UNL     1     -44.283  58.222 -58.156  1.00  0.00     0.118 C 
HETATM    7  N   UNL     1     -43.632  57.791 -56.913  1.00  0.00    -0.365 N 
HETATM    8  N   UNL     1     -42.340  60.859 -55.713  1.00  0.00    -0.181 NA
HETATM    9  C   UNL     1     -42.260  60.117 -54.605  1.00  0.00     0.160 A 
HETATM   10  H   UNL     1     -44.162  57.053 -56.446  1.00  0.00     0.161 HD
ENDROOT
BRANCH   1  11
HETATM   11  C   UNL     1     -42.709  57.733 -53.798  1.00  0.00     0.257 C 
HETATM   12  N   UNL     1     -41.482  57.245 -53.414  1.00  0.00    -0.352 N 
HETATM   13  H   UNL     1     -40.658  57.758 -53.701  1.00  0.00     0.163 HD
HETATM   14  O   UNL     1     -43.768  57.342 -53.321  1.00  0.00    -0.267 OA
BRANCH  12  15
HETATM   15  C   UNL     1     -41.343  56.203 -52.425  1.00  0.00     0.161 C 
BRANCH  15  16
HETATM   16  C   UNL     1     -40.916  54.888 -53.027  1.00  0.00    -0.040 A 
HETATM   17  C   UNL     1     -40.902  53.716 -52.260  1.00  0.00     0.011 A 
HETATM   18  C   UNL     1     -40.564  52.492 -52.841  1.00  0.00     0.037 A 
HETATM   19  C   UNL     1     -40.254  52.410 -54.199  1.00  0.00     0.068 A 
HETATM   20  C   UNL     1     -40.251  53.572 -54.968  1.00  0.00     0.037 A 
HETATM   21  C   UNL     1     -40.582  54.802 -54.386  1.00  0.00     0.011 A 
BRANCH  19  22
HETATM   22  O   UNL     1     -39.966  51.151 -54.652  1.00  0.00    -0.356 OA
HETATM   23  C   UNL     1     -39.638  50.182 -53.664  1.00  0.00     0.210 C 
ENDBRANCH  19  22
ENDBRANCH  15  16
ENDBRANCH  12  15
ENDBRANCH   1  11
BRANCH   4  24
HETATM   24  C   UNL     1     -41.908  61.204 -58.611  1.00  0.00     0.409 C 
HETATM   25  F   UNL     1     -40.708  60.884 -58.077  1.00  0.00    -0.169 F 
HETATM   26  F   UNL     1     -41.824  60.926 -59.942  1.00  0.00    -0.169 F 
HETATM   27  F   UNL     1     -42.072  62.540 -58.522  1.00  0.00    -0.169 F 
ENDBRANCH   4  24
BRANCH   6  28
HETATM   28  C   UNL     1     -44.619  57.005 -58.995  1.00  0.00    -0.035 A 
HETATM   29  C   UNL     1     -45.710  57.005 -59.880  1.00  0.00     0.009 A 
HETATM   30  C   UNL     1     -46.014  55.874 -60.637  1.00  0.00     0.001 A 
HETATM   31  C   UNL     1     -45.232  54.728 -60.524  1.00  0.00     0.000 A 
HETATM   32  C   UNL     1     -44.143  54.713 -59.655  1.00  0.00     0.001 A 
HETATM   33  C   UNL     1     -43.837  55.844 -58.895  1.00  0.00     0.009 A 
ENDBRANCH   6  28
TORSDOF 6
ENDMDL
MODEL 6
REMARK VINA RESULT:      -8.0      5.030      7.852
REMARK  6 active torsions:
REMARK  status: ('A' for Active; 'I' for Inactive)
REMARK    1  A    between atoms: O_2  and  C_3 
REMARK    2  A    between atoms: C_6  and  C_7 
REMARK    3  A    between atoms: C_7  and  N_8 
REMARK       I    between atoms: N_8  and  C_9 
REMARK    4  A    between atoms: C_9  and  C_10 
REMARK    5  A    between atoms: C_13  and  C_14 
REMARK    6  A    between atoms: C_19  and  C_20 
ROOT
HETATM    1  C   UNL     1     -42.934  58.362 -53.127  1.00  0.00     0.096 A 
HETATM    2  C   UNL     1     -42.687  57.114 -53.668  1.00  0.00     0.138 A 
HETATM    3  N   UNL     1     -43.257  57.126 -54.922  1.00  0.00    -0.240 N 
HETATM    4  C   UNL     1     -43.297  55.982 -55.817  1.00  0.00     0.221 C 
HETATM    5  C   UNL     1     -42.287  54.908 -55.373  1.00  0.00     0.066 C 
HETATM    6  C   UNL     1     -42.349  54.718 -53.854  1.00  0.00     0.118 C 
HETATM    7  N   UNL     1     -42.067  55.998 -53.195  1.00  0.00    -0.365 N 
HETATM    8  N   UNL     1     -43.987  58.226 -55.164  1.00  0.00    -0.181 NA
HETATM    9  C   UNL     1     -43.761  58.989 -54.091  1.00  0.00     0.160 A 
HETATM   10  H   UNL     1     -41.986  55.891 -52.182  1.00  0.00     0.161 HD
ENDROOT
BRANCH   1  11
HETATM   11  C   UNL     1     -42.528  58.922 -51.852  1.00  0.00     0.257 C 
HETATM   12  N   UNL     1     -43.201  60.063 -51.482  1.00  0.00    -0.352 N 
HETATM   13  H   UNL     1     -44.032  60.313 -52.004  1.00  0.00     0.163 HD
HETATM   14  O   UNL     1     -41.664  58.395 -51.161  1.00  0.00    -0.267 OA
BRANCH  12  15
HETATM   15  C   UNL     1     -42.920  60.754 -50.247  1.00  0.00     0.161 C 
BRANCH  15  16
HETATM   16  C   UNL     1     -44.164  61.306 -49.598  1.00  0.00    -0.040 A 
HETATM   17  C   UNL     1     -45.185  61.877 -50.368  1.00  0.00     0.011 A 
HETATM   18  C   UNL     1     -46.361  62.329 -49.765  1.00  0.00     0.037 A 
HETATM   19  C   UNL     1     -46.549  62.203 -48.388  1.00  0.00     0.068 A 
HETATM   20  C   UNL     1     -45.534  61.649 -47.611  1.00  0.00     0.037 A 
HETATM   21  C   UNL     1     -44.351  61.201 -48.212  1.00  0.00     0.011 A 
BRANCH  19  22
HETATM   22  O   UNL     1     -47.752  62.659 -47.924  1.00  0.00    -0.356 OA
HETATM   23  C   UNL     1     -48.182  63.924 -48.413  1.00  0.00     0.210 C 
ENDBRANCH  19  22
ENDBRANCH  15  16
ENDBRANCH  12  15
ENDBRANCH   1  11
BRANCH   4  24
HETATM   24  C   UNL     1     -43.020  56.377 -57.251  1.00  0.00     0.409 C 
HETATM   25  F   UNL     1     -42.611  55.331 -58.005  1.00  0.00    -0.169 F 
HETATM   26  F   UNL     1     -44.166  56.840 -57.822  1.00  0.00    -0.169 F 
HETATM   27  F   UNL     1     -42.117  57.370 -57.375  1.00  0.00    -0.169 F 
ENDBRANCH   4  24
BRANCH   6  28
HETATM   28  C   UNL     1     -41.363  53.675 -53.368  1.00  0.00    -0.035 A 
HETATM   29  C   UNL     1     -40.828  52.711 -54.240  1.00  0.00     0.009 A 
HETATM   30  C   UNL     1     -39.931  51.749 -53.776  1.00  0.00     0.001 A 
HETATM   31  C   UNL     1     -39.553  51.737 -52.436  1.00  0.00     0.000 A 
HETATM   32  C   UNL     1     -40.069  52.688 -51.559  1.00  0.00     0.001 A 
HETATM   33  C   UNL     1     -40.969  53.651 -52.021  1.00  0.00     0.009 A 
ENDBRANCH   6  28
TORSDOF 6
ENDMDL
MODEL 7
REMARK VINA RESULT:      -7.9      3.742      4.575
REMARK  6 active torsions:
REMARK  status: ('A' for Active; 'I' for Inactive)
REMARK    1  A    between atoms: O_2  and  C_3 
REMARK    2  A    between atoms: C_6  and  C_7 
REMARK    3  A    between atoms: C_7  and  N_8 
REMARK       I    between atoms: N_8  and  C_9 
REMARK    4  A    between atoms: C_9  and  C_10 
REMARK    5  A    between atoms: C_13  and  C_14 
REMARK    6  A    between atoms: C_19  and  C_20 
ROOT
HETATM    1  C   UNL     1     -42.157  56.134 -52.094  1.00  0.00     0.096 A 
HETATM    2  C   UNL     1     -41.379  55.042 -51.754  1.00  0.00     0.138 A 
HETATM    3  N   UNL     1     -40.935  55.279 -50.471  1.00  0.00    -0.240 N 
HETATM    4  C   UNL     1     -40.021  54.413 -49.746  1.00  0.00     0.221 C 
HETATM    5  C   UNL     1     -39.939  53.028 -50.412  1.00  0.00     0.066 C 
HETATM    6  C   UNL     1     -39.839  53.176 -51.934  1.00  0.00     0.118 C 
HETATM    7  N   UNL     1     -41.004  53.919 -52.425  1.00  0.00    -0.365 N 
HETATM    8  N   UNL     1     -41.237  56.507 -50.022  1.00  0.00    -0.181 NA
HETATM    9  C   UNL     1     -42.006  57.010 -50.991  1.00  0.00     0.160 A 
HETATM   10  H   UNL     1     -41.034  53.941 -53.446  1.00  0.00     0.161 HD
ENDROOT
BRANCH   1  11
HETATM   11  C   UNL     1     -42.910  56.400 -53.304  1.00  0.00     0.257 C 
HETATM   12  N   UNL     1     -44.171  56.910 -53.099  1.00  0.00    -0.352 N 
HETATM   13  H   UNL     1     -44.404  57.236 -52.170  1.00  0.00     0.163 HD
HETATM   14  O   UNL     1     -42.437  56.199 -54.416  1.00  0.00    -0.267 OA
BRANCH  12  15
HETATM   15  C   UNL     1     -45.058  57.228 -54.192  1.00  0.00     0.161 C 
BRANCH  15  16
HETATM   16  C   UNL     1     -44.924  58.659 -54.648  1.00  0.00    -0.040 A 
HETATM   17  C   UNL     1     -44.475  58.964 -55.938  1.00  0.00     0.011 A 
HETATM   18  C   UNL     1     -44.412  60.290 -56.373  1.00  0.00     0.037 A 
HETATM   19  C   UNL     1     -44.814  61.333 -55.538  1.00  0.00     0.068 A 
HETATM   20  C   UNL     1     -45.250  61.041 -54.247  1.00  0.00     0.037 A 
HETATM   21  C   UNL     1     -45.306  59.713 -53.806  1.00  0.00     0.011 A 
BRANCH  19  22
HETATM   22  O   UNL     1     -44.729  62.582 -56.091  1.00  0.00    -0.356 OA
HETATM   23  C   UNL     1     -43.898  62.713 -57.237  1.00  0.00     0.210 C 
ENDBRANCH  19  22
ENDBRANCH  15  16
ENDBRANCH  12  15
ENDBRANCH   1  11
BRANCH   4  24
HETATM   24  C   UNL     1     -40.423  54.256 -48.296  1.00  0.00     0.409 C 
HETATM   25  F   UNL     1     -41.207  55.271 -47.864  1.00  0.00    -0.169 F 
HETATM   26  F   UNL     1     -41.153  53.116 -48.149  1.00  0.00    -0.169 F 
HETATM   27  F   UNL     1     -39.377  54.138 -47.453  1.00  0.00    -0.169 F 
ENDBRANCH   4  24
BRANCH   6  28
HETATM   28  C   UNL     1     -39.765  51.834 -52.635  1.00  0.00    -0.035 A 
HETATM   29  C   UNL     1     -39.935  51.724 -54.025  1.00  0.00     0.009 A 
HETATM   30  C   UNL     1     -39.878  50.480 -54.655  1.00  0.00     0.001 A 
HETATM   31  C   UNL     1     -39.646  49.330 -53.906  1.00  0.00     0.000 A 
HETATM   32  C   UNL     1     -39.470  49.422 -52.527  1.00  0.00     0.001 A 
HETATM   33  C   UNL     1     -39.528  50.665 -51.894  1.00  0.00     0.009 A 
ENDBRANCH   6  28
TORSDOF 6
ENDMDL
MODEL 8
REMARK VINA RESULT:      -7.8     14.916     17.262
REMARK  6 active torsions:
REMARK  status: ('A' for Active; 'I' for Inactive)
REMARK    1  A    between atoms: O_2  and  C_3 
REMARK    2  A    between atoms: C_6  and  C_7 
REMARK    3  A    between atoms: C_7  and  N_8 
REMARK       I    between atoms: N_8  and  C_9 
REMARK    4  A    between atoms: C_9  and  C_10 
REMARK    5  A    between atoms: C_13  and  C_14 
REMARK    6  A    between atoms: C_19  and  C_20 
ROOT
HETATM    1  C   UNL     1     -35.417  41.736 -55.136  1.00  0.00     0.096 A 
HETATM    2  C   UNL     1     -34.492  41.013 -54.405  1.00  0.00     0.138 A 
HETATM    3  N   UNL     1     -34.820  41.207 -53.081  1.00  0.00    -0.240 N 
HETATM    4  C   UNL     1     -34.058  40.682 -51.961  1.00  0.00     0.221 C 
HETATM    5  C   UNL     1     -33.103  39.568 -52.426  1.00  0.00     0.066 C 
HETATM    6  C   UNL     1     -32.405  39.977 -53.727  1.00  0.00     0.118 C 
HETATM    7  N   UNL     1     -33.417  40.254 -54.752  1.00  0.00    -0.365 N 
HETATM    8  N   UNL     1     -35.783  42.124 -52.901  1.00  0.00    -0.181 NA
HETATM    9  C   UNL     1     -36.168  42.418 -54.147  1.00  0.00     0.160 A 
HETATM   10  H   UNL     1     -32.992  40.419 -55.667  1.00  0.00     0.161 HD
ENDROOT
BRANCH   1  11
HETATM   11  C   UNL     1     -35.578  41.860 -56.571  1.00  0.00     0.257 C 
HETATM   12  N   UNL     1     -36.871  42.077 -56.990  1.00  0.00    -0.352 N 
HETATM   13  H   UNL     1     -37.560  42.323 -56.290  1.00  0.00     0.163 HD
HETATM   14  O   UNL     1     -34.624  41.793 -57.337  1.00  0.00    -0.267 OA
BRANCH  12  15
HETATM   15  C   UNL     1     -37.213  42.219 -58.385  1.00  0.00     0.161 C 
BRANCH  15  16
HETATM   16  C   UNL     1     -37.550  40.901 -59.034  1.00  0.00    -0.040 A 
HETATM   17  C   UNL     1     -38.286  39.928 -58.347  1.00  0.00     0.011 A 
HETATM   18  C   UNL     1     -38.646  38.735 -58.978  1.00  0.00     0.037 A 
HETATM   19  C   UNL     1     -38.298  38.498 -60.308  1.00  0.00     0.068 A 
HETATM   20  C   UNL     1     -37.553  39.454 -60.996  1.00  0.00     0.037 A 
HETATM   21  C   UNL     1     -37.184  40.648 -60.364  1.00  0.00     0.011 A 
BRANCH  19  22
HETATM   22  O   UNL     1     -38.732  37.305 -60.817  1.00  0.00    -0.356 OA
HETATM   23  C   UNL     1     -40.057  36.916 -60.476  1.00  0.00     0.210 C 
ENDBRANCH  19  22
ENDBRANCH  15  16
ENDBRANCH  12  15
ENDBRANCH   1  11
BRANCH   4  24
HETATM   24  C   UNL     1     -34.958  40.155 -50.864  1.00  0.00     0.409 C 
HETATM   25  F   UNL     1     -35.858  39.256 -51.322  1.00  0.00    -0.169 F 
HETATM   26  F   UNL     1     -34.204  39.507 -49.933  1.00  0.00    -0.169 F 
HETATM   27  F   UNL     1     -35.622  41.120 -50.196  1.00  0.00    -0.169 F 
ENDBRANCH   4  24
BRANCH   6  28
HETATM   28  C   UNL     1     -31.460  38.904 -54.229  1.00  0.00    -0.035 A 
HETATM   29  C   UNL     1     -31.286  37.697 -53.532  1.00  0.00     0.009 A 
HETATM   30  C   UNL     1     -30.403  36.723 -54.000  1.00  0.00     0.001 A 
HETATM   31  C   UNL     1     -29.683  36.941 -55.172  1.00  0.00     0.000 A 
HETATM   32  C   UNL     1     -29.847  38.131 -55.878  1.00  0.00     0.001 A 
HETATM   33  C   UNL     1     -30.730  39.107 -55.411  1.00  0.00     0.009 A 
ENDBRANCH   6  28
TORSDOF 6
ENDMDL
MODEL 9
REMARK VINA RESULT:      -7.8      2.256      5.065
REMARK  6 active torsions:
REMARK  status: ('A' for Active; 'I' for Inactive)
REMARK    1  A    between atoms: O_2  and  C_3 
REMARK    2  A    between atoms: C_6  and  C_7 
REMARK    3  A    between atoms: C_7  and  N_8 
REMARK       I    between atoms: N_8  and  C_9 
REMARK    4  A    between atoms: C_9  and  C_10 
REMARK    5  A    between atoms: C_13  and  C_14 
REMARK    6  A    between atoms: C_19  and  C_20 
ROOT
HETATM    1  C   UNL     1     -42.748  55.846 -55.206  1.00  0.00     0.096 A 
HETATM    2  C   UNL     1     -42.966  56.158 -53.876  1.00  0.00     0.138 A 
HETATM    3  N   UNL     1     -42.625  55.030 -53.163  1.00  0.00    -0.240 N 
HETATM    4  C   UNL     1     -42.773  54.894 -51.724  1.00  0.00     0.221 C 
HETATM    5  C   UNL     1     -42.962  56.271 -51.062  1.00  0.00     0.066 C 
HETATM    6  C   UNL     1     -43.946  57.118 -51.875  1.00  0.00     0.118 C 
HETATM    7  N   UNL     1     -43.441  57.266 -53.244  1.00  0.00    -0.365 N 
HETATM    8  N   UNL     1     -42.356  53.970 -53.940  1.00  0.00    -0.181 NA
HETATM    9  C   UNL     1     -42.396  54.474 -55.176  1.00  0.00     0.160 A 
HETATM   10  H   UNL     1     -44.009  57.918 -53.788  1.00  0.00     0.161 HD
ENDROOT
BRANCH   1  11
HETATM   11  C   UNL     1     -42.896  56.667 -56.392  1.00  0.00     0.257 C 
HETATM   12  N   UNL     1     -42.536  56.053 -57.568  1.00  0.00    -0.352 N 
HETATM   13  H   UNL     1     -42.388  55.052 -57.553  1.00  0.00     0.163 HD
HETATM   14  O   UNL     1     -43.327  57.813 -56.335  1.00  0.00    -0.267 OA
BRANCH  12  15
HETATM   15  C   UNL     1     -42.615  56.726 -58.843  1.00  0.00     0.161 C 
BRANCH  15  16
HETATM   16  C   UNL     1     -43.934  56.498 -59.535  1.00  0.00    -0.040 A 
HETATM   17  C   UNL     1     -44.910  57.502 -59.573  1.00  0.00     0.011 A 
HETATM   18  C   UNL     1     -46.104  57.305 -60.270  1.00  0.00     0.037 A 
HETATM   19  C   UNL     1     -46.340  56.114 -60.956  1.00  0.00     0.068 A 
HETATM   20  C   UNL     1     -45.382  55.102 -60.913  1.00  0.00     0.037 A 
HETATM   21  C   UNL     1     -44.186  55.295 -60.209  1.00  0.00     0.011 A 
BRANCH  19  22
HETATM   22  O   UNL     1     -47.535  56.055 -61.620  1.00  0.00    -0.356 OA
HETATM   23  C   UNL     1     -48.158  57.299 -61.915  1.00  0.00     0.210 C 
ENDBRANCH  19  22
ENDBRANCH  15  16
ENDBRANCH  12  15
ENDBRANCH   1  11
BRANCH   4  24
HETATM   24  C   UNL     1     -41.588  54.189 -51.099  1.00  0.00     0.409 C 
HETATM   25  F   UNL     1     -40.423  54.492 -51.715  1.00  0.00    -0.169 F 
HETATM   26  F   UNL     1     -41.455  54.589 -49.804  1.00  0.00    -0.169 F 
HETATM   27  F   UNL     1     -41.713  52.847 -51.061  1.00  0.00    -0.169 F 
ENDBRANCH   4  24
BRANCH   6  28
HETATM   28  C   UNL     1     -44.157  58.490 -51.266  1.00  0.00    -0.035 A 
HETATM   29  C   UNL     1     -45.414  58.890 -50.781  1.00  0.00     0.009 A 
HETATM   30  C   UNL     1     -45.596  60.161 -50.235  1.00  0.00     0.001 A 
HETATM   31  C   UNL     1     -44.525  61.048 -50.161  1.00  0.00     0.000 A 
HETATM   32  C   UNL     1     -43.271  60.665 -50.631  1.00  0.00     0.001 A 
HETATM   33  C   UNL     1     -43.087  59.394 -51.180  1.00  0.00     0.009 A 
ENDBRANCH   6  28
TORSDOF 6
ENDMDL
MODEL 10
REMARK VINA RESULT:      -7.7     15.179     17.533
REMARK  6 active torsions:
REMARK  status: ('A' for Active; 'I' for Inactive)
REMARK    1  A    between atoms: O_2  and  C_3 
REMARK    2  A    between atoms: C_6  and  C_7 
REMARK    3  A    between atoms: C_7  and  N_8 
REMARK       I    between atoms: N_8  and  C_9 
REMARK    4  A    between atoms: C_9  and  C_10 
REMARK    5  A    between atoms: C_13  and  C_14 
REMARK    6  A    between atoms: C_19  and  C_20 
ROOT
HETATM    1  C   UNL     1     -35.824  41.402 -53.776  1.00  0.00     0.096 A 
HETATM    2  C   UNL     1     -34.553  40.858 -53.819  1.00  0.00     0.138 A 
HETATM    3  N   UNL     1     -34.055  40.957 -52.538  1.00  0.00    -0.240 N 
HETATM    4  C   UNL     1     -32.711  40.568 -52.148  1.00  0.00     0.221 C 
HETATM    5  C   UNL     1     -32.070  39.671 -53.222  1.00  0.00     0.066 C 
HETATM    6  C   UNL     1     -32.349  40.234 -54.619  1.00  0.00     0.118 C 
HETATM    7  N   UNL     1     -33.799  40.330 -54.821  1.00  0.00    -0.365 N 
HETATM    8  N   UNL     1     -34.843  41.665 -51.715  1.00  0.00    -0.181 NA
HETATM    9  C   UNL     1     -35.930  41.904 -52.455  1.00  0.00     0.160 A 
HETATM   10  H   UNL     1     -34.029  40.594 -55.781  1.00  0.00     0.161 HD
ENDROOT
BRANCH   1  11
HETATM   11  C   UNL     1     -36.822  41.522 -54.820  1.00  0.00     0.257 C 
HETATM   12  N   UNL     1     -36.364  42.068 -55.997  1.00  0.00    -0.352 N 
HETATM   13  H   UNL     1     -35.363  42.161 -56.117  1.00  0.00     0.163 HD
HETATM   14  O   UNL     1     -37.976  41.144 -54.657  1.00  0.00    -0.267 OA
BRANCH  12  15
HETATM   15  C   UNL     1     -37.224  42.265 -57.139  1.00  0.00     0.161 C 
BRANCH  15  16
HETATM   16  C   UNL     1     -36.945  41.283 -58.248  1.00  0.00    -0.040 A 
HETATM   17  C   UNL     1     -36.122  40.170 -58.035  1.00  0.00     0.011 A 
HETATM   18  C   UNL     1     -35.919  39.232 -59.050  1.00  0.00     0.037 A 
HETATM   19  C   UNL     1     -36.546  39.375 -60.288  1.00  0.00     0.068 A 
HETATM   20  C   UNL     1     -37.357  40.487 -60.515  1.00  0.00     0.037 A 
HETATM   21  C   UNL     1     -37.556  41.432 -59.502  1.00  0.00     0.011 A 
BRANCH  19  22
HETATM   22  O   UNL     1     -36.287  38.377 -61.187  1.00  0.00    -0.356 OA
HETATM   23  C   UNL     1     -34.945  37.911 -61.247  1.00  0.00     0.210 C 
ENDBRANCH  19  22
ENDBRANCH  15  16
ENDBRANCH  12  15
ENDBRANCH   1  11
BRANCH   4  24
HETATM   24  C   UNL     1     -32.696  39.853 -50.814  1.00  0.00     0.409 C 
HETATM   25  F   UNL     1     -32.790  40.707 -49.769  1.00  0.00    -0.169 F 
HETATM   26  F   UNL     1     -33.772  39.023 -50.732  1.00  0.00    -0.169 F 
HETATM   27  F   UNL     1     -31.611  39.073 -50.629  1.00  0.00    -0.169 F 
ENDBRANCH   4  24
BRANCH   6  28
HETATM   28  C   UNL     1     -31.744  39.377 -55.712  1.00  0.00    -0.035 A 
HETATM   29  C   UNL     1     -32.551  38.666 -56.616  1.00  0.00     0.009 A 
HETATM   30  C   UNL     1     -31.980  37.869 -57.609  1.00  0.00     0.001 A 
HETATM   31  C   UNL     1     -30.595  37.775 -57.716  1.00  0.00     0.000 A 
HETATM   32  C   UNL     1     -29.780  38.478 -56.832  1.00  0.00     0.001 A 
HETATM   33  C   UNL     1     -30.349  39.274 -55.836  1.00  0.00     0.009 A 
ENDBRANCH   6  28
TORSDOF 6
ENDMDL
