MODEL 1
REMARK VINA RESULT:      -8.1      0.000      0.000
REMARK  9 active torsions:
REMARK  status: ('A' for Active; 'I' for Inactive)
REMARK    1  A    between atoms: C_2  and  C_3 
REMARK    2  A    between atoms: C_4  and  O_5 
REMARK    3  A    between atoms: C_6  and  C_7 
REMARK    4  A    between atoms: C_12  and  C_13 
REMARK    5  A    between atoms: C_13  and  C_14 
REMARK    6  A    between atoms: C_14  and  N_15 
REMARK    7  A    between atoms: N_20  and  C_21 
REMARK    8  A    between atoms: C_21  and  C_22 
REMARK    9  A    between atoms: C_22  and  N_23 
ROOT
HETATM    1  N   UNL     1     -42.701  57.053 -54.395  1.00  0.00    -0.174 N 
HETATM    2  C   UNL     1     -44.017  57.332 -54.069  1.00  0.00     0.681 A 
HETATM    3  N   UNL     1     -45.071  56.742 -54.637  1.00  0.00    -0.234 N 
HETATM    4  H   UNL     1     -46.023  56.816 -54.320  1.00  0.00     0.174 HD
HETATM    5  H   UNL     1     -44.927  56.270 -55.537  1.00  0.00     0.174 HD
HETATM    6  N   UNL     1     -44.139  58.291 -53.049  1.00  0.00    -0.180 N 
HETATM    7  C   UNL     1     -42.782  58.587 -52.685  1.00  0.00     0.079 A 
HETATM    8  C   UNL     1     -41.919  57.869 -53.527  1.00  0.00     0.079 A 
HETATM    9  C   UNL     1     -42.290  59.384 -51.673  1.00  0.00     0.032 A 
HETATM   10  C   UNL     1     -40.900  59.494 -51.554  1.00  0.00     0.002 A 
HETATM   11  C   UNL     1     -40.039  58.796 -52.420  1.00  0.00     0.002 A 
HETATM   12  C   UNL     1     -40.548  57.959 -53.415  1.00  0.00     0.032 A 
ENDROOT
BRANCH   1  13
HETATM   13  C   UNL     1     -42.160  55.974 -55.239  1.00  0.00     0.231 C 
BRANCH  13  14
HETATM   14  C   UNL     1     -42.554  54.572 -54.841  1.00  0.00     0.178 C 
HETATM   15  O   UNL     1     -43.563  54.043 -55.310  1.00  0.00    -0.290 OA
BRANCH  14  16
HETATM   16  C   UNL     1     -41.712  53.869 -53.825  1.00  0.00     0.013 A 
HETATM   17  C   UNL     1     -41.487  54.421 -52.559  1.00  0.00     0.026 A 
HETATM   18  C   UNL     1     -40.708  53.766 -51.584  1.00  0.00    -0.016 A 
HETATM   19  C   UNL     1     -40.201  52.495 -51.937  1.00  0.00     0.079 A 
HETATM   20  C   UNL     1     -40.373  51.909 -53.217  1.00  0.00    -0.016 A 
HETATM   21  C   UNL     1     -41.158  52.627 -54.143  1.00  0.00     0.026 A 
BRANCH  18  22
HETATM   22  C   UNL     1     -40.538  54.444 -50.196  1.00  0.00    -0.021 C 
HETATM   23  C   UNL     1     -41.265  53.761 -49.015  1.00  0.00     0.019 C 
HETATM   24  C   UNL     1     -39.042  54.484 -49.777  1.00  0.00     0.019 C 
HETATM   25  C   UNL     1     -41.060  55.892 -50.298  1.00  0.00     0.019 C 
ENDBRANCH  18  22
BRANCH  19  26
HETATM   26  O   UNL     1     -39.595  51.747 -50.973  1.00  0.00    -0.360 OA
HETATM   27  H   UNL     1     -39.707  52.225 -50.132  1.00  0.00     0.217 HD
ENDBRANCH  19  26
BRANCH  20  28
HETATM   28  C   UNL     1     -39.810  50.512 -53.597  1.00  0.00    -0.021 C 
HETATM   29  C   UNL     1     -40.744  49.884 -54.651  1.00  0.00     0.019 C 
HETATM   30  C   UNL     1     -39.684  49.543 -52.395  1.00  0.00     0.019 C 
HETATM   31  C   UNL     1     -38.386  50.586 -54.207  1.00  0.00     0.019 C 
ENDBRANCH  20  28
ENDBRANCH  14  16
ENDBRANCH  13  14
ENDBRANCH   1  13
BRANCH   6  32
HETATM   32  C   UNL     1     -45.350  58.665 -52.303  1.00  0.00     0.175 C 
BRANCH  32  33
HETATM   33  C   UNL     1     -45.799  60.143 -52.387  1.00  0.00     0.256 C 
BRANCH  33  34
HETATM   34  N   UNL     1     -45.616  60.938 -51.108  1.00  0.00    -0.066 N 
HETATM   35  H   UNL     1     -44.766  61.515 -51.175  1.00  0.00     0.280 HD
HETATM   36  C   UNL     1     -46.787  61.941 -50.953  1.00  0.00     0.261 C 
HETATM   37  C   UNL     1     -46.630  62.740 -49.658  1.00  0.00     0.195 C 
HETATM   38  O   UNL     1     -46.561  61.860 -48.533  1.00  0.00    -0.388 OA
HETATM   39  C   UNL     1     -45.430  60.991 -48.608  1.00  0.00     0.195 C 
HETATM   40  C   UNL     1     -45.518  60.087 -49.844  1.00  0.00     0.261 C 
ENDBRANCH  33  34
ENDBRANCH  32  33
ENDBRANCH   6  32
TORSDOF 9
ENDMDL
MODEL 2
REMARK VINA RESULT:      -8.1      0.183      3.083
REMARK  9 active torsions:
REMARK  status: ('A' for Active; 'I' for Inactive)
REMARK    1  A    between atoms: C_2  and  C_3 
REMARK    2  A    between atoms: C_4  and  O_5 
REMARK    3  A    between atoms: C_6  and  C_7 
REMARK    4  A    between atoms: C_12  and  C_13 
REMARK    5  A    between atoms: C_13  and  C_14 
REMARK    6  A    between atoms: C_14  and  N_15 
REMARK    7  A    between atoms: N_20  and  C_21 
REMARK    8  A    between atoms: C_21  and  C_22 
REMARK    9  A    between atoms: C_22  and  N_23 
ROOT
HETATM    1  N   UNL     1     -42.657  57.130 -54.519  1.00  0.00    -0.174 N 
HETATM    2  C   UNL     1     -43.975  57.460 -54.257  1.00  0.00     0.681 A 
HETATM    3  N   UNL     1     -45.022  56.901 -54.869  1.00  0.00    -0.234 N 
HETATM    4  H   UNL     1     -45.985  57.012 -54.598  1.00  0.00     0.174 HD
HETATM    5  H   UNL     1     -44.854  56.415 -55.757  1.00  0.00     0.174 HD
HETATM    6  N   UNL     1     -44.111  58.433 -53.253  1.00  0.00    -0.180 N 
HETATM    7  C   UNL     1     -42.762  58.684 -52.829  1.00  0.00     0.079 A 
HETATM    8  C   UNL     1     -41.887  57.927 -53.623  1.00  0.00     0.079 A 
HETATM    9  C   UNL     1     -42.289  59.474 -51.802  1.00  0.00     0.032 A 
HETATM   10  C   UNL     1     -40.903  59.536 -51.619  1.00  0.00     0.002 A 
HETATM   11  C   UNL     1     -40.028  58.799 -52.437  1.00  0.00     0.002 A 
HETATM   12  C   UNL     1     -40.520  57.970 -53.447  1.00  0.00     0.032 A 
ENDROOT
BRANCH   1  13
HETATM   13  C   UNL     1     -42.116  56.024 -55.328  1.00  0.00     0.231 C 
BRANCH  13  14
HETATM   14  C   UNL     1     -42.578  54.642 -54.936  1.00  0.00     0.178 C 
HETATM   15  O   UNL     1     -43.598  54.154 -55.427  1.00  0.00    -0.290 OA
BRANCH  14  16
HETATM   16  C   UNL     1     -41.790  53.906 -53.900  1.00  0.00     0.013 A 
HETATM   17  C   UNL     1     -41.214  52.661 -54.173  1.00  0.00     0.026 A 
HETATM   18  C   UNL     1     -40.455  51.959 -53.214  1.00  0.00    -0.016 A 
HETATM   19  C   UNL     1     -40.268  52.605 -51.970  1.00  0.00     0.079 A 
HETATM   20  C   UNL     1     -40.859  53.850 -51.634  1.00  0.00    -0.016 A 
HETATM   21  C   UNL     1     -41.610  54.488 -52.643  1.00  0.00     0.026 A 
BRANCH  18  22
HETATM   22  C   UNL     1     -39.830  50.596 -53.618  1.00  0.00    -0.021 C 
HETATM   23  C   UNL     1     -39.680  49.556 -52.484  1.00  0.00     0.019 C 
HETATM   24  C   UNL     1     -40.694  49.889 -54.699  1.00  0.00     0.019 C 
HETATM   25  C   UNL     1     -38.428  50.861 -54.203  1.00  0.00     0.019 C 
ENDBRANCH  18  22
BRANCH  19  26
HETATM   26  O   UNL     1     -39.399  52.053 -51.077  1.00  0.00    -0.360 OA
HETATM   27  H   UNL     1     -39.341  52.667 -50.324  1.00  0.00     0.217 HD
ENDBRANCH  19  26
BRANCH  20  28
HETATM   28  C   UNL     1     -40.648  54.550 -50.263  1.00  0.00    -0.021 C 
HETATM   29  C   UNL     1     -41.183  55.992 -50.370  1.00  0.00     0.019 C 
HETATM   30  C   UNL     1     -39.169  54.593 -49.806  1.00  0.00     0.019 C 
HETATM   31  C   UNL     1     -41.408  53.846 -49.109  1.00  0.00     0.019 C 
ENDBRANCH  20  28
ENDBRANCH  14  16
ENDBRANCH  13  14
ENDBRANCH   1  13
BRANCH   6  32
HETATM   32  C   UNL     1     -45.341  58.857 -52.568  1.00  0.00     0.175 C 
BRANCH  32  33
HETATM   33  C   UNL     1     -45.673  60.368 -52.593  1.00  0.00     0.256 C 
BRANCH  33  34
HETATM   34  N   UNL     1     -45.537  61.071 -51.256  1.00  0.00    -0.066 N 
HETATM   35  H   UNL     1     -44.692  61.659 -51.256  1.00  0.00     0.280 HD
HETATM   36  C   UNL     1     -46.723  62.051 -51.065  1.00  0.00     0.261 C 
HETATM   37  C   UNL     1     -46.613  62.757 -49.713  1.00  0.00     0.195 C 
HETATM   38  O   UNL     1     -46.568  61.800 -48.652  1.00  0.00    -0.388 OA
HETATM   39  C   UNL     1     -45.426  60.948 -48.753  1.00  0.00     0.195 C 
HETATM   40  C   UNL     1     -45.468  60.133 -50.052  1.00  0.00     0.261 C 
ENDBRANCH  33  34
ENDBRANCH  32  33
ENDBRANCH   6  32
TORSDOF 9
ENDMDL
MODEL 3
REMARK VINA RESULT:      -7.8      2.140      3.577
REMARK  9 active torsions:
REMARK  status: ('A' for Active; 'I' for Inactive)
REMARK    1  A    between atoms: C_2  and  C_3 
REMARK    2  A    between atoms: C_4  and  O_5 
REMARK    3  A    between atoms: C_6  and  C_7 
REMARK    4  A    between atoms: C_12  and  C_13 
REMARK    5  A    between atoms: C_13  and  C_14 
REMARK    6  A    between atoms: C_14  and  N_15 
REMARK    7  A    between atoms: N_20  and  C_21 
REMARK    8  A    between atoms: C_21  and  C_22 
REMARK    9  A    between atoms: C_22  and  N_23 
ROOT
HETATM    1  N   UNL     1     -44.302  56.407 -54.282  1.00  0.00    -0.174 N 
HETATM    2  C   UNL     1     -44.403  56.907 -52.996  1.00  0.00     0.681 A 
HETATM    3  N   UNL     1     -44.251  56.171 -51.892  1.00  0.00    -0.234 N 
HETATM    4  H   UNL     1     -44.173  56.531 -50.955  1.00  0.00     0.174 HD
HETATM    5  H   UNL     1     -44.339  55.152 -51.981  1.00  0.00     0.174 HD
HETATM    6  N   UNL     1     -44.657  58.289 -52.960  1.00  0.00    -0.180 N 
HETATM    7  C   UNL     1     -44.663  58.676 -54.343  1.00  0.00     0.079 A 
HETATM    8  C   UNL     1     -44.490  57.532 -55.136  1.00  0.00     0.079 A 
HETATM    9  C   UNL     1     -44.766  59.929 -54.911  1.00  0.00     0.032 A 
HETATM   10  C   UNL     1     -44.748  60.009 -56.308  1.00  0.00     0.002 A 
HETATM   11  C   UNL     1     -44.604  58.856 -57.100  1.00  0.00     0.002 A 
HETATM   12  C   UNL     1     -44.459  57.597 -56.514  1.00  0.00     0.032 A 
ENDROOT
BRANCH   1  13
HETATM   13  C   UNL     1     -43.838  55.084 -54.734  1.00  0.00     0.231 C 
BRANCH  13  14
HETATM   14  C   UNL     1     -42.345  54.938 -54.903  1.00  0.00     0.178 C 
HETATM   15  O   UNL     1     -41.772  55.408 -55.888  1.00  0.00    -0.290 OA
BRANCH  14  16
HETATM   16  C   UNL     1     -41.594  54.166 -53.865  1.00  0.00     0.013 A 
HETATM   17  C   UNL     1     -41.400  54.678 -52.577  1.00  0.00     0.026 A 
HETATM   18  C   UNL     1     -40.707  53.959 -51.582  1.00  0.00    -0.016 A 
HETATM   19  C   UNL     1     -40.257  52.668 -51.941  1.00  0.00     0.079 A 
HETATM   20  C   UNL     1     -40.401  52.119 -53.241  1.00  0.00    -0.016 A 
HETATM   21  C   UNL     1     -41.098  52.901 -54.186  1.00  0.00     0.026 A 
BRANCH  18  22
HETATM   22  C   UNL     1     -40.566  54.596 -50.172  1.00  0.00    -0.021 C 
HETATM   23  C   UNL     1     -39.182  54.450 -49.498  1.00  0.00     0.019 C 
HETATM   24  C   UNL     1     -40.826  56.127 -50.228  1.00  0.00     0.019 C 
HETATM   25  C   UNL     1     -41.614  53.951 -49.242  1.00  0.00     0.019 C 
ENDBRANCH  18  22
BRANCH  19  26
HETATM   26  O   UNL     1     -39.743  51.865 -50.967  1.00  0.00    -0.360 OA
HETATM   27  H   UNL     1     -39.800  50.951 -51.296  1.00  0.00     0.217 HD
ENDBRANCH  19  26
BRANCH  20  28
HETATM   28  C   UNL     1     -39.901  50.700 -53.627  1.00  0.00    -0.021 C 
HETATM   29  C   UNL     1     -38.462  50.823 -54.165  1.00  0.00     0.019 C 
HETATM   30  C   UNL     1     -40.780  49.998 -54.693  1.00  0.00     0.019 C 
HETATM   31  C   UNL     1     -39.876  49.726 -52.420  1.00  0.00     0.019 C 
ENDBRANCH  20  28
ENDBRANCH  14  16
ENDBRANCH  13  14
ENDBRANCH   1  13
BRANCH   6  32
HETATM   32  C   UNL     1     -44.605  59.185 -51.796  1.00  0.00     0.175 C 
BRANCH  32  33
HETATM   33  C   UNL     1     -43.395  60.144 -51.701  1.00  0.00     0.256 C 
BRANCH  33  34
HETATM   34  N   UNL     1     -42.046  59.458 -51.592  1.00  0.00    -0.066 N 
HETATM   35  H   UNL     1     -42.178  58.471 -51.331  1.00  0.00     0.280 HD
HETATM   36  C   UNL     1     -41.367  59.431 -52.985  1.00  0.00     0.261 C 
HETATM   37  C   UNL     1     -39.997  58.758 -52.892  1.00  0.00     0.195 C 
HETATM   38  O   UNL     1     -39.173  59.433 -51.937  1.00  0.00    -0.388 OA
HETATM   39  C   UNL     1     -39.734  59.385 -50.625  1.00  0.00     0.195 C 
HETATM   40  C   UNL     1     -41.092  60.097 -50.585  1.00  0.00     0.261 C 
ENDBRANCH  33  34
ENDBRANCH  32  33
ENDBRANCH   6  32
TORSDOF 9
ENDMDL
MODEL 4
REMARK VINA RESULT:      -7.8      3.059      8.748
REMARK  9 active torsions:
REMARK  status: ('A' for Active; 'I' for Inactive)
REMARK    1  A    between atoms: C_2  and  C_3 
REMARK    2  A    between atoms: C_4  and  O_5 
REMARK    3  A    between atoms: C_6  and  C_7 
REMARK    4  A    between atoms: C_12  and  C_13 
REMARK    5  A    between atoms: C_13  and  C_14 
REMARK    6  A    between atoms: C_14  and  N_15 
REMARK    7  A    between atoms: N_20  and  C_21 
REMARK    8  A    between atoms: C_21  and  C_22 
REMARK    9  A    between atoms: C_22  and  N_23 
ROOT
HETATM    1  N   UNL     1     -43.122  55.172 -52.549  1.00  0.00    -0.174 N 
HETATM    2  C   UNL     1     -43.688  55.197 -53.812  1.00  0.00     0.681 A 
HETATM    3  N   UNL     1     -44.681  56.015 -54.171  1.00  0.00    -0.234 N 
HETATM    4  H   UNL     1     -45.008  56.157 -55.112  1.00  0.00     0.174 HD
HETATM    5  H   UNL     1     -45.239  56.445 -53.425  1.00  0.00     0.174 HD
HETATM    6  N   UNL     1     -43.091  54.287 -54.700  1.00  0.00    -0.180 N 
HETATM    7  C   UNL     1     -42.037  53.689 -53.930  1.00  0.00     0.079 A 
HETATM    8  C   UNL     1     -42.086  54.196 -52.622  1.00  0.00     0.079 A 
HETATM    9  C   UNL     1     -41.057  52.797 -54.312  1.00  0.00     0.032 A 
HETATM   10  C   UNL     1     -40.151  52.373 -53.333  1.00  0.00     0.002 A 
HETATM   11  C   UNL     1     -40.223  52.861 -52.016  1.00  0.00     0.002 A 
HETATM   12  C   UNL     1     -41.193  53.796 -51.651  1.00  0.00     0.032 A 
ENDROOT
BRANCH   1  13
HETATM   13  C   UNL     1     -43.313  56.103 -51.423  1.00  0.00     0.231 C 
BRANCH  13  14
HETATM   14  C   UNL     1     -42.361  57.274 -51.375  1.00  0.00     0.178 C 
HETATM   15  O   UNL     1     -41.258  57.168 -50.836  1.00  0.00    -0.290 OA
BRANCH  14  16
HETATM   16  C   UNL     1     -42.819  58.574 -51.956  1.00  0.00     0.013 A 
HETATM   17  C   UNL     1     -42.874  58.772 -53.340  1.00  0.00     0.026 A 
HETATM   18  C   UNL     1     -43.316  59.985 -53.906  1.00  0.00    -0.016 A 
HETATM   19  C   UNL     1     -43.745  60.980 -52.998  1.00  0.00     0.079 A 
HETATM   20  C   UNL     1     -43.676  60.839 -51.588  1.00  0.00    -0.016 A 
HETATM   21  C   UNL     1     -43.217  59.600 -51.096  1.00  0.00     0.026 A 
BRANCH  18  22
HETATM   22  C   UNL     1     -43.371  60.102 -55.454  1.00  0.00    -0.021 C 
HETATM   23  C   UNL     1     -42.909  61.452 -56.048  1.00  0.00     0.019 C 
HETATM   24  C   UNL     1     -42.461  59.036 -56.124  1.00  0.00     0.019 C 
HETATM   25  C   UNL     1     -44.827  59.862 -55.906  1.00  0.00     0.019 C 
ENDBRANCH  18  22
BRANCH  19  26
HETATM   26  O   UNL     1     -44.346  62.097 -53.495  1.00  0.00    -0.360 OA
HETATM   27  H   UNL     1     -45.307  61.955 -53.428  1.00  0.00     0.217 HD
ENDBRANCH  19  26
BRANCH  20  28
HETATM   28  C   UNL     1     -44.149  61.939 -50.598  1.00  0.00    -0.021 C 
HETATM   29  C   UNL     1     -44.089  61.363 -49.169  1.00  0.00     0.019 C 
HETATM   30  C   UNL     1     -45.584  62.452 -50.875  1.00  0.00     0.019 C 
HETATM   31  C   UNL     1     -43.253  63.205 -50.638  1.00  0.00     0.019 C 
ENDBRANCH  20  28
ENDBRANCH  14  16
ENDBRANCH  13  14
ENDBRANCH   1  13
BRANCH   6  32
HETATM   32  C   UNL     1     -43.276  54.196 -56.156  1.00  0.00     0.175 C 
BRANCH  32  33
HETATM   33  C   UNL     1     -42.860  55.427 -56.996  1.00  0.00     0.256 C 
BRANCH  33  34
HETATM   34  N   UNL     1     -43.732  55.694 -58.209  1.00  0.00    -0.066 N 
HETATM   35  H   UNL     1     -44.612  56.139 -57.914  1.00  0.00     0.280 HD
HETATM   36  C   UNL     1     -43.032  56.725 -59.130  1.00  0.00     0.261 C 
HETATM   37  C   UNL     1     -43.888  56.994 -60.368  1.00  0.00     0.195 C 
HETATM   38  O   UNL     1     -44.145  55.775 -61.072  1.00  0.00    -0.388 OA
HETATM   39  C   UNL     1     -44.877  54.845 -60.273  1.00  0.00     0.195 C 
HETATM   40  C   UNL     1     -44.076  54.449 -59.026  1.00  0.00     0.261 C 
ENDBRANCH  33  34
ENDBRANCH  32  33
ENDBRANCH   6  32
TORSDOF 9
ENDMDL
MODEL 5
REMARK VINA RESULT:      -7.7      3.076      8.432
REMARK  9 active torsions:
REMARK  status: ('A' for Active; 'I' for Inactive)
REMARK    1  A    between atoms: C_2  and  C_3 
REMARK    2  A    between atoms: C_4  and  O_5 
REMARK    3  A    between atoms: C_6  and  C_7 
REMARK    4  A    between atoms: C_12  and  C_13 
REMARK    5  A    between atoms: C_13  and  C_14 
REMARK    6  A    between atoms: C_14  and  N_15 
REMARK    7  A    between atoms: N_20  and  C_21 
REMARK    8  A    between atoms: C_21  and  C_22 
REMARK    9  A    between atoms: C_22  and  N_23 
ROOT
HETATM    1  N   UNL     1     -43.207  55.324 -52.565  1.00  0.00    -0.174 N 
HETATM    2  C   UNL     1     -43.764  55.311 -53.832  1.00  0.00     0.681 A 
HETATM    3  N   UNL     1     -44.765  56.105 -54.218  1.00  0.00    -0.234 N 
HETATM    4  H   UNL     1     -45.087  56.221 -55.165  1.00  0.00     0.174 HD
HETATM    5  H   UNL     1     -45.334  56.547 -53.488  1.00  0.00     0.174 HD
HETATM    6  N   UNL     1     -43.148  54.387 -54.694  1.00  0.00    -0.180 N 
HETATM    7  C   UNL     1     -42.093  53.822 -53.902  1.00  0.00     0.079 A 
HETATM    8  C   UNL     1     -42.158  54.360 -52.607  1.00  0.00     0.079 A 
HETATM    9  C   UNL     1     -41.099  52.934 -54.255  1.00  0.00     0.032 A 
HETATM   10  C   UNL     1     -40.194  52.546 -53.259  1.00  0.00     0.002 A 
HETATM   11  C   UNL     1     -40.282  53.065 -51.955  1.00  0.00     0.002 A 
HETATM   12  C   UNL     1     -41.268  53.995 -51.619  1.00  0.00     0.032 A 
ENDROOT
BRANCH   1  13
HETATM   13  C   UNL     1     -43.419  56.280 -51.464  1.00  0.00     0.231 C 
BRANCH  13  14
HETATM   14  C   UNL     1     -42.514  57.487 -51.464  1.00  0.00     0.178 C 
HETATM   15  O   UNL     1     -41.350  57.404 -51.066  1.00  0.00    -0.290 OA
BRANCH  14  16
HETATM   16  C   UNL     1     -43.086  58.793 -51.916  1.00  0.00     0.013 A 
HETATM   17  C   UNL     1     -43.387  59.809 -51.002  1.00  0.00     0.026 A 
HETATM   18  C   UNL     1     -43.913  61.052 -51.410  1.00  0.00    -0.016 A 
HETATM   19  C   UNL     1     -44.080  61.234 -52.802  1.00  0.00     0.079 A 
HETATM   20  C   UNL     1     -43.822  60.224 -53.763  1.00  0.00    -0.016 A 
HETATM   21  C   UNL     1     -43.304  59.005 -53.279  1.00  0.00     0.026 A 
BRANCH  18  22
HETATM   22  C   UNL     1     -44.188  62.130 -50.326  1.00  0.00    -0.021 C 
HETATM   23  C   UNL     1     -45.487  62.951 -50.501  1.00  0.00     0.019 C 
HETATM   24  C   UNL     1     -44.309  61.483 -48.918  1.00  0.00     0.019 C 
HETATM   25  C   UNL     1     -43.004  63.118 -50.316  1.00  0.00     0.019 C 
ENDBRANCH  18  22
BRANCH  19  26
HETATM   26  O   UNL     1     -44.416  62.474 -53.259  1.00  0.00    -0.360 OA
HETATM   27  H   UNL     1     -43.589  62.904 -53.540  1.00  0.00     0.217 HD
ENDBRANCH  19  26
BRANCH  20  28
HETATM   28  C   UNL     1     -44.010  60.433 -55.291  1.00  0.00    -0.021 C 
HETATM   29  C   UNL     1     -43.661  59.114 -56.007  1.00  0.00     0.019 C 
HETATM   30  C   UNL     1     -43.138  61.572 -55.876  1.00  0.00     0.019 C 
HETATM   31  C   UNL     1     -45.468  60.807 -55.668  1.00  0.00     0.019 C 
ENDBRANCH  20  28
ENDBRANCH  14  16
ENDBRANCH  13  14
ENDBRANCH   1  13
BRANCH   6  32
HETATM   32  C   UNL     1     -43.321  54.257 -56.148  1.00  0.00     0.175 C 
BRANCH  32  33
HETATM   33  C   UNL     1     -42.857  55.448 -57.020  1.00  0.00     0.256 C 
BRANCH  33  34
HETATM   34  N   UNL     1     -43.732  55.733 -58.226  1.00  0.00    -0.066 N 
HETATM   35  H   UNL     1     -44.605  56.187 -57.924  1.00  0.00     0.280 HD
HETATM   36  C   UNL     1     -43.025  56.763 -59.145  1.00  0.00     0.261 C 
HETATM   37  C   UNL     1     -43.885  57.049 -60.377  1.00  0.00     0.195 C 
HETATM   38  O   UNL     1     -44.160  55.839 -61.086  1.00  0.00    -0.388 OA
HETATM   39  C   UNL     1     -44.898  54.912 -60.289  1.00  0.00     0.195 C 
HETATM   40  C   UNL     1     -44.095  54.499 -59.049  1.00  0.00     0.261 C 
ENDBRANCH  33  34
ENDBRANCH  32  33
ENDBRANCH   6  32
TORSDOF 9
ENDMDL
MODEL 6
REMARK VINA RESULT:      -7.6      2.847      4.873
REMARK  9 active torsions:
REMARK  status: ('A' for Active; 'I' for Inactive)
REMARK    1  A    between atoms: C_2  and  C_3 
REMARK    2  A    between atoms: C_4  and  O_5 
REMARK    3  A    between atoms: C_6  and  C_7 
REMARK    4  A    between atoms: C_12  and  C_13 
REMARK    5  A    between atoms: C_13  and  C_14 
REMARK    6  A    between atoms: C_14  and  N_15 
REMARK    7  A    between atoms: N_20  and  C_21 
REMARK    8  A    between atoms: C_21  and  C_22 
REMARK    9  A    between atoms: C_22  and  N_23 
ROOT
HETATM    1  N   UNL     1     -44.122  56.648 -54.683  1.00  0.00    -0.174 N 
HETATM    2  C   UNL     1     -44.315  57.476 -55.775  1.00  0.00     0.681 A 
HETATM    3  N   UNL     1     -44.210  57.078 -57.045  1.00  0.00    -0.234 N 
HETATM    4  H   UNL     1     -44.486  57.615 -57.850  1.00  0.00     0.174 HD
HETATM    5  H   UNL     1     -43.701  56.207 -57.233  1.00  0.00     0.174 HD
HETATM    6  N   UNL     1     -44.662  58.789 -55.414  1.00  0.00    -0.180 N 
HETATM    7  C   UNL     1     -44.737  58.748 -53.981  1.00  0.00     0.079 A 
HETATM    8  C   UNL     1     -44.371  57.465 -53.544  1.00  0.00     0.079 A 
HETATM    9  C   UNL     1     -45.133  59.720 -53.087  1.00  0.00     0.032 A 
HETATM   10  C   UNL     1     -45.100  59.398 -51.725  1.00  0.00     0.002 A 
HETATM   11  C   UNL     1     -44.703  58.121 -51.289  1.00  0.00     0.002 A 
HETATM   12  C   UNL     1     -44.344  57.131 -52.206  1.00  0.00     0.032 A 
ENDROOT
BRANCH   1  13
HETATM   13  C   UNL     1     -43.965  55.183 -54.642  1.00  0.00     0.231 C 
BRANCH  13  14
HETATM   14  C   UNL     1     -42.600  54.662 -55.020  1.00  0.00     0.178 C 
HETATM   15  O   UNL     1     -42.196  54.736 -56.182  1.00  0.00    -0.290 OA
BRANCH  14  16
HETATM   16  C   UNL     1     -41.777  54.011 -53.954  1.00  0.00     0.013 A 
HETATM   17  C   UNL     1     -41.612  54.605 -52.699  1.00  0.00     0.026 A 
HETATM   18  C   UNL     1     -40.853  54.000 -51.677  1.00  0.00    -0.016 A 
HETATM   19  C   UNL     1     -40.302  52.732 -51.974  1.00  0.00     0.079 A 
HETATM   20  C   UNL     1     -40.413  52.105 -53.241  1.00  0.00    -0.016 A 
HETATM   21  C   UNL     1     -41.182  52.775 -54.215  1.00  0.00     0.026 A 
BRANCH  18  22
HETATM   22  C   UNL     1     -40.750  54.722 -50.305  1.00  0.00    -0.021 C 
HETATM   23  C   UNL     1     -39.478  54.426 -49.478  1.00  0.00     0.019 C 
HETATM   24  C   UNL     1     -40.761  56.265 -50.488  1.00  0.00     0.019 C 
HETATM   25  C   UNL     1     -41.971  54.318 -49.453  1.00  0.00     0.019 C 
ENDBRANCH  18  22
BRANCH  19  26
HETATM   26  O   UNL     1     -39.713  52.028 -50.966  1.00  0.00    -0.360 OA
HETATM   27  H   UNL     1     -39.058  52.619 -50.555  1.00  0.00     0.217 HD
ENDBRANCH  19  26
BRANCH  20  28
HETATM   28  C   UNL     1     -39.802  50.712 -53.558  1.00  0.00    -0.021 C 
HETATM   29  C   UNL     1     -38.340  50.914 -54.000  1.00  0.00     0.019 C 
HETATM   30  C   UNL     1     -40.561  49.936 -54.664  1.00  0.00     0.019 C 
HETATM   31  C   UNL     1     -39.801  49.765 -52.329  1.00  0.00     0.019 C 
ENDBRANCH  20  28
ENDBRANCH  14  16
ENDBRANCH  13  14
ENDBRANCH   1  13
BRANCH   6  32
HETATM   32  C   UNL     1     -45.151  59.865 -56.289  1.00  0.00     0.175 C 
BRANCH  32  33
HETATM   33  C   UNL     1     -44.089  60.805 -56.907  1.00  0.00     0.256 C 
BRANCH  33  34
HETATM   34  N   UNL     1     -43.845  60.601 -58.391  1.00  0.00    -0.066 N 
HETATM   35  H   UNL     1     -43.727  61.514 -58.853  1.00  0.00     0.280 HD
HETATM   36  C   UNL     1     -42.501  59.857 -58.594  1.00  0.00     0.261 C 
HETATM   37  C   UNL     1     -42.245  59.625 -60.084  1.00  0.00     0.195 C 
HETATM   38  O   UNL     1     -43.326  58.894 -60.669  1.00  0.00    -0.388 OA
HETATM   39  C   UNL     1     -44.560  59.607 -60.579  1.00  0.00     0.195 C 
HETATM   40  C   UNL     1     -44.952  59.837 -59.114  1.00  0.00     0.261 C 
ENDBRANCH  33  34
ENDBRANCH  32  33
ENDBRANCH   6  32
TORSDOF 9
ENDMDL
MODEL 7
REMARK VINA RESULT:      -7.6      4.065      6.121
REMARK  9 active torsions:
REMARK  status: ('A' for Active; 'I' for Inactive)
REMARK    1  A    between atoms: C_2  and  C_3 
REMARK    2  A    between atoms: C_4  and  O_5 
REMARK    3  A    between atoms: C_6  and  C_7 
REMARK    4  A    between atoms: C_12  and  C_13 
REMARK    5  A    between atoms: C_13  and  C_14 
REMARK    6  A    between atoms: C_14  and  N_15 
REMARK    7  A    between atoms: N_20  and  C_21 
REMARK    8  A    between atoms: C_21  and  C_22 
REMARK    9  A    between atoms: C_22  and  N_23 
ROOT
HETATM    1  N   UNL     1     -42.749  56.269 -56.803  1.00  0.00    -0.174 N 
HETATM    2  C   UNL     1     -42.696  57.600 -56.428  1.00  0.00     0.681 A 
HETATM    3  N   UNL     1     -42.145  58.037 -55.293  1.00  0.00    -0.234 N 
HETATM    4  H   UNL     1     -41.962  59.000 -55.065  1.00  0.00     0.174 HD
HETATM    5  H   UNL     1     -42.003  57.356 -54.538  1.00  0.00     0.174 HD
HETATM    6  N   UNL     1     -43.261  58.463 -57.382  1.00  0.00    -0.180 N 
HETATM    7  C   UNL     1     -43.648  57.591 -58.455  1.00  0.00     0.079 A 
HETATM    8  C   UNL     1     -43.375  56.265 -58.083  1.00  0.00     0.079 A 
HETATM    9  C   UNL     1     -44.164  57.891 -59.698  1.00  0.00     0.032 A 
HETATM   10  C   UNL     1     -44.458  56.822 -60.552  1.00  0.00     0.002 A 
HETATM   11  C   UNL     1     -44.210  55.493 -60.164  1.00  0.00     0.002 A 
HETATM   12  C   UNL     1     -43.649  55.203 -58.919  1.00  0.00     0.032 A 
ENDROOT
BRANCH   1  13
HETATM   13  C   UNL     1     -42.086  55.102 -56.195  1.00  0.00     0.231 C 
BRANCH  13  14
HETATM   14  C   UNL     1     -42.745  54.550 -54.955  1.00  0.00     0.178 C 
HETATM   15  O   UNL     1     -43.963  54.644 -54.792  1.00  0.00    -0.290 OA
BRANCH  14  16
HETATM   16  C   UNL     1     -41.870  53.931 -53.912  1.00  0.00     0.013 A 
HETATM   17  C   UNL     1     -41.665  54.550 -52.674  1.00  0.00     0.026 A 
HETATM   18  C   UNL     1     -40.856  53.975 -51.673  1.00  0.00    -0.016 A 
HETATM   19  C   UNL     1     -40.295  52.712 -51.971  1.00  0.00     0.079 A 
HETATM   20  C   UNL     1     -40.446  52.061 -53.222  1.00  0.00    -0.016 A 
HETATM   21  C   UNL     1     -41.264  52.701 -54.176  1.00  0.00     0.026 A 
BRANCH  18  22
HETATM   22  C   UNL     1     -40.711  54.722 -50.319  1.00  0.00    -0.021 C 
HETATM   23  C   UNL     1     -39.402  54.463 -49.539  1.00  0.00     0.019 C 
HETATM   24  C   UNL     1     -40.757  56.261 -50.527  1.00  0.00     0.019 C 
HETATM   25  C   UNL     1     -41.889  54.311 -49.412  1.00  0.00     0.019 C 
ENDBRANCH  18  22
BRANCH  19  26
HETATM   26  O   UNL     1     -39.655  52.035 -50.977  1.00  0.00    -0.360 OA
HETATM   27  H   UNL     1     -40.221  51.279 -50.740  1.00  0.00     0.217 HD
ENDBRANCH  19  26
BRANCH  20  28
HETATM   28  C   UNL     1     -39.824  50.673 -53.541  1.00  0.00    -0.021 C 
HETATM   29  C   UNL     1     -38.371  50.889 -54.009  1.00  0.00     0.019 C 
HETATM   30  C   UNL     1     -40.592  49.881 -54.628  1.00  0.00     0.019 C 
HETATM   31  C   UNL     1     -39.790  49.735 -52.305  1.00  0.00     0.019 C 
ENDBRANCH  20  28
ENDBRANCH  14  16
ENDBRANCH  13  14
ENDBRANCH   1  13
BRANCH   6  32
HETATM   32  C   UNL     1     -43.184  59.931 -57.427  1.00  0.00     0.175 C 
BRANCH  32  33
HETATM   33  C   UNL     1     -41.783  60.555 -57.628  1.00  0.00     0.256 C 
BRANCH  33  34
HETATM   34  N   UNL     1     -41.665  61.485 -58.821  1.00  0.00    -0.066 N 
HETATM   35  H   UNL     1     -42.390  62.214 -58.767  1.00  0.00     0.280 HD
HETATM   36  C   UNL     1     -40.312  62.239 -58.755  1.00  0.00     0.261 C 
HETATM   37  C   UNL     1     -40.167  63.169 -59.961  1.00  0.00     0.195 C 
HETATM   38  O   UNL     1     -40.278  62.428 -61.179  1.00  0.00    -0.388 OA
HETATM   39  C   UNL     1     -41.556  61.804 -61.306  1.00  0.00     0.195 C 
HETATM   40  C   UNL     1     -41.783  60.791 -60.176  1.00  0.00     0.261 C 
ENDBRANCH  33  34
ENDBRANCH  32  33
ENDBRANCH   6  32
TORSDOF 9
ENDMDL
MODEL 8
REMARK VINA RESULT:      -7.6      3.273      8.497
REMARK  9 active torsions:
REMARK  status: ('A' for Active; 'I' for Inactive)
REMARK    1  A    between atoms: C_2  and  C_3 
REMARK    2  A    between atoms: C_4  and  O_5 
REMARK    3  A    between atoms: C_6  and  C_7 
REMARK    4  A    between atoms: C_12  and  C_13 
REMARK    5  A    between atoms: C_13  and  C_14 
REMARK    6  A    between atoms: C_14  and  N_15 
REMARK    7  A    between atoms: N_20  and  C_21 
REMARK    8  A    between atoms: C_21  and  C_22 
REMARK    9  A    between atoms: C_22  and  N_23 
ROOT
HETATM    1  N   UNL     1     -43.533  56.620 -52.161  1.00  0.00    -0.174 N 
HETATM    2  C   UNL     1     -43.245  55.448 -51.485  1.00  0.00     0.681 A 
HETATM    3  N   UNL     1     -43.898  54.298 -51.666  1.00  0.00    -0.234 N 
HETATM    4  H   UNL     1     -43.618  53.403 -51.302  1.00  0.00     0.174 HD
HETATM    5  H   UNL     1     -44.823  54.338 -52.111  1.00  0.00     0.174 HD
HETATM    6  N   UNL     1     -42.165  55.578 -50.595  1.00  0.00    -0.180 N 
HETATM    7  C   UNL     1     -41.723  56.931 -50.779  1.00  0.00     0.079 A 
HETATM    8  C   UNL     1     -42.577  57.567 -51.694  1.00  0.00     0.079 A 
HETATM    9  C   UNL     1     -40.637  57.589 -50.242  1.00  0.00     0.032 A 
HETATM   10  C   UNL     1     -40.451  58.930 -50.599  1.00  0.00     0.002 A 
HETATM   11  C   UNL     1     -41.326  59.572 -51.493  1.00  0.00     0.002 A 
HETATM   12  C   UNL     1     -42.399  58.884 -52.063  1.00  0.00     0.032 A 
ENDROOT
BRANCH   1  13
HETATM   13  C   UNL     1     -44.429  56.836 -53.311  1.00  0.00     0.231 C 
BRANCH  13  14
HETATM   14  C   UNL     1     -43.922  56.325 -54.638  1.00  0.00     0.178 C 
HETATM   15  O   UNL     1     -43.619  55.140 -54.785  1.00  0.00    -0.290 OA
BRANCH  14  16
HETATM   16  C   UNL     1     -43.753  57.311 -55.750  1.00  0.00     0.013 A 
HETATM   17  C   UNL     1     -43.521  56.891 -57.065  1.00  0.00     0.026 A 
HETATM   18  C   UNL     1     -43.374  57.804 -58.128  1.00  0.00    -0.016 A 
HETATM   19  C   UNL     1     -43.518  59.172 -57.803  1.00  0.00     0.079 A 
HETATM   20  C   UNL     1     -43.720  59.649 -56.482  1.00  0.00    -0.016 A 
HETATM   21  C   UNL     1     -43.850  58.675 -55.470  1.00  0.00     0.026 A 
BRANCH  18  22
HETATM   22  C   UNL     1     -43.149  57.243 -59.559  1.00  0.00    -0.021 C 
HETATM   23  C   UNL     1     -44.317  57.434 -60.554  1.00  0.00     0.019 C 
HETATM   24  C   UNL     1     -41.929  57.926 -60.237  1.00  0.00     0.019 C 
HETATM   25  C   UNL     1     -42.867  55.730 -59.447  1.00  0.00     0.019 C 
ENDBRANCH  18  22
BRANCH  19  26
HETATM   26  O   UNL     1     -43.562  60.080 -58.819  1.00  0.00    -0.360 OA
HETATM   27  H   UNL     1     -42.863  59.832 -59.449  1.00  0.00     0.217 HD
ENDBRANCH  19  26
BRANCH  20  28
HETATM   28  C   UNL     1     -43.876  61.155 -56.134  1.00  0.00    -0.021 C 
HETATM   29  C   UNL     1     -43.727  61.317 -54.609  1.00  0.00     0.019 C 
HETATM   30  C   UNL     1     -45.231  61.759 -56.576  1.00  0.00     0.019 C 
HETATM   31  C   UNL     1     -42.798  62.040 -56.814  1.00  0.00     0.019 C 
ENDBRANCH  20  28
ENDBRANCH  14  16
ENDBRANCH  13  14
ENDBRANCH   1  13
BRANCH   6  32
HETATM   32  C   UNL     1     -41.447  54.508 -49.886  1.00  0.00     0.175 C 
BRANCH  32  33
HETATM   33  C   UNL     1     -40.182  53.938 -50.570  1.00  0.00     0.256 C 
BRANCH  33  34
HETATM   34  N   UNL     1     -40.453  52.921 -51.663  1.00  0.00    -0.066 N 
HETATM   35  H   UNL     1     -41.378  52.492 -51.518  1.00  0.00     0.280 HD
HETATM   36  C   UNL     1     -40.540  53.644 -53.031  1.00  0.00     0.261 C 
HETATM   37  C   UNL     1     -40.795  52.632 -54.149  1.00  0.00     0.195 C 
HETATM   38  O   UNL     1     -39.769  51.636 -54.164  1.00  0.00    -0.388 OA
HETATM   39  C   UNL     1     -39.735  50.890 -52.947  1.00  0.00     0.195 C 
HETATM   40  C   UNL     1     -39.416  51.802 -51.756  1.00  0.00     0.261 C 
ENDBRANCH  33  34
ENDBRANCH  32  33
ENDBRANCH   6  32
TORSDOF 9
ENDMDL
MODEL 9
REMARK VINA RESULT:      -7.5      3.239      7.962
REMARK  9 active torsions:
REMARK  status: ('A' for Active; 'I' for Inactive)
REMARK    1  A    between atoms: C_2  and  C_3 
REMARK    2  A    between atoms: C_4  and  O_5 
REMARK    3  A    between atoms: C_6  and  C_7 
REMARK    4  A    between atoms: C_12  and  C_13 
REMARK    5  A    between atoms: C_13  and  C_14 
REMARK    6  A    between atoms: C_14  and  N_15 
REMARK    7  A    between atoms: N_20  and  C_21 
REMARK    8  A    between atoms: C_21  and  C_22 
REMARK    9  A    between atoms: C_22  and  N_23 
ROOT
HETATM    1  N   UNL     1     -43.573  56.678 -52.074  1.00  0.00    -0.174 N 
HETATM    2  C   UNL     1     -43.278  55.518 -51.380  1.00  0.00     0.681 A 
HETATM    3  N   UNL     1     -43.948  54.371 -51.519  1.00  0.00    -0.234 N 
HETATM    4  H   UNL     1     -43.668  53.481 -51.142  1.00  0.00     0.174 HD
HETATM    5  H   UNL     1     -44.884  54.412 -51.939  1.00  0.00     0.174 HD
HETATM    6  N   UNL     1     -42.174  55.655 -50.523  1.00  0.00    -0.180 N 
HETATM    7  C   UNL     1     -41.723  56.999 -50.749  1.00  0.00     0.079 A 
HETATM    8  C   UNL     1     -42.594  57.624 -51.654  1.00  0.00     0.079 A 
HETATM    9  C   UNL     1     -40.615  57.657 -50.256  1.00  0.00     0.032 A 
HETATM   10  C   UNL     1     -40.425  58.987 -50.647  1.00  0.00     0.002 A 
HETATM   11  C   UNL     1     -41.318  59.619 -51.532  1.00  0.00     0.002 A 
HETATM   12  C   UNL     1     -42.413  58.931 -52.057  1.00  0.00     0.032 A 
ENDROOT
BRANCH   1  13
HETATM   13  C   UNL     1     -44.497  56.878 -53.205  1.00  0.00     0.231 C 
BRANCH  13  14
HETATM   14  C   UNL     1     -44.009  56.379 -54.543  1.00  0.00     0.178 C 
HETATM   15  O   UNL     1     -43.667  55.204 -54.692  1.00  0.00    -0.290 OA
BRANCH  14  16
HETATM   16  C   UNL     1     -43.909  57.363 -55.664  1.00  0.00     0.013 A 
HETATM   17  C   UNL     1     -44.075  58.735 -55.444  1.00  0.00     0.026 A 
HETATM   18  C   UNL     1     -43.969  59.679 -56.486  1.00  0.00    -0.016 A 
HETATM   19  C   UNL     1     -43.641  59.169 -57.762  1.00  0.00     0.079 A 
HETATM   20  C   UNL     1     -43.496  57.786 -58.042  1.00  0.00    -0.016 A 
HETATM   21  C   UNL     1     -43.623  56.901 -56.951  1.00  0.00     0.026 A 
BRANCH  18  22
HETATM   22  C   UNL     1     -44.140  61.184 -56.140  1.00  0.00    -0.021 C 
HETATM   23  C   UNL     1     -42.998  62.119 -56.600  1.00  0.00     0.019 C 
HETATM   24  C   UNL     1     -45.423  61.762 -56.800  1.00  0.00     0.019 C 
HETATM   25  C   UNL     1     -44.271  61.317 -54.609  1.00  0.00     0.019 C 
ENDBRANCH  18  22
BRANCH  19  26
HETATM   26  O   UNL     1     -43.353  60.051 -58.760  1.00  0.00    -0.360 OA
HETATM   27  H   UNL     1     -42.989  60.848 -58.335  1.00  0.00     0.217 HD
ENDBRANCH  19  26
BRANCH  20  28
HETATM   28  C   UNL     1     -43.136  57.234 -59.449  1.00  0.00    -0.021 C 
HETATM   29  C   UNL     1     -43.095  55.695 -59.370  1.00  0.00     0.019 C 
HETATM   30  C   UNL     1     -41.779  57.748 -59.991  1.00  0.00     0.019 C 
HETATM   31  C   UNL     1     -44.178  57.626 -60.530  1.00  0.00     0.019 C 
ENDBRANCH  20  28
ENDBRANCH  14  16
ENDBRANCH  13  14
ENDBRANCH   1  13
BRANCH   6  32
HETATM   32  C   UNL     1     -41.448  54.593 -49.810  1.00  0.00     0.175 C 
BRANCH  32  33
HETATM   33  C   UNL     1     -40.193  54.013 -50.503  1.00  0.00     0.256 C 
BRANCH  33  34
HETATM   34  N   UNL     1     -40.481  53.036 -51.628  1.00  0.00    -0.066 N 
HETATM   35  H   UNL     1     -41.413  52.619 -51.496  1.00  0.00     0.280 HD
HETATM   36  C   UNL     1     -40.556  53.803 -52.972  1.00  0.00     0.261 C 
HETATM   37  C   UNL     1     -40.828  52.832 -54.121  1.00  0.00     0.195 C 
HETATM   38  O   UNL     1     -39.819  51.819 -54.168  1.00  0.00    -0.388 OA
HETATM   39  C   UNL     1     -39.798  51.034 -52.976  1.00  0.00     0.195 C 
HETATM   40  C   UNL     1     -39.464  51.903 -51.757  1.00  0.00     0.261 C 
ENDBRANCH  33  34
ENDBRANCH  32  33
ENDBRANCH   6  32
TORSDOF 9
ENDMDL
MODEL 10
REMARK VINA RESULT:      -7.5      3.913      8.564
REMARK  9 active torsions:
REMARK  status: ('A' for Active; 'I' for Inactive)
REMARK    1  A    between atoms: C_2  and  C_3 
REMARK    2  A    between atoms: C_4  and  O_5 
REMARK    3  A    between atoms: C_6  and  C_7 
REMARK    4  A    between atoms: C_12  and  C_13 
REMARK    5  A    between atoms: C_13  and  C_14 
REMARK    6  A    between atoms: C_14  and  N_15 
REMARK    7  A    between atoms: N_20  and  C_21 
REMARK    8  A    between atoms: C_21  and  C_22 
REMARK    9  A    between atoms: C_22  and  N_23 
ROOT
HETATM    1  N   UNL     1     -44.214  58.262 -53.540  1.00  0.00    -0.174 N 
HETATM    2  C   UNL     1     -44.303  56.890 -53.699  1.00  0.00     0.681 A 
HETATM    3  N   UNL     1     -45.157  56.287 -54.530  1.00  0.00    -0.234 N 
HETATM    4  H   UNL     1     -45.143  55.310 -54.773  1.00  0.00     0.174 HD
HETATM    5  H   UNL     1     -45.966  56.825 -54.858  1.00  0.00     0.174 HD
HETATM    6  N   UNL     1     -43.378  56.184 -52.912  1.00  0.00    -0.180 N 
HETATM    7  C   UNL     1     -42.625  57.213 -52.252  1.00  0.00     0.079 A 
HETATM    8  C   UNL     1     -43.160  58.463 -52.602  1.00  0.00     0.079 A 
HETATM    9  C   UNL     1     -41.520  57.115 -51.433  1.00  0.00     0.032 A 
HETATM   10  C   UNL     1     -40.989  58.304 -50.918  1.00  0.00     0.002 A 
HETATM   11  C   UNL     1     -41.547  59.552 -51.248  1.00  0.00     0.002 A 
HETATM   12  C   UNL     1     -42.640  59.642 -52.112  1.00  0.00     0.032 A 
ENDROOT
BRANCH   1  13
HETATM   13  C   UNL     1     -44.845  59.335 -54.329  1.00  0.00     0.231 C 
BRANCH  13  14
HETATM   14  C   UNL     1     -44.058  59.814 -55.524  1.00  0.00     0.178 C 
HETATM   15  O   UNL     1     -43.187  60.677 -55.402  1.00  0.00    -0.290 OA
BRANCH  14  16
HETATM   16  C   UNL     1     -44.403  59.246 -56.864  1.00  0.00     0.013 A 
HETATM   17  C   UNL     1     -45.239  59.933 -57.752  1.00  0.00     0.026 A 
HETATM   18  C   UNL     1     -45.563  59.420 -59.024  1.00  0.00    -0.016 A 
HETATM   19  C   UNL     1     -44.960  58.191 -59.376  1.00  0.00     0.079 A 
HETATM   20  C   UNL     1     -44.133  57.442 -58.500  1.00  0.00    -0.016 A 
HETATM   21  C   UNL     1     -43.860  58.016 -57.241  1.00  0.00     0.026 A 
BRANCH  18  22
HETATM   22  C   UNL     1     -46.476  60.268 -59.952  1.00  0.00    -0.021 C 
HETATM   23  C   UNL     1     -45.860  60.692 -61.306  1.00  0.00     0.019 C 
HETATM   24  C   UNL     1     -47.766  59.486 -60.326  1.00  0.00     0.019 C 
HETATM   25  C   UNL     1     -46.878  61.550 -59.195  1.00  0.00     0.019 C 
ENDBRANCH  18  22
BRANCH  19  26
HETATM   26  O   UNL     1     -45.098  57.744 -60.656  1.00  0.00    -0.360 OA
HETATM   27  H   UNL     1     -44.216  57.452 -60.949  1.00  0.00     0.217 HD
ENDBRANCH  19  26
BRANCH  20  28
HETATM   28  C   UNL     1     -43.476  56.091 -58.896  1.00  0.00    -0.021 C 
HETATM   29  C   UNL     1     -42.976  55.402 -57.611  1.00  0.00     0.019 C 
HETATM   30  C   UNL     1     -42.291  56.241 -59.883  1.00  0.00     0.019 C 
HETATM   31  C   UNL     1     -44.468  55.127 -59.598  1.00  0.00     0.019 C 
ENDBRANCH  20  28
ENDBRANCH  14  16
ENDBRANCH  13  14
ENDBRANCH   1  13
BRANCH   6  32
HETATM   32  C   UNL     1     -43.036  54.756 -52.986  1.00  0.00     0.175 C 
BRANCH  32  33
HETATM   33  C   UNL     1     -41.994  54.337 -54.050  1.00  0.00     0.256 C 
BRANCH  33  34
HETATM   34  N   UNL     1     -40.808  53.561 -53.509  1.00  0.00    -0.066 N 
HETATM   35  H   UNL     1     -39.942  54.096 -53.662  1.00  0.00     0.280 HD
HETATM   36  C   UNL     1     -40.942  53.419 -51.971  1.00  0.00     0.261 C 
HETATM   37  C   UNL     1     -39.764  52.623 -51.409  1.00  0.00     0.195 C 
HETATM   38  O   UNL     1     -39.687  51.339 -52.033  1.00  0.00    -0.388 OA
HETATM   39  C   UNL     1     -39.464  51.444 -53.439  1.00  0.00     0.195 C 
HETATM   40  C   UNL     1     -40.628  52.173 -54.122  1.00  0.00     0.261 C 
ENDBRANCH  33  34
ENDBRANCH  32  33
ENDBRANCH   6  32
TORSDOF 9
ENDMDL
