MODEL 1
REMARK VINA RESULT:      -7.6      0.000      0.000
REMARK  7 active torsions:
REMARK  status: ('A' for Active; 'I' for Inactive)
REMARK    1  A    between atoms: C_7  and  C_8 
REMARK    2  A    between atoms: C_8  and  C_9 
REMARK    3  A    between atoms: C_9  and  C_10 
REMARK    4  A    between atoms: C_10  and  O_11 
REMARK    5  A    between atoms: C_13  and  C_14 
REMARK    6  A    between atoms: C_21  and  C_22 
REMARK       I    between atoms: C_22  and  N_23 
REMARK    7  A    between atoms: N_23  and  C_24 
ROOT
HETATM    1  C   UNL     1     -43.232  55.578 -58.752  1.00  0.00     0.070 C 
HETATM    2  C   UNL     1     -42.894  56.868 -58.046  1.00  0.00     0.037 C 
HETATM    3  N   UNL     1     -42.857  57.998 -58.855  1.00  0.00    -0.192 N 
HETATM    4  C   UNL     1     -42.358  59.181 -58.446  1.00  0.00     0.726 A 
HETATM    5  N   UNL     1     -41.988  59.339 -57.139  1.00  0.00    -0.083 N 
HETATM    6  N   UNL     1     -41.449  60.559 -56.925  1.00  0.00    -0.140 NA
HETATM    7  C   UNL     1     -41.561  61.100 -58.147  1.00  0.00     0.166 A 
HETATM    8  N   UNL     1     -42.112  60.282 -59.107  1.00  0.00    -0.046 NA
HETATM    9  C   UNL     1     -42.108  58.292 -56.118  1.00  0.00     0.202 C 
HETATM   10  C   UNL     1     -42.568  56.972 -56.733  1.00  0.00     0.062 C 
HETATM   11  H   UNL     1     -43.030  57.875 -59.850  1.00  0.00     0.184 HD
ENDROOT
BRANCH  10  12
HETATM   12  C   UNL     1     -42.508  55.822 -55.791  1.00  0.00     0.256 C 
HETATM   13  N   UNL     1     -41.224  55.475 -55.428  1.00  0.00    -0.323 N 
HETATM   14  H   UNL     1     -40.471  56.010 -55.839  1.00  0.00     0.169 HD
HETATM   15  O   UNL     1     -43.553  55.276 -55.463  1.00  0.00    -0.267 OA
BRANCH  13  16
HETATM   16  C   UNL     1     -40.838  54.468 -54.520  1.00  0.00     0.035 A 
HETATM   17  C   UNL     1     -40.301  53.236 -54.901  1.00  0.00     0.031 A 
HETATM   18  C   UNL     1     -39.958  52.280 -53.938  1.00  0.00     0.026 A 
HETATM   19  C   UNL     1     -40.158  52.552 -52.587  1.00  0.00     0.034 A 
HETATM   20 CL   UNL     1     -39.748  51.373 -51.405  1.00  0.00    -0.084 Cl
HETATM   21  C   UNL     1     -40.690  53.775 -52.191  1.00  0.00     0.026 A 
HETATM   22  C   UNL     1     -41.023  54.732 -53.156  1.00  0.00     0.031 A 
ENDBRANCH  13  16
ENDBRANCH  10  12
BRANCH   9  23
HETATM   23  C   UNL     1     -43.025  58.757 -54.987  1.00  0.00    -0.028 A 
HETATM   24  C   UNL     1     -44.383  59.055 -55.207  1.00  0.00     0.012 A 
HETATM   25  C   UNL     1     -45.194  59.479 -54.153  1.00  0.00     0.043 A 
HETATM   26  C   UNL     1     -44.656  59.600 -52.877  1.00  0.00     0.116 A 
HETATM   27  F   UNL     1     -45.436  60.010 -51.868  1.00  0.00    -0.206 F 
HETATM   28  C   UNL     1     -43.322  59.302 -52.632  1.00  0.00     0.043 A 
HETATM   29  C   UNL     1     -42.508  58.877 -53.683  1.00  0.00     0.012 A 
ENDBRANCH   9  23
BRANCH   7  30
HETATM   30  C   UNL     1     -41.132  62.491 -58.445  1.00  0.00     0.085 C 
BRANCH  30  31
HETATM   31  C   UNL     1     -39.917  62.563 -59.366  1.00  0.00     0.034 C 
BRANCH  31  32
HETATM   32  C   UNL     1     -40.271  62.991 -60.785  1.00  0.00     0.164 C 
BRANCH  32  33
HETATM   33  O   UNL     1     -40.941  61.927 -61.452  1.00  0.00    -0.401 OA
HETATM   34  H   UNL     1     -40.348  61.598 -62.149  1.00  0.00     0.209 HD
ENDBRANCH  32  33
ENDBRANCH  31  32
ENDBRANCH  30  31
ENDBRANCH   7  30
TORSDOF 7
ENDMDL
MODEL 2
REMARK VINA RESULT:      -7.5      5.237      8.089
REMARK  7 active torsions:
REMARK  status: ('A' for Active; 'I' for Inactive)
REMARK    1  A    between atoms: C_7  and  C_8 
REMARK    2  A    between atoms: C_8  and  C_9 
REMARK    3  A    between atoms: C_9  and  C_10 
REMARK    4  A    between atoms: C_10  and  O_11 
REMARK    5  A    between atoms: C_13  and  C_14 
REMARK    6  A    between atoms: C_21  and  C_22 
REMARK       I    between atoms: C_22  and  N_23 
REMARK    7  A    between atoms: N_23  and  C_24 
ROOT
HETATM    1  C   UNL     1     -45.584  57.654 -55.066  1.00  0.00     0.070 C 
HETATM    2  C   UNL     1     -44.344  57.052 -54.451  1.00  0.00     0.037 C 
HETATM    3  N   UNL     1     -43.619  56.204 -55.281  1.00  0.00    -0.192 N 
HETATM    4  C   UNL     1     -42.626  55.411 -54.836  1.00  0.00     0.726 A 
HETATM    5  N   UNL     1     -42.204  55.524 -53.540  1.00  0.00    -0.083 N 
HETATM    6  N   UNL     1     -41.252  54.609 -53.251  1.00  0.00    -0.140 NA
HETATM    7  C   UNL     1     -41.124  53.999 -54.438  1.00  0.00     0.166 A 
HETATM    8  N   UNL     1     -41.953  54.463 -55.434  1.00  0.00    -0.046 NA
HETATM    9  C   UNL     1     -42.759  56.480 -52.575  1.00  0.00     0.202 C 
HETATM   10  C   UNL     1     -43.953  57.228 -53.164  1.00  0.00     0.062 C 
HETATM   11  H   UNL     1     -43.981  56.031 -56.216  1.00  0.00     0.184 HD
ENDROOT
BRANCH  10  12
HETATM   12  C   UNL     1     -44.688  58.055 -52.170  1.00  0.00     0.256 C 
HETATM   13  N   UNL     1     -44.456  59.408 -52.302  1.00  0.00    -0.323 N 
HETATM   14  H   UNL     1     -43.814  59.695 -53.028  1.00  0.00     0.169 HD
HETATM   15  O   UNL     1     -45.375  57.492 -51.330  1.00  0.00    -0.267 OA
BRANCH  13  16
HETATM   16  C   UNL     1     -45.037  60.449 -51.549  1.00  0.00     0.035 A 
HETATM   17  C   UNL     1     -46.241  61.076 -51.882  1.00  0.00     0.031 A 
HETATM   18  C   UNL     1     -46.744  62.116 -51.091  1.00  0.00     0.026 A 
HETATM   19  C   UNL     1     -46.040  62.536 -49.966  1.00  0.00     0.034 A 
HETATM   20 CL   UNL     1     -46.653  63.822 -49.002  1.00  0.00    -0.084 Cl
HETATM   21  C   UNL     1     -44.841  61.921 -49.620  1.00  0.00     0.026 A 
HETATM   22  C   UNL     1     -44.346  60.876 -50.407  1.00  0.00     0.031 A 
ENDBRANCH  13  16
ENDBRANCH  10  12
BRANCH   9  23
HETATM   23  C   UNL     1     -41.668  57.427 -52.078  1.00  0.00    -0.028 A 
HETATM   24  C   UNL     1     -40.855  58.156 -52.966  1.00  0.00     0.012 A 
HETATM   25  C   UNL     1     -39.866  59.012 -52.480  1.00  0.00     0.043 A 
HETATM   26  C   UNL     1     -39.688  59.149 -51.109  1.00  0.00     0.116 A 
HETATM   27  F   UNL     1     -38.736  59.969 -50.645  1.00  0.00    -0.206 F 
HETATM   28  C   UNL     1     -40.483  58.449 -50.211  1.00  0.00     0.043 A 
HETATM   29  C   UNL     1     -41.474  57.592 -50.693  1.00  0.00     0.012 A 
ENDBRANCH   9  23
BRANCH   7  30
HETATM   30  C   UNL     1     -40.145  52.905 -54.669  1.00  0.00     0.085 C 
BRANCH  30  31
HETATM   31  C   UNL     1     -40.656  51.536 -54.225  1.00  0.00     0.034 C 
BRANCH  31  32
HETATM   32  C   UNL     1     -39.534  50.580 -53.840  1.00  0.00     0.164 C 
BRANCH  32  33
HETATM   33  O   UNL     1     -39.670  49.365 -54.570  1.00  0.00    -0.401 OA
HETATM   34  H   UNL     1     -38.783  49.103 -54.871  1.00  0.00     0.209 HD
ENDBRANCH  32  33
ENDBRANCH  31  32
ENDBRANCH  30  31
ENDBRANCH   7  30
TORSDOF 7
ENDMDL
MODEL 3
REMARK VINA RESULT:      -7.5      4.279      6.933
REMARK  7 active torsions:
REMARK  status: ('A' for Active; 'I' for Inactive)
REMARK    1  A    between atoms: C_7  and  C_8 
REMARK    2  A    between atoms: C_8  and  C_9 
REMARK    3  A    between atoms: C_9  and  C_10 
REMARK    4  A    between atoms: C_10  and  O_11 
REMARK    5  A    between atoms: C_13  and  C_14 
REMARK    6  A    between atoms: C_21  and  C_22 
REMARK       I    between atoms: C_22  and  N_23 
REMARK    7  A    between atoms: N_23  and  C_24 
ROOT
HETATM    1  C   UNL     1     -39.461  59.160 -51.005  1.00  0.00     0.070 C 
HETATM    2  C   UNL     1     -40.956  59.274 -51.172  1.00  0.00     0.037 C 
HETATM    3  N   UNL     1     -41.556  60.318 -50.477  1.00  0.00    -0.192 N 
HETATM    4  C   UNL     1     -42.890  60.433 -50.328  1.00  0.00     0.726 A 
HETATM    5  N   UNL     1     -43.718  59.571 -50.993  1.00  0.00    -0.083 N 
HETATM    6  N   UNL     1     -45.012  59.790 -50.674  1.00  0.00    -0.140 NA
HETATM    7  C   UNL     1     -44.892  60.827 -49.834  1.00  0.00     0.166 A 
HETATM    8  N   UNL     1     -43.603  61.248 -49.596  1.00  0.00    -0.046 NA
HETATM    9  C   UNL     1     -43.249  58.510 -51.892  1.00  0.00     0.202 C 
HETATM   10  C   UNL     1     -41.726  58.407 -51.877  1.00  0.00     0.062 C 
HETATM   11  H   UNL     1     -40.962  60.903 -49.894  1.00  0.00     0.184 HD
ENDROOT
BRANCH  10  12
HETATM   12  C   UNL     1     -41.201  57.219 -52.602  1.00  0.00     0.256 C 
HETATM   13  N   UNL     1     -41.467  56.025 -51.965  1.00  0.00    -0.323 N 
HETATM   14  H   UNL     1     -41.964  56.075 -51.086  1.00  0.00     0.169 HD
HETATM   15  O   UNL     1     -40.568  57.392 -53.634  1.00  0.00    -0.267 OA
BRANCH  13  16
HETATM   16  C   UNL     1     -41.147  54.729 -52.418  1.00  0.00     0.035 A 
HETATM   17  C   UNL     1     -40.379  53.815 -51.692  1.00  0.00     0.031 A 
HETATM   18  C   UNL     1     -40.091  52.550 -52.219  1.00  0.00     0.026 A 
HETATM   19  C   UNL     1     -40.566  52.198 -53.479  1.00  0.00     0.034 A 
HETATM   20 CL   UNL     1     -40.202  50.649 -54.131  1.00  0.00    -0.084 Cl
HETATM   21  C   UNL     1     -41.335  53.096 -54.214  1.00  0.00     0.026 A 
HETATM   22  C   UNL     1     -41.629  54.355 -53.680  1.00  0.00     0.031 A 
ENDBRANCH  13  16
ENDBRANCH  10  12
BRANCH   9  23
HETATM   23  C   UNL     1     -43.804  58.724 -53.300  1.00  0.00    -0.028 A 
HETATM   24  C   UNL     1     -43.483  59.865 -54.060  1.00  0.00     0.012 A 
HETATM   25  C   UNL     1     -44.007  60.030 -55.342  1.00  0.00     0.043 A 
HETATM   26  C   UNL     1     -44.846  59.058 -55.874  1.00  0.00     0.116 A 
HETATM   27  F   UNL     1     -45.350  59.222 -57.104  1.00  0.00    -0.206 F 
HETATM   28  C   UNL     1     -45.169  57.919 -55.149  1.00  0.00     0.043 A 
HETATM   29  C   UNL     1     -44.647  57.748 -53.866  1.00  0.00     0.012 A 
ENDBRANCH   9  23
BRANCH   7  30
HETATM   30  C   UNL     1     -46.068  61.489 -49.212  1.00  0.00     0.085 C 
BRANCH  30  31
HETATM   31  C   UNL     1     -45.796  61.994 -47.797  1.00  0.00     0.034 C 
BRANCH  31  32
HETATM   32  C   UNL     1     -45.691  60.869 -46.775  1.00  0.00     0.164 C 
BRANCH  32  33
HETATM   33  O   UNL     1     -44.324  60.656 -46.438  1.00  0.00    -0.401 OA
HETATM   34  H   UNL     1     -43.786  61.195 -47.044  1.00  0.00     0.209 HD
ENDBRANCH  32  33
ENDBRANCH  31  32
ENDBRANCH  30  31
ENDBRANCH   7  30
TORSDOF 7
ENDMDL
MODEL 4
REMARK VINA RESULT:      -7.4      4.215      6.169
REMARK  7 active torsions:
REMARK  status: ('A' for Active; 'I' for Inactive)
REMARK    1  A    between atoms: C_7  and  C_8 
REMARK    2  A    between atoms: C_8  and  C_9 
REMARK    3  A    between atoms: C_9  and  C_10 
REMARK    4  A    between atoms: C_10  and  O_11 
REMARK    5  A    between atoms: C_13  and  C_14 
REMARK    6  A    between atoms: C_21  and  C_22 
REMARK       I    between atoms: C_22  and  N_23 
REMARK    7  A    between atoms: N_23  and  C_24 
ROOT
HETATM    1  C   UNL     1     -41.162  56.554 -49.838  1.00  0.00     0.070 C 
HETATM    2  C   UNL     1     -42.099  57.173 -50.846  1.00  0.00     0.037 C 
HETATM    3  N   UNL     1     -42.403  58.513 -50.634  1.00  0.00    -0.192 N 
HETATM    4  C   UNL     1     -43.386  59.159 -51.291  1.00  0.00     0.726 A 
HETATM    5  N   UNL     1     -44.039  58.527 -52.313  1.00  0.00    -0.083 N 
HETATM    6  N   UNL     1     -45.033  59.295 -52.810  1.00  0.00    -0.140 NA
HETATM    7  C   UNL     1     -44.896  60.398 -52.059  1.00  0.00     0.166 A 
HETATM    8  N   UNL     1     -43.897  60.349 -51.115  1.00  0.00    -0.046 NA
HETATM    9  C   UNL     1     -43.733  57.165 -52.767  1.00  0.00     0.202 C 
HETATM   10  C   UNL     1     -42.693  56.504 -51.866  1.00  0.00     0.062 C 
HETATM   11  H   UNL     1     -42.003  58.966 -49.815  1.00  0.00     0.184 HD
ENDROOT
BRANCH  10  12
HETATM   12  C   UNL     1     -42.495  55.056 -52.146  1.00  0.00     0.256 C 
HETATM   13  N   UNL     1     -41.215  54.744 -52.549  1.00  0.00    -0.323 N 
HETATM   14  H   UNL     1     -40.559  55.510 -52.629  1.00  0.00     0.169 HD
HETATM   15  O   UNL     1     -43.452  54.301 -52.040  1.00  0.00    -0.267 OA
BRANCH  13  16
HETATM   16  C   UNL     1     -40.701  53.463 -52.839  1.00  0.00     0.035 A 
HETATM   17  C   UNL     1     -39.976  52.688 -51.931  1.00  0.00     0.031 A 
HETATM   18  C   UNL     1     -39.484  51.430 -52.302  1.00  0.00     0.026 A 
HETATM   19  C   UNL     1     -39.713  50.947 -53.587  1.00  0.00     0.034 A 
HETATM   20 CL   UNL     1     -39.099  49.407 -54.046  1.00  0.00    -0.084 Cl
HETATM   21  C   UNL     1     -40.436  51.706 -54.502  1.00  0.00     0.026 A 
HETATM   22  C   UNL     1     -40.934  52.957 -54.126  1.00  0.00     0.031 A 
ENDBRANCH  13  16
ENDBRANCH  10  12
BRANCH   9  23
HETATM   23  C   UNL     1     -43.306  57.179 -54.235  1.00  0.00    -0.028 A 
HETATM   24  C   UNL     1     -43.642  56.134 -55.116  1.00  0.00     0.012 A 
HETATM   25  C   UNL     1     -43.235  56.176 -56.450  1.00  0.00     0.043 A 
HETATM   26  C   UNL     1     -42.499  57.260 -56.911  1.00  0.00     0.116 A 
HETATM   27  F   UNL     1     -42.107  57.296 -58.191  1.00  0.00    -0.206 F 
HETATM   28  C   UNL     1     -42.164  58.309 -56.065  1.00  0.00     0.043 A 
HETATM   29  C   UNL     1     -42.569  58.272 -54.730  1.00  0.00     0.012 A 
ENDBRANCH   9  23
BRANCH   7  30
HETATM   30  C   UNL     1     -45.754  61.597 -52.242  1.00  0.00     0.085 C 
BRANCH  30  31
HETATM   31  C   UNL     1     -45.560  62.648 -51.152  1.00  0.00     0.034 C 
BRANCH  31  32
HETATM   32  C   UNL     1     -46.570  62.523 -50.018  1.00  0.00     0.164 C 
BRANCH  32  33
HETATM   33  O   UNL     1     -46.234  61.407 -49.200  1.00  0.00    -0.401 OA
HETATM   34  H   UNL     1     -47.063  60.952 -48.972  1.00  0.00     0.209 HD
ENDBRANCH  32  33
ENDBRANCH  31  32
ENDBRANCH  30  31
ENDBRANCH   7  30
TORSDOF 7
ENDMDL
MODEL 5
REMARK VINA RESULT:      -7.2      4.266      7.963
REMARK  7 active torsions:
REMARK  status: ('A' for Active; 'I' for Inactive)
REMARK    1  A    between atoms: C_7  and  C_8 
REMARK    2  A    between atoms: C_8  and  C_9 
REMARK    3  A    between atoms: C_9  and  C_10 
REMARK    4  A    between atoms: C_10  and  O_11 
REMARK    5  A    between atoms: C_13  and  C_14 
REMARK    6  A    between atoms: C_21  and  C_22 
REMARK       I    between atoms: C_22  and  N_23 
REMARK    7  A    between atoms: N_23  and  C_24 
ROOT
HETATM    1  C   UNL     1     -43.147  56.439 -57.448  1.00  0.00     0.070 C 
HETATM    2  C   UNL     1     -42.627  56.081 -56.077  1.00  0.00     0.037 C 
HETATM    3  N   UNL     1     -41.713  55.034 -56.040  1.00  0.00    -0.192 N 
HETATM    4  C   UNL     1     -41.322  54.437 -54.899  1.00  0.00     0.726 A 
HETATM    5  N   UNL     1     -41.727  54.952 -53.698  1.00  0.00    -0.083 N 
HETATM    6  N   UNL     1     -41.299  54.189 -52.668  1.00  0.00    -0.140 NA
HETATM    7  C   UNL     1     -40.607  53.246 -53.324  1.00  0.00     0.166 A 
HETATM    8  N   UNL     1     -40.602  53.365 -54.695  1.00  0.00    -0.046 NA
HETATM    9  C   UNL     1     -42.567  56.146 -53.556  1.00  0.00     0.202 C 
HETATM   10  C   UNL     1     -43.040  56.652 -54.917  1.00  0.00     0.062 C 
HETATM   11  H   UNL     1     -41.483  54.575 -56.919  1.00  0.00     0.184 HD
ENDROOT
BRANCH  10  12
HETATM   12  C   UNL     1     -44.062  57.730 -54.831  1.00  0.00     0.256 C 
HETATM   13  N   UNL     1     -43.554  58.989 -55.067  1.00  0.00    -0.323 N 
HETATM   14  H   UNL     1     -42.562  59.057 -55.253  1.00  0.00     0.169 HD
HETATM   15  O   UNL     1     -45.209  57.429 -54.531  1.00  0.00    -0.267 OA
BRANCH  13  16
HETATM   16  C   UNL     1     -44.270  60.203 -55.106  1.00  0.00     0.035 A 
HETATM   17  C   UNL     1     -44.778  60.774 -56.275  1.00  0.00     0.031 A 
HETATM   18  C   UNL     1     -45.466  61.993 -56.233  1.00  0.00     0.026 A 
HETATM   19  C   UNL     1     -45.641  62.649 -55.018  1.00  0.00     0.034 A 
HETATM   20 CL   UNL     1     -46.475  64.152 -54.967  1.00  0.00    -0.084 Cl
HETATM   21  C   UNL     1     -45.143  62.092 -53.843  1.00  0.00     0.026 A 
HETATM   22  C   UNL     1     -44.466  60.869 -53.888  1.00  0.00     0.031 A 
ENDBRANCH  13  16
ENDBRANCH  10  12
BRANCH   9  23
HETATM   23  C   UNL     1     -41.830  57.222 -52.760  1.00  0.00    -0.028 A 
HETATM   24  C   UNL     1     -40.718  57.905 -53.287  1.00  0.00     0.012 A 
HETATM   25  C   UNL     1     -40.066  58.882 -52.533  1.00  0.00     0.043 A 
HETATM   26  C   UNL     1     -40.524  59.186 -51.257  1.00  0.00     0.116 A 
HETATM   27  F   UNL     1     -39.894  60.122 -50.535  1.00  0.00    -0.206 F 
HETATM   28  C   UNL     1     -41.625  58.534 -50.719  1.00  0.00     0.043 A 
HETATM   29  C   UNL     1     -42.281  57.557 -51.469  1.00  0.00     0.012 A 
ENDBRANCH   9  23
BRANCH   7  30
HETATM   30  C   UNL     1     -39.885  52.155 -52.621  1.00  0.00     0.085 C 
BRANCH  30  31
HETATM   31  C   UNL     1     -39.187  51.185 -53.572  1.00  0.00     0.034 C 
BRANCH  31  32
HETATM   32  C   UNL     1     -39.830  49.804 -53.590  1.00  0.00     0.164 C 
BRANCH  32  33
HETATM   33  O   UNL     1     -39.938  49.344 -54.933  1.00  0.00    -0.401 OA
HETATM   34  H   UNL     1     -40.312  48.446 -54.906  1.00  0.00     0.209 HD
ENDBRANCH  32  33
ENDBRANCH  31  32
ENDBRANCH  30  31
ENDBRANCH   7  30
TORSDOF 7
ENDMDL
MODEL 6
REMARK VINA RESULT:      -7.0      4.133      6.906
REMARK  7 active torsions:
REMARK  status: ('A' for Active; 'I' for Inactive)
REMARK    1  A    between atoms: C_7  and  C_8 
REMARK    2  A    between atoms: C_8  and  C_9 
REMARK    3  A    between atoms: C_9  and  C_10 
REMARK    4  A    between atoms: C_10  and  O_11 
REMARK    5  A    between atoms: C_13  and  C_14 
REMARK    6  A    between atoms: C_21  and  C_22 
REMARK       I    between atoms: C_22  and  N_23 
REMARK    7  A    between atoms: N_23  and  C_24 
ROOT
HETATM    1  C   UNL     1     -45.172  59.988 -55.240  1.00  0.00     0.070 C 
HETATM    2  C   UNL     1     -44.014  59.335 -54.527  1.00  0.00     0.037 C 
HETATM    3  N   UNL     1     -43.869  59.679 -53.187  1.00  0.00    -0.192 N 
HETATM    4  C   UNL     1     -42.775  59.375 -52.463  1.00  0.00     0.726 A 
HETATM    5  N   UNL     1     -41.807  58.577 -53.009  1.00  0.00    -0.083 N 
HETATM    6  N   UNL     1     -40.758  58.434 -52.171  1.00  0.00    -0.140 NA
HETATM    7  C   UNL     1     -41.180  59.148 -51.117  1.00  0.00     0.166 A 
HETATM    8  N   UNL     1     -42.413  59.742 -51.262  1.00  0.00    -0.046 NA
HETATM    9  C   UNL     1     -41.880  58.003 -54.357  1.00  0.00     0.202 C 
HETATM   10  C   UNL     1     -43.102  58.520 -55.113  1.00  0.00     0.062 C 
HETATM   11  H   UNL     1     -44.523  60.354 -52.797  1.00  0.00     0.184 HD
ENDROOT
BRANCH  10  12
HETATM   12  C   UNL     1     -43.119  58.141 -56.551  1.00  0.00     0.256 C 
HETATM   13  N   UNL     1     -43.908  57.043 -56.821  1.00  0.00    -0.323 N 
HETATM   14  H   UNL     1     -44.371  56.606 -56.035  1.00  0.00     0.169 HD
HETATM   15  O   UNL     1     -42.430  58.779 -57.335  1.00  0.00    -0.267 OA
BRANCH  13  16
HETATM   16  C   UNL     1     -44.169  56.471 -58.083  1.00  0.00     0.035 A 
HETATM   17  C   UNL     1     -43.571  55.297 -58.547  1.00  0.00     0.031 A 
HETATM   18  C   UNL     1     -43.871  54.801 -59.822  1.00  0.00     0.026 A 
HETATM   19  C   UNL     1     -44.767  55.484 -60.639  1.00  0.00     0.034 A 
HETATM   20 CL   UNL     1     -45.125  54.881 -62.210  1.00  0.00    -0.084 Cl
HETATM   21  C   UNL     1     -45.373  56.653 -60.191  1.00  0.00     0.026 A 
HETATM   22  C   UNL     1     -45.079  57.141 -58.913  1.00  0.00     0.031 A 
ENDBRANCH  13  16
ENDBRANCH  10  12
BRANCH   9  23
HETATM   23  C   UNL     1     -41.845  56.476 -54.286  1.00  0.00    -0.028 A 
HETATM   24  C   UNL     1     -42.867  55.738 -53.658  1.00  0.00     0.012 A 
HETATM   25  C   UNL     1     -42.804  54.345 -53.608  1.00  0.00     0.043 A 
HETATM   26  C   UNL     1     -41.729  53.683 -54.189  1.00  0.00     0.116 A 
HETATM   27  F   UNL     1     -41.670  52.346 -54.136  1.00  0.00    -0.206 F 
HETATM   28  C   UNL     1     -40.713  54.388 -54.822  1.00  0.00     0.043 A 
HETATM   29  C   UNL     1     -40.772  55.781 -54.875  1.00  0.00     0.012 A 
ENDBRANCH   9  23
BRANCH   7  30
HETATM   30  C   UNL     1     -40.380  59.279 -49.872  1.00  0.00     0.085 C 
BRANCH  30  31
HETATM   31  C   UNL     1     -39.095  60.081 -50.063  1.00  0.00     0.034 C 
BRANCH  31  32
HETATM   32  C   UNL     1     -37.952  59.247 -50.627  1.00  0.00     0.164 C 
BRANCH  32  33
HETATM   33  O   UNL     1     -37.938  59.354 -52.047  1.00  0.00    -0.401 OA
HETATM   34  H   UNL     1     -38.723  59.865 -52.310  1.00  0.00     0.209 HD
ENDBRANCH  32  33
ENDBRANCH  31  32
ENDBRANCH  30  31
ENDBRANCH   7  30
TORSDOF 7
ENDMDL
MODEL 7
REMARK VINA RESULT:      -7.0      2.050      2.735
REMARK  7 active torsions:
REMARK  status: ('A' for Active; 'I' for Inactive)
REMARK    1  A    between atoms: C_7  and  C_8 
REMARK    2  A    between atoms: C_8  and  C_9 
REMARK    3  A    between atoms: C_9  and  C_10 
REMARK    4  A    between atoms: C_10  and  O_11 
REMARK    5  A    between atoms: C_13  and  C_14 
REMARK    6  A    between atoms: C_21  and  C_22 
REMARK       I    between atoms: C_22  and  N_23 
REMARK    7  A    between atoms: N_23  and  C_24 
ROOT
HETATM    1  C   UNL     1     -43.196  53.900 -55.854  1.00  0.00     0.070 C 
HETATM    2  C   UNL     1     -42.983  55.388 -55.979  1.00  0.00     0.037 C 
HETATM    3  N   UNL     1     -43.623  55.994 -57.054  1.00  0.00    -0.192 N 
HETATM    4  C   UNL     1     -43.367  57.256 -57.449  1.00  0.00     0.726 A 
HETATM    5  N   UNL     1     -42.541  58.042 -56.693  1.00  0.00    -0.083 N 
HETATM    6  N   UNL     1     -42.345  59.246 -57.272  1.00  0.00    -0.140 NA
HETATM    7  C   UNL     1     -43.116  59.129 -58.362  1.00  0.00     0.166 A 
HETATM    8  N   UNL     1     -43.757  57.920 -58.505  1.00  0.00    -0.046 NA
HETATM    9  C   UNL     1     -41.906  57.606 -55.444  1.00  0.00     0.202 C 
HETATM   10  C   UNL     1     -42.177  56.127 -55.175  1.00  0.00     0.062 C 
HETATM   11  H   UNL     1     -44.158  55.400 -57.684  1.00  0.00     0.184 HD
ENDROOT
BRANCH  10  12
HETATM   12  C   UNL     1     -41.391  55.573 -54.040  1.00  0.00     0.256 C 
HETATM   13  N   UNL     1     -42.091  55.535 -52.853  1.00  0.00    -0.323 N 
HETATM   14  H   UNL     1     -43.037  55.893 -52.866  1.00  0.00     0.169 HD
HETATM   15  O   UNL     1     -40.227  55.250 -54.234  1.00  0.00    -0.267 OA
BRANCH  13  16
HETATM   16  C   UNL     1     -41.644  55.025 -51.617  1.00  0.00     0.035 A 
HETATM   17  C   UNL     1     -41.282  53.692 -51.407  1.00  0.00     0.031 A 
HETATM   18  C   UNL     1     -40.864  53.259 -50.143  1.00  0.00     0.026 A 
HETATM   19  C   UNL     1     -40.813  54.159 -49.082  1.00  0.00     0.034 A 
HETATM   20 CL   UNL     1     -40.312  53.624 -47.526  1.00  0.00    -0.084 Cl
HETATM   21  C   UNL     1     -41.169  55.490 -49.275  1.00  0.00     0.026 A 
HETATM   22  C   UNL     1     -41.577  55.922 -50.542  1.00  0.00     0.031 A 
ENDBRANCH  13  16
ENDBRANCH  10  12
BRANCH   9  23
HETATM   23  C   UNL     1     -42.348  58.497 -54.284  1.00  0.00    -0.028 A 
HETATM   24  C   UNL     1     -43.705  58.652 -53.941  1.00  0.00     0.012 A 
HETATM   25  C   UNL     1     -44.075  59.475 -52.877  1.00  0.00     0.043 A 
HETATM   26  C   UNL     1     -43.097  60.140 -52.148  1.00  0.00     0.116 A 
HETATM   27  F   UNL     1     -43.456  60.932 -51.130  1.00  0.00    -0.206 F 
HETATM   28  C   UNL     1     -41.751  59.997 -52.460  1.00  0.00     0.043 A 
HETATM   29  C   UNL     1     -41.376  59.174 -53.523  1.00  0.00     0.012 A 
ENDBRANCH   9  23
BRANCH   7  30
HETATM   30  C   UNL     1     -43.281  60.232 -59.344  1.00  0.00     0.085 C 
BRANCH  30  31
HETATM   31  C   UNL     1     -42.808  61.585 -58.816  1.00  0.00     0.034 C 
BRANCH  31  32
HETATM   32  C   UNL     1     -41.334  61.849 -59.093  1.00  0.00     0.164 C 
BRANCH  32  33
HETATM   33  O   UNL     1     -40.578  61.638 -57.906  1.00  0.00    -0.401 OA
HETATM   34  H   UNL     1     -39.953  62.379 -57.821  1.00  0.00     0.209 HD
ENDBRANCH  32  33
ENDBRANCH  31  32
ENDBRANCH  30  31
ENDBRANCH   7  30
TORSDOF 7
ENDMDL
MODEL 8
REMARK VINA RESULT:      -6.9      3.980      5.887
REMARK  7 active torsions:
REMARK  status: ('A' for Active; 'I' for Inactive)
REMARK    1  A    between atoms: C_7  and  C_8 
REMARK    2  A    between atoms: C_8  and  C_9 
REMARK    3  A    between atoms: C_9  and  C_10 
REMARK    4  A    between atoms: C_10  and  O_11 
REMARK    5  A    between atoms: C_13  and  C_14 
REMARK    6  A    between atoms: C_21  and  C_22 
REMARK       I    between atoms: C_22  and  N_23 
REMARK    7  A    between atoms: N_23  and  C_24 
ROOT
HETATM    1  C   UNL     1     -40.636  57.845 -50.325  1.00  0.00     0.070 C 
HETATM    2  C   UNL     1     -41.764  58.476 -51.104  1.00  0.00     0.037 C 
HETATM    3  N   UNL     1     -41.990  59.823 -50.842  1.00  0.00    -0.192 N 
HETATM    4  C   UNL     1     -43.083  60.483 -51.269  1.00  0.00     0.726 A 
HETATM    5  N   UNL     1     -43.960  59.858 -52.113  1.00  0.00    -0.083 N 
HETATM    6  N   UNL     1     -45.026  60.642 -52.382  1.00  0.00    -0.140 NA
HETATM    7  C   UNL     1     -44.706  61.746 -51.692  1.00  0.00     0.166 A 
HETATM    8  N   UNL     1     -43.521  61.684 -50.995  1.00  0.00    -0.046 NA
HETATM    9  C   UNL     1     -43.787  58.488 -52.610  1.00  0.00     0.202 C 
HETATM   10  C   UNL     1     -42.583  57.812 -51.959  1.00  0.00     0.062 C 
HETATM   11  H   UNL     1     -41.409  60.272 -50.138  1.00  0.00     0.184 HD
ENDROOT
BRANCH  10  12
HETATM   12  C   UNL     1     -42.478  56.360 -52.262  1.00  0.00     0.256 C 
HETATM   13  N   UNL     1     -41.287  56.007 -52.859  1.00  0.00    -0.323 N 
HETATM   14  H   UNL     1     -40.627  56.752 -53.043  1.00  0.00     0.169 HD
HETATM   15  O   UNL     1     -43.430  55.636 -52.006  1.00  0.00    -0.267 OA
BRANCH  13  16
HETATM   16  C   UNL     1     -40.866  54.711 -53.222  1.00  0.00     0.035 A 
HETATM   17  C   UNL     1     -40.712  54.280 -54.542  1.00  0.00     0.031 A 
HETATM   18  C   UNL     1     -40.306  52.970 -54.820  1.00  0.00     0.026 A 
HETATM   19  C   UNL     1     -40.058  52.083 -53.776  1.00  0.00     0.034 A 
HETATM   20 CL   UNL     1     -39.571  50.469 -54.118  1.00  0.00    -0.084 Cl
HETATM   21  C   UNL     1     -40.205  52.497 -52.456  1.00  0.00     0.026 A 
HETATM   22  C   UNL     1     -40.601  53.810 -52.181  1.00  0.00     0.031 A 
ENDBRANCH  13  16
ENDBRANCH  10  12
BRANCH   9  23
HETATM   23  C   UNL     1     -43.699  58.485 -54.137  1.00  0.00    -0.028 A 
HETATM   24  C   UNL     1     -42.571  58.981 -54.817  1.00  0.00     0.012 A 
HETATM   25  C   UNL     1     -42.523  58.965 -56.212  1.00  0.00     0.043 A 
HETATM   26  C   UNL     1     -43.595  58.451 -56.931  1.00  0.00     0.116 A 
HETATM   27  F   UNL     1     -43.547  58.440 -58.270  1.00  0.00    -0.206 F 
HETATM   28  C   UNL     1     -44.715  57.946 -56.283  1.00  0.00     0.043 A 
HETATM   29  C   UNL     1     -44.767  57.959 -54.889  1.00  0.00     0.012 A 
ENDBRANCH   9  23
BRANCH   7  30
HETATM   30  C   UNL     1     -45.562  62.960 -51.689  1.00  0.00     0.085 C 
BRANCH  30  31
HETATM   31  C   UNL     1     -46.969  62.704 -51.153  1.00  0.00     0.034 C 
BRANCH  31  32
HETATM   32  C   UNL     1     -48.035  62.736 -52.241  1.00  0.00     0.164 C 
BRANCH  32  33
HETATM   33  O   UNL     1     -47.988  61.528 -52.993  1.00  0.00    -0.401 OA
HETATM   34  H   UNL     1     -47.132  61.504 -53.455  1.00  0.00     0.209 HD
ENDBRANCH  32  33
ENDBRANCH  31  32
ENDBRANCH  30  31
ENDBRANCH   7  30
TORSDOF 7
ENDMDL
MODEL 9
REMARK VINA RESULT:      -6.9      3.586      5.196
REMARK  7 active torsions:
REMARK  status: ('A' for Active; 'I' for Inactive)
REMARK    1  A    between atoms: C_7  and  C_8 
REMARK    2  A    between atoms: C_8  and  C_9 
REMARK    3  A    between atoms: C_9  and  C_10 
REMARK    4  A    between atoms: C_10  and  O_11 
REMARK    5  A    between atoms: C_13  and  C_14 
REMARK    6  A    between atoms: C_21  and  C_22 
REMARK       I    between atoms: C_22  and  N_23 
REMARK    7  A    between atoms: N_23  and  C_24 
ROOT
HETATM    1  C   UNL     1     -40.878  58.021 -50.276  1.00  0.00     0.070 C 
HETATM    2  C   UNL     1     -41.846  58.540 -51.310  1.00  0.00     0.037 C 
HETATM    3  N   UNL     1     -42.073  59.911 -51.280  1.00  0.00    -0.192 N 
HETATM    4  C   UNL     1     -43.064  60.509 -51.969  1.00  0.00     0.726 A 
HETATM    5  N   UNL     1     -43.810  59.774 -52.849  1.00  0.00    -0.083 N 
HETATM    6  N   UNL     1     -44.796  60.518 -53.397  1.00  0.00    -0.140 NA
HETATM    7  C   UNL     1     -44.560  61.707 -52.826  1.00  0.00     0.166 A 
HETATM    8  N   UNL     1     -43.506  61.739 -51.942  1.00  0.00    -0.046 NA
HETATM    9  C   UNL     1     -43.598  58.347 -53.114  1.00  0.00     0.202 C 
HETATM   10  C   UNL     1     -42.535  57.765 -52.186  1.00  0.00     0.062 C 
HETATM   11  H   UNL     1     -41.601  60.454 -50.561  1.00  0.00     0.184 HD
ENDROOT
BRANCH  10  12
HETATM   12  C   UNL     1     -42.424  56.283 -52.260  1.00  0.00     0.256 C 
HETATM   13  N   UNL     1     -41.283  55.849 -52.901  1.00  0.00    -0.323 N 
HETATM   14  H   UNL     1     -40.661  56.559 -53.262  1.00  0.00     0.169 HD
HETATM   15  O   UNL     1     -43.332  55.602 -51.804  1.00  0.00    -0.267 OA
BRANCH  13  16
HETATM   16  C   UNL     1     -40.867  54.515 -53.088  1.00  0.00     0.035 A 
HETATM   17  C   UNL     1     -40.459  53.670 -52.053  1.00  0.00     0.031 A 
HETATM   18  C   UNL     1     -40.044  52.361 -52.324  1.00  0.00     0.026 A 
HETATM   19  C   UNL     1     -40.030  51.894 -53.635  1.00  0.00     0.034 A 
HETATM   20 CL   UNL     1     -39.507  50.290 -53.969  1.00  0.00    -0.084 Cl
HETATM   21  C   UNL     1     -40.435  52.722 -54.677  1.00  0.00     0.026 A 
HETATM   22  C   UNL     1     -40.859  54.027 -54.403  1.00  0.00     0.031 A 
ENDBRANCH  13  16
ENDBRANCH  10  12
BRANCH   9  23
HETATM   23  C   UNL     1     -43.265  58.125 -54.590  1.00  0.00    -0.028 A 
HETATM   24  C   UNL     1     -43.871  57.102 -55.343  1.00  0.00     0.012 A 
HETATM   25  C   UNL     1     -43.544  56.925 -56.687  1.00  0.00     0.043 A 
HETATM   26  C   UNL     1     -42.618  57.770 -57.287  1.00  0.00     0.116 A 
HETATM   27  F   UNL     1     -42.304  57.595 -58.577  1.00  0.00    -0.206 F 
HETATM   28  C   UNL     1     -42.014  58.793 -56.569  1.00  0.00     0.043 A 
HETATM   29  C   UNL     1     -42.339  58.975 -55.224  1.00  0.00     0.012 A 
ENDBRANCH   9  23
BRANCH   7  30
HETATM   30  C   UNL     1     -45.370  62.914 -53.134  1.00  0.00     0.085 C 
BRANCH  30  31
HETATM   31  C   UNL     1     -44.599  64.220 -52.957  1.00  0.00     0.034 C 
BRANCH  31  32
HETATM   32  C   UNL     1     -43.700  64.544 -54.144  1.00  0.00     0.164 C 
BRANCH  32  33
HETATM   33  O   UNL     1     -42.369  64.125 -53.864  1.00  0.00    -0.401 OA
HETATM   34  H   UNL     1     -41.865  64.177 -54.695  1.00  0.00     0.209 HD
ENDBRANCH  32  33
ENDBRANCH  31  32
ENDBRANCH  30  31
ENDBRANCH   7  30
TORSDOF 7
ENDMDL
MODEL 10
REMARK VINA RESULT:      -6.8      2.681      3.504
REMARK  7 active torsions:
REMARK  status: ('A' for Active; 'I' for Inactive)
REMARK    1  A    between atoms: C_7  and  C_8 
REMARK    2  A    between atoms: C_8  and  C_9 
REMARK    3  A    between atoms: C_9  and  C_10 
REMARK    4  A    between atoms: C_10  and  O_11 
REMARK    5  A    between atoms: C_13  and  C_14 
REMARK    6  A    between atoms: C_21  and  C_22 
REMARK       I    between atoms: C_22  and  N_23 
REMARK    7  A    between atoms: N_23  and  C_24 
ROOT
HETATM    1  C   UNL     1     -43.180  53.644 -55.764  1.00  0.00     0.070 C 
HETATM    2  C   UNL     1     -43.026  55.092 -56.158  1.00  0.00     0.037 C 
HETATM    3  N   UNL     1     -43.666  55.460 -57.337  1.00  0.00    -0.192 N 
HETATM    4  C   UNL     1     -43.453  56.639 -57.954  1.00  0.00     0.726 A 
HETATM    5  N   UNL     1     -42.679  57.587 -57.343  1.00  0.00    -0.083 N 
HETATM    6  N   UNL     1     -42.520  58.672 -58.132  1.00  0.00    -0.140 NA
HETATM    7  C   UNL     1     -43.260  58.321 -59.194  1.00  0.00     0.166 A 
HETATM    8  N   UNL     1     -43.846  57.079 -59.120  1.00  0.00    -0.046 NA
HETATM    9  C   UNL     1     -42.056  57.416 -56.026  1.00  0.00     0.202 C 
HETATM   10  C   UNL     1     -42.271  56.002 -55.493  1.00  0.00     0.062 C 
HETATM   11  H   UNL     1     -44.160  54.737 -57.854  1.00  0.00     0.184 HD
ENDROOT
BRANCH  10  12
HETATM   12  C   UNL     1     -41.489  55.702 -54.263  1.00  0.00     0.256 C 
HETATM   13  N   UNL     1     -42.271  55.549 -53.139  1.00  0.00    -0.323 N 
HETATM   14  H   UNL     1     -43.269  55.668 -53.253  1.00  0.00     0.169 HD
HETATM   15  O   UNL     1     -40.269  55.660 -54.339  1.00  0.00    -0.267 OA
BRANCH  13  16
HETATM   16  C   UNL     1     -41.838  55.214 -51.839  1.00  0.00     0.035 A 
HETATM   17  C   UNL     1     -41.773  56.121 -50.779  1.00  0.00     0.031 A 
HETATM   18  C   UNL     1     -41.314  55.714 -49.520  1.00  0.00     0.026 A 
HETATM   19  C   UNL     1     -40.914  54.396 -49.320  1.00  0.00     0.034 A 
HETATM   20 CL   UNL     1     -40.339  53.899 -47.777  1.00  0.00    -0.084 Cl
HETATM   21  C   UNL     1     -40.974  53.479 -50.365  1.00  0.00     0.026 A 
HETATM   22  C   UNL     1     -41.442  53.887 -51.619  1.00  0.00     0.031 A 
ENDBRANCH  13  16
ENDBRANCH  10  12
BRANCH   9  23
HETATM   23  C   UNL     1     -42.562  58.485 -55.058  1.00  0.00    -0.028 A 
HETATM   24  C   UNL     1     -41.702  59.451 -54.501  1.00  0.00     0.012 A 
HETATM   25  C   UNL     1     -42.196  60.412 -53.619  1.00  0.00     0.043 A 
HETATM   26  C   UNL     1     -43.547  60.419 -53.293  1.00  0.00     0.116 A 
HETATM   27  F   UNL     1     -44.016  61.341 -52.443  1.00  0.00    -0.206 F 
HETATM   28  C   UNL     1     -44.417  59.483 -53.836  1.00  0.00     0.043 A 
HETATM   29  C   UNL     1     -43.929  58.520 -54.720  1.00  0.00     0.012 A 
ENDBRANCH   9  23
BRANCH   7  30
HETATM   30  C   UNL     1     -43.447  59.216 -60.364  1.00  0.00     0.085 C 
BRANCH  30  31
HETATM   31  C   UNL     1     -44.909  59.576 -60.620  1.00  0.00     0.034 C 
BRANCH  31  32
HETATM   32  C   UNL     1     -45.670  59.913 -59.345  1.00  0.00     0.164 C 
BRANCH  32  33
HETATM   33  O   UNL     1     -46.579  58.860 -59.038  1.00  0.00    -0.401 OA
HETATM   34  H   UNL     1     -46.052  58.062 -58.860  1.00  0.00     0.209 HD
ENDBRANCH  32  33
ENDBRANCH  31  32
ENDBRANCH  30  31
ENDBRANCH   7  30
TORSDOF 7
ENDMDL
