MODEL 1
REMARK VINA RESULT:      -8.4      0.000      0.000
REMARK  8 active torsions:
REMARK  status: ('A' for Active; 'I' for Inactive)
REMARK    1  A    between atoms: O_2  and  C_3 
REMARK    2  A    between atoms: C_6  and  C_7 
REMARK    3  A    between atoms: C_7  and  O_8 
REMARK    4  A    between atoms: C_7  and  C_9 
REMARK    5  A    between atoms: C_9  and  N_10 
REMARK    6  A    between atoms: C_11  and  N_12 
REMARK    7  A    between atoms: N_13  and  C_14 
REMARK    8  A    between atoms: C_14  and  C_15 
ROOT
HETATM    1  N   UNL     1     -43.050  57.413 -53.953  1.00  0.00    -0.178 N 
HETATM    2  C   UNL     1     -43.470  56.186 -53.662  1.00  0.00     0.681 A 
HETATM    3  N   UNL     1     -42.851  55.749 -52.573  1.00  0.00    -0.177 N 
HETATM    4  C   UNL     1     -42.055  56.770 -52.063  1.00  0.00     0.079 A 
HETATM    5  C   UNL     1     -42.187  57.844 -52.946  1.00  0.00     0.079 A 
HETATM    6  C   UNL     1     -41.246  56.833 -50.930  1.00  0.00     0.032 A 
HETATM    7  C   UNL     1     -40.563  58.040 -50.729  1.00  0.00     0.002 A 
HETATM    8  C   UNL     1     -40.693  59.121 -51.622  1.00  0.00     0.002 A 
HETATM    9  C   UNL     1     -41.513  59.047 -52.757  1.00  0.00     0.032 A 
ENDROOT
BRANCH   1  10
HETATM   10  C   UNL     1     -43.372  58.171 -55.170  1.00  0.00     0.184 C 
BRANCH  10  11
HETATM   11  C   UNL     1     -42.213  58.233 -56.194  1.00  0.00     0.170 C 
BRANCH  11  12
HETATM   12  C   UNL     1     -42.584  57.610 -57.524  1.00  0.00    -0.028 A 
HETATM   13  C   UNL     1     -43.135  56.323 -57.557  1.00  0.00     0.012 A 
HETATM   14  C   UNL     1     -43.559  55.765 -58.763  1.00  0.00     0.037 A 
HETATM   15  C   UNL     1     -43.436  56.475 -59.959  1.00  0.00     0.068 A 
HETATM   16  C   UNL     1     -42.869  57.748 -59.940  1.00  0.00     0.037 A 
HETATM   17  C   UNL     1     -42.445  58.314 -58.731  1.00  0.00     0.012 A 
BRANCH  15  18
HETATM   18  O   UNL     1     -43.913  55.818 -61.058  1.00  0.00    -0.356 OA
HETATM   19  C   UNL     1     -44.992  54.913 -60.857  1.00  0.00     0.210 C 
ENDBRANCH  15  18
ENDBRANCH  11  12
BRANCH  11  20
HETATM   20  O   UNL     1     -41.823  59.592 -56.387  1.00  0.00    -0.389 OA
HETATM   21  H   UNL     1     -41.484  59.919 -55.532  1.00  0.00     0.210 HD
ENDBRANCH  11  20
ENDBRANCH  10  11
ENDBRANCH   1  10
BRANCH   2  22
HETATM   22  N   UNL     1     -44.382  55.497 -54.346  1.00  0.00    -0.234 N 
HETATM   23  H   UNL     1     -44.644  55.756 -55.283  1.00  0.00     0.174 HD
HETATM   24  H   UNL     1     -44.863  54.716 -53.925  1.00  0.00     0.174 HD
ENDBRANCH   2  22
BRANCH   3  25
HETATM   25  C   UNL     1     -42.918  54.393 -52.042  1.00  0.00     0.186 C 
BRANCH  25  26
HETATM   26  C   UNL     1     -41.766  53.536 -52.509  1.00  0.00    -0.039 A 
HETATM   27  C   UNL     1     -41.572  53.147 -53.844  1.00  0.00     0.009 A 
HETATM   28  C   UNL     1     -40.499  52.327 -54.202  1.00  0.00     0.001 A 
HETATM   29  C   UNL     1     -39.603  51.884 -53.233  1.00  0.00     0.000 A 
HETATM   30  C   UNL     1     -39.776  52.261 -51.905  1.00  0.00     0.001 A 
HETATM   31  C   UNL     1     -40.848  53.082 -51.545  1.00  0.00     0.009 A 
ENDBRANCH  25  26
ENDBRANCH   3  25
TORSDOF 8
ENDMDL
MODEL 2
REMARK VINA RESULT:      -7.6     15.714     19.216
REMARK  8 active torsions:
REMARK  status: ('A' for Active; 'I' for Inactive)
REMARK    1  A    between atoms: O_2  and  C_3 
REMARK    2  A    between atoms: C_6  and  C_7 
REMARK    3  A    between atoms: C_7  and  O_8 
REMARK    4  A    between atoms: C_7  and  C_9 
REMARK    5  A    between atoms: C_9  and  N_10 
REMARK    6  A    between atoms: C_11  and  N_12 
REMARK    7  A    between atoms: N_13  and  C_14 
REMARK    8  A    between atoms: C_14  and  C_15 
ROOT
HETATM    1  N   UNL     1     -35.096  41.282 -53.024  1.00  0.00    -0.178 N 
HETATM    2  C   UNL     1     -36.146  41.772 -53.675  1.00  0.00     0.681 A 
HETATM    3  N   UNL     1     -35.895  41.791 -54.977  1.00  0.00    -0.177 N 
HETATM    4  C   UNL     1     -34.657  41.199 -55.210  1.00  0.00     0.079 A 
HETATM    5  C   UNL     1     -34.145  40.864 -53.954  1.00  0.00     0.079 A 
HETATM    6  C   UNL     1     -33.963  40.942 -56.390  1.00  0.00     0.032 A 
HETATM    7  C   UNL     1     -32.710  40.330 -56.245  1.00  0.00     0.002 A 
HETATM    8  C   UNL     1     -32.191  39.997 -54.979  1.00  0.00     0.002 A 
HETATM    9  C   UNL     1     -32.901  40.258 -53.798  1.00  0.00     0.032 A 
ENDROOT
BRANCH   1  10
HETATM   10  C   UNL     1     -34.919  41.253 -51.565  1.00  0.00     0.184 C 
BRANCH  10  11
HETATM   11  C   UNL     1     -35.180  39.865 -50.931  1.00  0.00     0.170 C 
BRANCH  11  12
HETATM   12  C   UNL     1     -34.067  39.440 -49.996  1.00  0.00    -0.028 A 
HETATM   13  C   UNL     1     -32.837  40.108 -50.034  1.00  0.00     0.012 A 
HETATM   14  C   UNL     1     -31.828  39.786 -49.126  1.00  0.00     0.037 A 
HETATM   15  C   UNL     1     -32.022  38.789 -48.170  1.00  0.00     0.068 A 
HETATM   16  C   UNL     1     -33.235  38.102 -48.136  1.00  0.00     0.037 A 
HETATM   17  C   UNL     1     -34.252  38.425 -49.044  1.00  0.00     0.012 A 
BRANCH  15  18
HETATM   18  O   UNL     1     -30.960  38.595 -47.332  1.00  0.00    -0.356 OA
HETATM   19  C   UNL     1     -30.388  39.750 -46.730  1.00  0.00     0.210 C 
ENDBRANCH  15  18
ENDBRANCH  11  12
BRANCH  11  20
HETATM   20  O   UNL     1     -36.421  39.893 -50.226  1.00  0.00    -0.389 OA
HETATM   21  H   UNL     1     -36.345  39.266 -49.482  1.00  0.00     0.210 HD
ENDBRANCH  11  20
ENDBRANCH  10  11
ENDBRANCH   1  10
BRANCH   2  22
HETATM   22  N   UNL     1     -37.287  42.172 -53.115  1.00  0.00    -0.234 N 
HETATM   23  H   UNL     1     -37.661  43.092 -53.282  1.00  0.00     0.174 HD
HETATM   24  H   UNL     1     -37.787  41.573 -52.476  1.00  0.00     0.174 HD
ENDBRANCH   2  22
BRANCH   3  25
HETATM   25  C   UNL     1     -36.731  42.413 -55.996  1.00  0.00     0.186 C 
BRANCH  25  26
HETATM   26  C   UNL     1     -37.186  41.428 -57.046  1.00  0.00    -0.039 A 
HETATM   27  C   UNL     1     -37.724  40.165 -56.752  1.00  0.00     0.009 A 
HETATM   28  C   UNL     1     -38.099  39.291 -57.775  1.00  0.00     0.001 A 
HETATM   29  C   UNL     1     -37.945  39.664 -59.106  1.00  0.00     0.000 A 
HETATM   30  C   UNL     1     -37.418  40.914 -59.419  1.00  0.00     0.001 A 
HETATM   31  C   UNL     1     -37.042  41.789 -58.398  1.00  0.00     0.009 A 
ENDBRANCH  25  26
ENDBRANCH   3  25
TORSDOF 8
ENDMDL
MODEL 3
REMARK VINA RESULT:      -7.6      2.702      7.204
REMARK  8 active torsions:
REMARK  status: ('A' for Active; 'I' for Inactive)
REMARK    1  A    between atoms: O_2  and  C_3 
REMARK    2  A    between atoms: C_6  and  C_7 
REMARK    3  A    between atoms: C_7  and  O_8 
REMARK    4  A    between atoms: C_7  and  C_9 
REMARK    5  A    between atoms: C_9  and  N_10 
REMARK    6  A    between atoms: C_11  and  N_12 
REMARK    7  A    between atoms: N_13  and  C_14 
REMARK    8  A    between atoms: C_14  and  C_15 
ROOT
HETATM    1  N   UNL     1     -43.142  56.352 -54.761  1.00  0.00    -0.178 N 
HETATM    2  C   UNL     1     -42.650  56.301 -55.995  1.00  0.00     0.681 A 
HETATM    3  N   UNL     1     -43.111  57.325 -56.702  1.00  0.00    -0.177 N 
HETATM    4  C   UNL     1     -43.869  58.145 -55.871  1.00  0.00     0.079 A 
HETATM    5  C   UNL     1     -43.884  57.524 -54.620  1.00  0.00     0.079 A 
HETATM    6  C   UNL     1     -44.529  59.348 -56.113  1.00  0.00     0.032 A 
HETATM    7  C   UNL     1     -45.219  59.900 -55.026  1.00  0.00     0.002 A 
HETATM    8  C   UNL     1     -45.239  59.272 -53.766  1.00  0.00     0.002 A 
HETATM    9  C   UNL     1     -44.567  58.062 -53.533  1.00  0.00     0.032 A 
ENDROOT
BRANCH   1  10
HETATM   10  C   UNL     1     -43.002  55.313 -53.731  1.00  0.00     0.184 C 
BRANCH  10  11
HETATM   11  C   UNL     1     -41.724  55.455 -52.869  1.00  0.00     0.170 C 
BRANCH  11  12
HETATM   12  C   UNL     1     -40.992  54.140 -52.702  1.00  0.00    -0.028 A 
HETATM   13  C   UNL     1     -40.526  53.761 -51.437  1.00  0.00     0.012 A 
HETATM   14  C   UNL     1     -39.921  52.517 -51.248  1.00  0.00     0.037 A 
HETATM   15  C   UNL     1     -39.764  51.633 -52.315  1.00  0.00     0.068 A 
HETATM   16  C   UNL     1     -40.206  52.008 -53.584  1.00  0.00     0.037 A 
HETATM   17  C   UNL     1     -40.815  53.254 -53.777  1.00  0.00     0.012 A 
BRANCH  15  18
HETATM   18  O   UNL     1     -39.179  50.444 -51.982  1.00  0.00    -0.356 OA
HETATM   19  C   UNL     1     -39.637  49.803 -50.797  1.00  0.00     0.210 C 
ENDBRANCH  15  18
ENDBRANCH  11  12
BRANCH  11  20
HETATM   20  O   UNL     1     -40.857  56.421 -53.463  1.00  0.00    -0.389 OA
HETATM   21  H   UNL     1     -41.080  56.462 -54.412  1.00  0.00     0.210 HD
ENDBRANCH  11  20
ENDBRANCH  10  11
ENDBRANCH   1  10
BRANCH   2  22
HETATM   22  N   UNL     1     -41.811  55.376 -56.456  1.00  0.00    -0.234 N 
HETATM   23  H   UNL     1     -41.939  54.398 -56.250  1.00  0.00     0.174 HD
HETATM   24  H   UNL     1     -40.999  55.636 -56.996  1.00  0.00     0.174 HD
ENDBRANCH   2  22
BRANCH   3  25
HETATM   25  C   UNL     1     -42.935  57.517 -58.135  1.00  0.00     0.186 C 
BRANCH  25  26
HETATM   26  C   UNL     1     -44.000  56.819 -58.945  1.00  0.00    -0.039 A 
HETATM   27  C   UNL     1     -45.308  57.304 -59.100  1.00  0.00     0.009 A 
HETATM   28  C   UNL     1     -46.254  56.591 -59.841  1.00  0.00     0.001 A 
HETATM   29  C   UNL     1     -45.908  55.383 -60.439  1.00  0.00     0.000 A 
HETATM   30  C   UNL     1     -44.616  54.887 -60.301  1.00  0.00     0.001 A 
HETATM   31  C   UNL     1     -43.668  55.598 -59.561  1.00  0.00     0.009 A 
ENDBRANCH  25  26
ENDBRANCH   3  25
TORSDOF 8
ENDMDL
MODEL 4
REMARK VINA RESULT:      -7.6      1.644      4.310
REMARK  8 active torsions:
REMARK  status: ('A' for Active; 'I' for Inactive)
REMARK    1  A    between atoms: O_2  and  C_3 
REMARK    2  A    between atoms: C_6  and  C_7 
REMARK    3  A    between atoms: C_7  and  O_8 
REMARK    4  A    between atoms: C_7  and  C_9 
REMARK    5  A    between atoms: C_9  and  N_10 
REMARK    6  A    between atoms: C_11  and  N_12 
REMARK    7  A    between atoms: N_13  and  C_14 
REMARK    8  A    between atoms: C_14  and  C_15 
ROOT
HETATM    1  N   UNL     1     -42.850  54.571 -54.566  1.00  0.00    -0.178 N 
HETATM    2  C   UNL     1     -43.379  55.458 -53.729  1.00  0.00     0.681 A 
HETATM    3  N   UNL     1     -42.877  55.280 -52.514  1.00  0.00    -0.177 N 
HETATM    4  C   UNL     1     -41.898  54.292 -52.568  1.00  0.00     0.079 A 
HETATM    5  C   UNL     1     -41.875  53.840 -53.890  1.00  0.00     0.079 A 
HETATM    6  C   UNL     1     -41.058  53.770 -51.587  1.00  0.00     0.032 A 
HETATM    7  C   UNL     1     -40.187  52.754 -52.002  1.00  0.00     0.002 A 
HETATM    8  C   UNL     1     -40.166  52.294 -53.333  1.00  0.00     0.002 A 
HETATM    9  C   UNL     1     -41.015  52.831 -54.312  1.00  0.00     0.032 A 
ENDROOT
BRANCH   1  10
HETATM   10  C   UNL     1     -43.269  54.337 -55.955  1.00  0.00     0.184 C 
BRANCH  10  11
HETATM   11  C   UNL     1     -42.549  55.239 -56.987  1.00  0.00     0.170 C 
BRANCH  11  12
HETATM   12  C   UNL     1     -43.514  55.882 -57.962  1.00  0.00    -0.028 A 
HETATM   13  C   UNL     1     -43.913  55.179 -59.107  1.00  0.00     0.012 A 
HETATM   14  C   UNL     1     -44.862  55.720 -59.974  1.00  0.00     0.037 A 
HETATM   15  C   UNL     1     -45.426  56.972 -59.723  1.00  0.00     0.068 A 
HETATM   16  C   UNL     1     -45.020  57.689 -58.598  1.00  0.00     0.037 A 
HETATM   17  C   UNL     1     -44.069  57.149 -57.723  1.00  0.00     0.012 A 
BRANCH  15  18
HETATM   18  O   UNL     1     -46.358  57.367 -60.640  1.00  0.00    -0.356 OA
HETATM   19  C   UNL     1     -47.383  56.436 -60.968  1.00  0.00     0.210 C 
ENDBRANCH  15  18
ENDBRANCH  11  12
BRANCH  11  20
HETATM   20  O   UNL     1     -41.811  56.249 -56.299  1.00  0.00    -0.389 OA
HETATM   21  H   UNL     1     -42.364  56.553 -55.554  1.00  0.00     0.210 HD
ENDBRANCH  11  20
ENDBRANCH  10  11
ENDBRANCH   1  10
BRANCH   2  22
HETATM   22  N   UNL     1     -44.269  56.394 -54.054  1.00  0.00    -0.234 N 
HETATM   23  H   UNL     1     -45.237  56.317 -53.785  1.00  0.00     0.174 HD
HETATM   24  H   UNL     1     -44.002  57.190 -54.613  1.00  0.00     0.174 HD
ENDBRANCH   2  22
BRANCH   3  25
HETATM   25  C   UNL     1     -43.334  55.942 -51.299  1.00  0.00     0.186 C 
BRANCH  25  26
HETATM   26  C   UNL     1     -42.639  57.262 -51.067  1.00  0.00    -0.039 A 
HETATM   27  C   UNL     1     -41.318  57.379 -50.608  1.00  0.00     0.009 A 
HETATM   28  C   UNL     1     -40.745  58.634 -50.387  1.00  0.00     0.001 A 
HETATM   29  C   UNL     1     -41.483  59.791 -50.622  1.00  0.00     0.000 A 
HETATM   30  C   UNL     1     -42.793  59.696 -51.080  1.00  0.00     0.001 A 
HETATM   31  C   UNL     1     -43.367  58.442 -51.302  1.00  0.00     0.009 A 
ENDBRANCH  25  26
ENDBRANCH   3  25
TORSDOF 8
ENDMDL
MODEL 5
REMARK VINA RESULT:      -7.3      2.951      6.255
REMARK  8 active torsions:
REMARK  status: ('A' for Active; 'I' for Inactive)
REMARK    1  A    between atoms: O_2  and  C_3 
REMARK    2  A    between atoms: C_6  and  C_7 
REMARK    3  A    between atoms: C_7  and  O_8 
REMARK    4  A    between atoms: C_7  and  C_9 
REMARK    5  A    between atoms: C_9  and  N_10 
REMARK    6  A    between atoms: C_11  and  N_12 
REMARK    7  A    between atoms: N_13  and  C_14 
REMARK    8  A    between atoms: C_14  and  C_15 
ROOT
HETATM    1  N   UNL     1     -41.879  57.888 -53.559  1.00  0.00    -0.178 N 
HETATM    2  C   UNL     1     -41.970  56.813 -52.782  1.00  0.00     0.681 A 
HETATM    3  N   UNL     1     -42.411  55.784 -53.493  1.00  0.00    -0.177 N 
HETATM    4  C   UNL     1     -42.528  56.169 -54.825  1.00  0.00     0.079 A 
HETATM    5  C   UNL     1     -42.180  57.522 -54.870  1.00  0.00     0.079 A 
HETATM    6  C   UNL     1     -42.907  55.460 -55.962  1.00  0.00     0.032 A 
HETATM    7  C   UNL     1     -42.925  56.185 -57.161  1.00  0.00     0.002 A 
HETATM    8  C   UNL     1     -42.579  57.550 -57.206  1.00  0.00     0.002 A 
HETATM    9  C   UNL     1     -42.196  58.252 -56.055  1.00  0.00     0.032 A 
ENDROOT
BRANCH   1  10
HETATM   10  C   UNL     1     -41.590  59.257 -53.110  1.00  0.00     0.184 C 
BRANCH  10  11
HETATM   11  C   UNL     1     -42.768  60.243 -53.307  1.00  0.00     0.170 C 
BRANCH  11  12
HETATM   12  C   UNL     1     -43.622  60.376 -52.064  1.00  0.00    -0.028 A 
HETATM   13  C   UNL     1     -44.736  59.544 -51.896  1.00  0.00     0.012 A 
HETATM   14  C   UNL     1     -45.488  59.595 -50.722  1.00  0.00     0.037 A 
HETATM   15  C   UNL     1     -45.149  60.480 -49.698  1.00  0.00     0.068 A 
HETATM   16  C   UNL     1     -44.054  61.328 -49.863  1.00  0.00     0.037 A 
HETATM   17  C   UNL     1     -43.295  61.278 -51.038  1.00  0.00     0.012 A 
BRANCH  15  18
HETATM   18  O   UNL     1     -45.955  60.407 -48.597  1.00  0.00    -0.356 OA
HETATM   19  C   UNL     1     -45.424  60.887 -47.368  1.00  0.00     0.210 C 
ENDBRANCH  15  18
ENDBRANCH  11  12
BRANCH  11  20
HETATM   20  O   UNL     1     -42.256  61.521 -53.684  1.00  0.00    -0.389 OA
HETATM   21  H   UNL     1     -42.969  62.171 -53.537  1.00  0.00     0.210 HD
ENDBRANCH  11  20
ENDBRANCH  10  11
ENDBRANCH   1  10
BRANCH   2  22
HETATM   22  N   UNL     1     -41.655  56.764 -51.488  1.00  0.00    -0.234 N 
HETATM   23  H   UNL     1     -42.157  57.304 -50.803  1.00  0.00     0.174 HD
HETATM   24  H   UNL     1     -40.875  56.209 -51.166  1.00  0.00     0.174 HD
ENDBRANCH   2  22
BRANCH   3  25
HETATM   25  C   UNL     1     -42.799  54.485 -52.959  1.00  0.00     0.186 C 
BRANCH  25  26
HETATM   26  C   UNL     1     -41.658  53.497 -52.963  1.00  0.00    -0.039 A 
HETATM   27  C   UNL     1     -40.839  53.244 -51.851  1.00  0.00     0.009 A 
HETATM   28  C   UNL     1     -39.780  52.336 -51.933  1.00  0.00     0.001 A 
HETATM   29  C   UNL     1     -39.524  51.665 -53.125  1.00  0.00     0.000 A 
HETATM   30  C   UNL     1     -40.327  51.898 -54.237  1.00  0.00     0.001 A 
HETATM   31  C   UNL     1     -41.386  52.806 -54.157  1.00  0.00     0.009 A 
ENDBRANCH  25  26
ENDBRANCH   3  25
TORSDOF 8
ENDMDL
MODEL 6
REMARK VINA RESULT:      -7.2      3.047      7.568
REMARK  8 active torsions:
REMARK  status: ('A' for Active; 'I' for Inactive)
REMARK    1  A    between atoms: O_2  and  C_3 
REMARK    2  A    between atoms: C_6  and  C_7 
REMARK    3  A    between atoms: C_7  and  O_8 
REMARK    4  A    between atoms: C_7  and  C_9 
REMARK    5  A    between atoms: C_9  and  N_10 
REMARK    6  A    between atoms: C_11  and  N_12 
REMARK    7  A    between atoms: N_13  and  C_14 
REMARK    8  A    between atoms: C_14  and  C_15 
ROOT
HETATM    1  N   UNL     1     -43.043  55.874 -55.382  1.00  0.00    -0.178 N 
HETATM    2  C   UNL     1     -43.095  56.352 -56.621  1.00  0.00     0.681 A 
HETATM    3  N   UNL     1     -43.798  57.477 -56.637  1.00  0.00    -0.177 N 
HETATM    4  C   UNL     1     -44.148  57.812 -55.332  1.00  0.00     0.079 A 
HETATM    5  C   UNL     1     -43.656  56.785 -54.523  1.00  0.00     0.079 A 
HETATM    6  C   UNL     1     -44.842  58.902 -54.813  1.00  0.00     0.032 A 
HETATM    7  C   UNL     1     -45.027  58.908 -53.424  1.00  0.00     0.002 A 
HETATM    8  C   UNL     1     -44.537  57.870 -52.608  1.00  0.00     0.002 A 
HETATM    9  C   UNL     1     -43.836  56.779 -53.142  1.00  0.00     0.032 A 
ENDROOT
BRANCH   1  10
HETATM   10  C   UNL     1     -42.502  54.568 -54.981  1.00  0.00     0.184 C 
BRANCH  10  11
HETATM   11  C   UNL     1     -40.975  54.574 -54.726  1.00  0.00     0.170 C 
BRANCH  11  12
HETATM   12  C   UNL     1     -40.565  53.581 -53.658  1.00  0.00    -0.028 A 
HETATM   13  C   UNL     1     -40.823  53.865 -52.311  1.00  0.00     0.012 A 
HETATM   14  C   UNL     1     -40.527  52.928 -51.321  1.00  0.00     0.037 A 
HETATM   15  C   UNL     1     -39.963  51.695 -51.652  1.00  0.00     0.068 A 
HETATM   16  C   UNL     1     -39.683  51.410 -52.988  1.00  0.00     0.037 A 
HETATM   17  C   UNL     1     -39.982  52.346 -53.986  1.00  0.00     0.012 A 
BRANCH  15  18
HETATM   18  O   UNL     1     -39.749  50.867 -50.587  1.00  0.00    -0.356 OA
HETATM   19  C   UNL     1     -39.740  49.468 -50.843  1.00  0.00     0.210 C 
ENDBRANCH  15  18
ENDBRANCH  11  12
BRANCH  11  20
HETATM   20  O   UNL     1     -40.291  54.286 -55.945  1.00  0.00    -0.389 OA
HETATM   21  H   UNL     1     -39.978  53.364 -55.889  1.00  0.00     0.210 HD
ENDBRANCH  11  20
ENDBRANCH  10  11
ENDBRANCH   1  10
BRANCH   2  22
HETATM   22  N   UNL     1     -42.521  55.800 -57.689  1.00  0.00    -0.234 N 
HETATM   23  H   UNL     1     -42.382  56.319 -58.540  1.00  0.00     0.174 HD
HETATM   24  H   UNL     1     -42.244  54.829 -57.683  1.00  0.00     0.174 HD
ENDBRANCH   2  22
BRANCH   3  25
HETATM   25  C   UNL     1     -44.218  58.202 -57.830  1.00  0.00     0.186 C 
BRANCH  25  26
HETATM   26  C   UNL     1     -43.444  59.483 -58.027  1.00  0.00    -0.039 A 
HETATM   27  C   UNL     1     -42.043  59.560 -58.016  1.00  0.00     0.009 A 
HETATM   28  C   UNL     1     -41.391  60.785 -58.176  1.00  0.00     0.001 A 
HETATM   29  C   UNL     1     -42.129  61.952 -58.350  1.00  0.00     0.000 A 
HETATM   30  C   UNL     1     -43.519  61.897 -58.368  1.00  0.00     0.001 A 
HETATM   31  C   UNL     1     -44.172  60.673 -58.209  1.00  0.00     0.009 A 
ENDBRANCH  25  26
ENDBRANCH   3  25
TORSDOF 8
ENDMDL
MODEL 7
REMARK VINA RESULT:      -7.1      2.405      4.208
REMARK  8 active torsions:
REMARK  status: ('A' for Active; 'I' for Inactive)
REMARK    1  A    between atoms: O_2  and  C_3 
REMARK    2  A    between atoms: C_6  and  C_7 
REMARK    3  A    between atoms: C_7  and  O_8 
REMARK    4  A    between atoms: C_7  and  C_9 
REMARK    5  A    between atoms: C_9  and  N_10 
REMARK    6  A    between atoms: C_11  and  N_12 
REMARK    7  A    between atoms: N_13  and  C_14 
REMARK    8  A    between atoms: C_14  and  C_15 
ROOT
HETATM    1  N   UNL     1     -43.209  56.763 -54.071  1.00  0.00    -0.178 N 
HETATM    2  C   UNL     1     -43.682  56.000 -53.090  1.00  0.00     0.681 A 
HETATM    3  N   UNL     1     -43.206  56.422 -51.927  1.00  0.00    -0.177 N 
HETATM    4  C   UNL     1     -42.457  57.576 -52.134  1.00  0.00     0.079 A 
HETATM    5  C   UNL     1     -42.464  57.801 -53.513  1.00  0.00     0.079 A 
HETATM    6  C   UNL     1     -41.789  58.416 -51.246  1.00  0.00     0.032 A 
HETATM    7  C   UNL     1     -41.113  59.502 -51.819  1.00  0.00     0.002 A 
HETATM    8  C   UNL     1     -41.115  59.726 -53.209  1.00  0.00     0.002 A 
HETATM    9  C   UNL     1     -41.795  58.875 -54.092  1.00  0.00     0.032 A 
ENDROOT
BRANCH   1  10
HETATM   10  C   UNL     1     -43.369  56.518 -55.511  1.00  0.00     0.184 C 
BRANCH  10  11
HETATM   11  C   UNL     1     -42.101  55.952 -56.195  1.00  0.00     0.170 C 
BRANCH  11  12
HETATM   12  C   UNL     1     -41.529  54.762 -55.454  1.00  0.00    -0.028 A 
HETATM   13  C   UNL     1     -42.298  53.600 -55.310  1.00  0.00     0.012 A 
HETATM   14  C   UNL     1     -41.759  52.465 -54.703  1.00  0.00     0.037 A 
HETATM   15  C   UNL     1     -40.450  52.469 -54.222  1.00  0.00     0.068 A 
HETATM   16  C   UNL     1     -39.682  53.627 -54.341  1.00  0.00     0.037 A 
HETATM   17  C   UNL     1     -40.218  54.767 -54.953  1.00  0.00     0.012 A 
BRANCH  15  18
HETATM   18  O   UNL     1     -40.046  51.284 -53.673  1.00  0.00    -0.356 OA
HETATM   19  C   UNL     1     -40.282  50.103 -54.430  1.00  0.00     0.210 C 
ENDBRANCH  15  18
ENDBRANCH  11  12
BRANCH  11  20
HETATM   20  O   UNL     1     -42.414  55.583 -57.538  1.00  0.00    -0.389 OA
HETATM   21  H   UNL     1     -42.256  56.368 -58.097  1.00  0.00     0.210 HD
ENDBRANCH  11  20
ENDBRANCH  10  11
ENDBRANCH   1  10
BRANCH   2  22
HETATM   22  N   UNL     1     -44.519  54.974 -53.242  1.00  0.00    -0.234 N 
HETATM   23  H   UNL     1     -44.390  54.111 -52.740  1.00  0.00     0.174 HD
HETATM   24  H   UNL     1     -45.284  55.024 -53.897  1.00  0.00     0.174 HD
ENDBRANCH   2  22
BRANCH   3  25
HETATM   25  C   UNL     1     -43.360  55.741 -50.647  1.00  0.00     0.186 C 
BRANCH  25  26
HETATM   26  C   UNL     1     -42.181  54.856 -50.321  1.00  0.00    -0.039 A 
HETATM   27  C   UNL     1     -41.841  53.706 -51.051  1.00  0.00     0.009 A 
HETATM   28  C   UNL     1     -40.752  52.916 -50.675  1.00  0.00     0.001 A 
HETATM   29  C   UNL     1     -39.985  53.262 -49.567  1.00  0.00     0.000 A 
HETATM   30  C   UNL     1     -40.303  54.400 -48.832  1.00  0.00     0.001 A 
HETATM   31  C   UNL     1     -41.391  55.192 -49.206  1.00  0.00     0.009 A 
ENDBRANCH  25  26
ENDBRANCH   3  25
TORSDOF 8
ENDMDL
MODEL 8
REMARK VINA RESULT:      -7.0     16.370     19.985
REMARK  8 active torsions:
REMARK  status: ('A' for Active; 'I' for Inactive)
REMARK    1  A    between atoms: O_2  and  C_3 
REMARK    2  A    between atoms: C_6  and  C_7 
REMARK    3  A    between atoms: C_7  and  O_8 
REMARK    4  A    between atoms: C_7  and  C_9 
REMARK    5  A    between atoms: C_9  and  N_10 
REMARK    6  A    between atoms: C_11  and  N_12 
REMARK    7  A    between atoms: N_13  and  C_14 
REMARK    8  A    between atoms: C_14  and  C_15 
ROOT
HETATM    1  N   UNL     1     -33.850  39.897 -53.078  1.00  0.00    -0.178 N 
HETATM    2  C   UNL     1     -34.816  40.742 -53.422  1.00  0.00     0.681 A 
HETATM    3  N   UNL     1     -34.582  41.218 -54.637  1.00  0.00    -0.177 N 
HETATM    4  C   UNL     1     -33.459  40.587 -55.163  1.00  0.00     0.079 A 
HETATM    5  C   UNL     1     -32.990  39.731 -54.163  1.00  0.00     0.079 A 
HETATM    6  C   UNL     1     -32.830  40.699 -56.401  1.00  0.00     0.032 A 
HETATM    7  C   UNL     1     -31.690  39.906 -56.586  1.00  0.00     0.002 A 
HETATM    8  C   UNL     1     -31.215  39.047 -55.577  1.00  0.00     0.002 A 
HETATM    9  C   UNL     1     -31.858  38.939 -54.335  1.00  0.00     0.032 A 
ENDROOT
BRANCH   1  10
HETATM   10  C   UNL     1     -33.661  39.291 -51.752  1.00  0.00     0.184 C 
BRANCH  10  11
HETATM   11  C   UNL     1     -32.924  40.207 -50.745  1.00  0.00     0.170 C 
BRANCH  11  12
HETATM   12  C   UNL     1     -32.764  39.558 -49.386  1.00  0.00    -0.028 A 
HETATM   13  C   UNL     1     -33.737  38.660 -48.928  1.00  0.00     0.012 A 
HETATM   14  C   UNL     1     -33.567  37.990 -47.716  1.00  0.00     0.037 A 
HETATM   15  C   UNL     1     -32.432  38.208 -46.935  1.00  0.00     0.068 A 
HETATM   16  C   UNL     1     -31.468  39.116 -47.370  1.00  0.00     0.037 A 
HETATM   17  C   UNL     1     -31.632  39.788 -48.588  1.00  0.00     0.012 A 
BRANCH  15  18
HETATM   18  O   UNL     1     -32.386  37.468 -45.787  1.00  0.00    -0.356 OA
HETATM   19  C   UNL     1     -32.660  38.146 -44.566  1.00  0.00     0.210 C 
ENDBRANCH  15  18
ENDBRANCH  11  12
BRANCH  11  20
HETATM   20  O   UNL     1     -31.643  40.553 -51.271  1.00  0.00    -0.389 OA
HETATM   21  H   UNL     1     -31.744  40.646 -52.237  1.00  0.00     0.210 HD
ENDBRANCH  11  20
ENDBRANCH  10  11
ENDBRANCH   1  10
BRANCH   2  22
HETATM   22  N   UNL     1     -35.870  41.059 -52.671  1.00  0.00    -0.234 N 
HETATM   23  H   UNL     1     -36.548  40.367 -52.396  1.00  0.00     0.174 HD
HETATM   24  H   UNL     1     -36.037  42.014 -52.391  1.00  0.00     0.174 HD
ENDBRANCH   2  22
BRANCH   3  25
HETATM   25  C   UNL     1     -35.321  42.293 -55.288  1.00  0.00     0.186 C 
BRANCH  25  26
HETATM   26  C   UNL     1     -36.308  41.777 -56.307  1.00  0.00    -0.039 A 
HETATM   27  C   UNL     1     -37.492  41.099 -55.976  1.00  0.00     0.009 A 
HETATM   28  C   UNL     1     -38.347  40.623 -56.972  1.00  0.00     0.001 A 
HETATM   29  C   UNL     1     -38.035  40.818 -58.314  1.00  0.00     0.000 A 
HETATM   30  C   UNL     1     -36.868  41.491 -58.664  1.00  0.00     0.001 A 
HETATM   31  C   UNL     1     -36.012  41.968 -57.669  1.00  0.00     0.009 A 
ENDBRANCH  25  26
ENDBRANCH   3  25
TORSDOF 8
ENDMDL
MODEL 9
REMARK VINA RESULT:      -7.0      2.571      4.750
REMARK  8 active torsions:
REMARK  status: ('A' for Active; 'I' for Inactive)
REMARK    1  A    between atoms: O_2  and  C_3 
REMARK    2  A    between atoms: C_6  and  C_7 
REMARK    3  A    between atoms: C_7  and  O_8 
REMARK    4  A    between atoms: C_7  and  C_9 
REMARK    5  A    between atoms: C_9  and  N_10 
REMARK    6  A    between atoms: C_11  and  N_12 
REMARK    7  A    between atoms: N_13  and  C_14 
REMARK    8  A    between atoms: C_14  and  C_15 
ROOT
HETATM    1  N   UNL     1     -41.437  57.849 -52.933  1.00  0.00    -0.178 N 
HETATM    2  C   UNL     1     -41.499  56.705 -52.259  1.00  0.00     0.681 A 
HETATM    3  N   UNL     1     -42.091  55.780 -53.003  1.00  0.00    -0.177 N 
HETATM    4  C   UNL     1     -42.349  56.308 -54.264  1.00  0.00     0.079 A 
HETATM    5  C   UNL     1     -41.923  57.638 -54.222  1.00  0.00     0.079 A 
HETATM    6  C   UNL     1     -42.913  55.743 -55.405  1.00  0.00     0.032 A 
HETATM    7  C   UNL     1     -43.035  56.590 -56.515  1.00  0.00     0.002 A 
HETATM    8  C   UNL     1     -42.610  57.932 -56.472  1.00  0.00     0.002 A 
HETATM    9  C   UNL     1     -42.041  58.489 -55.318  1.00  0.00     0.032 A 
ENDROOT
BRANCH   1  10
HETATM   10  C   UNL     1     -41.006  59.147 -52.395  1.00  0.00     0.184 C 
BRANCH  10  11
HETATM   11  C   UNL     1     -42.114  59.904 -51.623  1.00  0.00     0.170 C 
BRANCH  11  12
HETATM   12  C   UNL     1     -43.245  60.349 -52.526  1.00  0.00    -0.028 A 
HETATM   13  C   UNL     1     -43.053  61.429 -53.397  1.00  0.00     0.012 A 
HETATM   14  C   UNL     1     -44.055  61.802 -54.294  1.00  0.00     0.037 A 
HETATM   15  C   UNL     1     -45.267  61.112 -54.335  1.00  0.00     0.068 A 
HETATM   16  C   UNL     1     -45.477  60.048 -53.458  1.00  0.00     0.037 A 
HETATM   17  C   UNL     1     -44.473  59.668 -52.558  1.00  0.00     0.012 A 
BRANCH  15  18
HETATM   18  O   UNL     1     -46.145  61.569 -55.277  1.00  0.00    -0.356 OA
HETATM   19  C   UNL     1     -46.109  60.946 -56.555  1.00  0.00     0.210 C 
ENDBRANCH  15  18
ENDBRANCH  11  12
BRANCH  11  20
HETATM   20  O   UNL     1     -42.622  59.068 -50.584  1.00  0.00    -0.389 OA
HETATM   21  H   UNL     1     -43.009  58.280 -51.011  1.00  0.00     0.210 HD
ENDBRANCH  11  20
ENDBRANCH  10  11
ENDBRANCH   1  10
BRANCH   2  22
HETATM   22  N   UNL     1     -41.028  56.504 -51.029  1.00  0.00    -0.234 N 
HETATM   23  H   UNL     1     -40.392  55.749 -50.825  1.00  0.00     0.174 HD
HETATM   24  H   UNL     1     -41.328  57.083 -50.260  1.00  0.00     0.174 HD
ENDBRANCH   2  22
BRANCH   3  25
HETATM   25  C   UNL     1     -42.493  54.454 -52.552  1.00  0.00     0.186 C 
BRANCH  25  26
HETATM   26  C   UNL     1     -41.443  53.407 -52.836  1.00  0.00    -0.039 A 
HETATM   27  C   UNL     1     -41.272  52.789 -54.085  1.00  0.00     0.009 A 
HETATM   28  C   UNL     1     -40.297  51.806 -54.270  1.00  0.00     0.001 A 
HETATM   29  C   UNL     1     -39.477  51.425 -53.212  1.00  0.00     0.000 A 
HETATM   30  C   UNL     1     -39.627  52.028 -51.967  1.00  0.00     0.001 A 
HETATM   31  C   UNL     1     -40.601  53.012 -51.780  1.00  0.00     0.009 A 
ENDBRANCH  25  26
ENDBRANCH   3  25
TORSDOF 8
ENDMDL
MODEL 10
REMARK VINA RESULT:      -7.0     15.879     19.075
REMARK  8 active torsions:
REMARK  status: ('A' for Active; 'I' for Inactive)
REMARK    1  A    between atoms: O_2  and  C_3 
REMARK    2  A    between atoms: C_6  and  C_7 
REMARK    3  A    between atoms: C_7  and  O_8 
REMARK    4  A    between atoms: C_7  and  C_9 
REMARK    5  A    between atoms: C_9  and  N_10 
REMARK    6  A    between atoms: C_11  and  N_12 
REMARK    7  A    between atoms: N_13  and  C_14 
REMARK    8  A    between atoms: C_14  and  C_15 
ROOT
HETATM    1  N   UNL     1     -34.850  40.195 -54.602  1.00  0.00    -0.178 N 
HETATM    2  C   UNL     1     -35.208  41.052 -55.553  1.00  0.00     0.681 A 
HETATM    3  N   UNL     1     -36.450  41.466 -55.336  1.00  0.00    -0.177 N 
HETATM    4  C   UNL     1     -36.902  40.933 -54.133  1.00  0.00     0.079 A 
HETATM    5  C   UNL     1     -35.871  40.120 -53.656  1.00  0.00     0.079 A 
HETATM    6  C   UNL     1     -38.104  41.091 -53.447  1.00  0.00     0.032 A 
HETATM    7  C   UNL     1     -38.224  40.378 -52.246  1.00  0.00     0.002 A 
HETATM    8  C   UNL     1     -37.187  39.555 -51.767  1.00  0.00     0.002 A 
HETATM    9  C   UNL     1     -35.980  39.407 -52.466  1.00  0.00     0.032 A 
ENDROOT
BRANCH   1  10
HETATM   10  C   UNL     1     -33.619  39.393 -54.581  1.00  0.00     0.184 C 
BRANCH  10  11
HETATM   11  C   UNL     1     -32.453  40.055 -53.806  1.00  0.00     0.170 C 
BRANCH  11  12
HETATM   12  C   UNL     1     -32.359  39.566 -52.376  1.00  0.00    -0.028 A 
HETATM   13  C   UNL     1     -32.473  38.197 -52.103  1.00  0.00     0.012 A 
HETATM   14  C   UNL     1     -32.309  37.718 -50.803  1.00  0.00     0.037 A 
HETATM   15  C   UNL     1     -32.035  38.594 -49.751  1.00  0.00     0.068 A 
HETATM   16  C   UNL     1     -31.940  39.961 -50.008  1.00  0.00     0.037 A 
HETATM   17  C   UNL     1     -32.102  40.445 -51.312  1.00  0.00     0.012 A 
BRANCH  15  18
HETATM   18  O   UNL     1     -31.874  37.987 -48.538  1.00  0.00    -0.356 OA
HETATM   19  C   UNL     1     -32.988  37.996 -47.653  1.00  0.00     0.210 C 
ENDBRANCH  15  18
ENDBRANCH  11  12
BRANCH  11  20
HETATM   20  O   UNL     1     -31.226  39.798 -54.489  1.00  0.00    -0.389 OA
HETATM   21  H   UNL     1     -31.251  38.869 -54.787  1.00  0.00     0.210 HD
ENDBRANCH  11  20
ENDBRANCH  10  11
ENDBRANCH   1  10
BRANCH   2  22
HETATM   22  N   UNL     1     -34.440  41.450 -56.566  1.00  0.00    -0.234 N 
HETATM   23  H   UNL     1     -33.481  41.153 -56.648  1.00  0.00     0.174 HD
HETATM   24  H   UNL     1     -34.791  42.093 -57.260  1.00  0.00     0.174 HD
ENDBRANCH   2  22
BRANCH   3  25
HETATM   25  C   UNL     1     -37.249  42.274 -56.249  1.00  0.00     0.186 C 
BRANCH  25  26
HETATM   26  C   UNL     1     -37.515  41.570 -57.557  1.00  0.00    -0.039 A 
HETATM   27  C   UNL     1     -38.147  40.321 -57.659  1.00  0.00     0.009 A 
HETATM   28  C   UNL     1     -38.336  39.712 -58.902  1.00  0.00     0.001 A 
HETATM   29  C   UNL     1     -37.898  40.343 -60.063  1.00  0.00     0.000 A 
HETATM   30  C   UNL     1     -37.272  41.583 -59.985  1.00  0.00     0.001 A 
HETATM   31  C   UNL     1     -37.083  42.193 -58.742  1.00  0.00     0.009 A 
ENDBRANCH  25  26
ENDBRANCH   3  25
TORSDOF 8
ENDMDL
