MODEL 1
REMARK VINA RESULT:      -7.4      0.000      0.000
REMARK  3 active torsions:
REMARK  status: ('A' for Active; 'I' for Inactive)
REMARK       I    between atoms: C_2  and  N_3 
REMARK    1  A    between atoms: N_3  and  C_4 
REMARK    2  A    between atoms: C_6  and  N_7 
REMARK       I    between atoms: N_7  and  C_8 
REMARK    3  A    between atoms: C_8  and  C_9 
ROOT
HETATM    1  C   UNL     1     -40.067  52.995 -51.640  1.00  0.00     0.036 A 
HETATM    2  C   UNL     1     -40.552  53.930 -52.562  1.00  0.00     0.059 A 
HETATM    3  C   UNL     1     -40.673  53.599 -53.919  1.00  0.00     0.037 A 
HETATM    4  C   UNL     1     -40.300  52.321 -54.348  1.00  0.00     0.029 A 
HETATM    5  C   UNL     1     -39.798  51.390 -53.442  1.00  0.00     0.004 A 
HETATM    6  C   UNL     1     -39.680  51.727 -52.095  1.00  0.00     0.029 A 
ENDROOT
BRANCH   3   7
HETATM    7  N   UNL     1     -41.173  54.474 -54.901  1.00  0.00    -0.322 N 
HETATM    8  C   UNL     1     -42.477  54.887 -55.101  1.00  0.00     0.274 C 
HETATM    9  O   UNL     1     -43.453  54.637 -54.407  1.00  0.00    -0.266 OA
HETATM   10  H   UNL     1     -40.511  54.868 -55.565  1.00  0.00     0.169 HD
BRANCH   8  11
HETATM   11  C   UNL     1     -42.634  55.750 -56.317  1.00  0.00     0.126 A 
HETATM   12  N   UNL     1     -42.271  57.059 -56.175  1.00  0.00    -0.255 NA
HETATM   13  C   UNL     1     -42.384  57.840 -57.272  1.00  0.00     0.119 A 
HETATM   14  C   UNL     1     -42.844  57.382 -58.493  1.00  0.00     0.043 A 
HETATM   15  C   UNL     1     -43.209  56.045 -58.592  1.00  0.00     0.037 A 
HETATM   16 CL   UNL     1     -43.788  55.432 -60.092  1.00  0.00    -0.084 Cl
HETATM   17  C   UNL     1     -43.109  55.201 -57.497  1.00  0.00     0.061 A 
ENDBRANCH   8  11
ENDBRANCH   3   7
BRANCH   1  18
HETATM   18  N   UNL     1     -39.936  53.236 -50.255  1.00  0.00    -0.327 N 
HETATM   19  C   UNL     1     -40.840  53.863 -49.416  1.00  0.00     0.218 C 
HETATM   20  C   UNL     1     -40.344  53.946 -47.992  1.00  0.00     0.117 C 
HETATM   21  O   UNL     1     -41.950  54.287 -49.706  1.00  0.00    -0.274 OA
HETATM   22  H   UNL     1     -39.101  52.865 -49.822  1.00  0.00     0.169 HD
ENDBRANCH   1  18
TORSDOF 3
ENDMDL
MODEL 2
REMARK VINA RESULT:      -7.4      2.941      7.797
REMARK  3 active torsions:
REMARK  status: ('A' for Active; 'I' for Inactive)
REMARK       I    between atoms: C_2  and  N_3 
REMARK    1  A    between atoms: N_3  and  C_4 
REMARK    2  A    between atoms: C_6  and  N_7 
REMARK       I    between atoms: N_7  and  C_8 
REMARK    3  A    between atoms: C_8  and  C_9 
ROOT
HETATM    1  C   UNL     1     -43.754  56.313 -57.785  1.00  0.00     0.036 A 
HETATM    2  C   UNL     1     -43.148  55.294 -57.040  1.00  0.00     0.059 A 
HETATM    3  C   UNL     1     -42.280  55.601 -55.982  1.00  0.00     0.037 A 
HETATM    4  C   UNL     1     -42.021  56.941 -55.677  1.00  0.00     0.029 A 
HETATM    5  C   UNL     1     -42.602  57.962 -56.424  1.00  0.00     0.004 A 
HETATM    6  C   UNL     1     -43.463  57.648 -57.475  1.00  0.00     0.029 A 
ENDROOT
BRANCH   3   7
HETATM    7  N   UNL     1     -41.653  54.636 -55.173  1.00  0.00    -0.322 N 
HETATM    8  C   UNL     1     -42.070  54.131 -53.957  1.00  0.00     0.274 C 
HETATM    9  O   UNL     1     -43.120  54.364 -53.373  1.00  0.00    -0.266 OA
HETATM   10  H   UNL     1     -40.775  54.241 -55.502  1.00  0.00     0.169 HD
BRANCH   8  11
HETATM   11  C   UNL     1     -41.080  53.183 -53.349  1.00  0.00     0.126 A 
HETATM   12  N   UNL     1     -40.657  53.485 -52.086  1.00  0.00    -0.255 NA
HETATM   13  C   UNL     1     -39.784  52.623 -51.519  1.00  0.00     0.119 A 
HETATM   14  C   UNL     1     -39.313  51.486 -52.149  1.00  0.00     0.043 A 
HETATM   15  C   UNL     1     -39.763  51.221 -53.437  1.00  0.00     0.037 A 
HETATM   16 CL   UNL     1     -39.200  49.818 -54.260  1.00  0.00    -0.084 Cl
HETATM   17  C   UNL     1     -40.661  52.071 -54.062  1.00  0.00     0.061 A 
ENDBRANCH   8  11
ENDBRANCH   3   7
BRANCH   1  18
HETATM   18  N   UNL     1     -44.656  56.093 -58.848  1.00  0.00    -0.327 N 
HETATM   19  C   UNL     1     -44.374  56.040 -60.200  1.00  0.00     0.218 C 
HETATM   20  C   UNL     1     -45.606  55.794 -61.039  1.00  0.00     0.117 C 
HETATM   21  O   UNL     1     -43.275  56.127 -60.732  1.00  0.00    -0.274 OA
HETATM   22  H   UNL     1     -45.613  55.908 -58.579  1.00  0.00     0.169 HD
ENDBRANCH   1  18
TORSDOF 3
ENDMDL
MODEL 3
REMARK VINA RESULT:      -7.3      4.258      6.590
REMARK  3 active torsions:
REMARK  status: ('A' for Active; 'I' for Inactive)
REMARK       I    between atoms: C_2  and  N_3 
REMARK    1  A    between atoms: N_3  and  C_4 
REMARK    2  A    between atoms: C_6  and  N_7 
REMARK       I    between atoms: N_7  and  C_8 
REMARK    3  A    between atoms: C_8  and  C_9 
ROOT
HETATM    1  C   UNL     1     -44.180  58.253 -52.372  1.00  0.00     0.036 A 
HETATM    2  C   UNL     1     -43.330  57.173 -52.102  1.00  0.00     0.059 A 
HETATM    3  C   UNL     1     -43.167  56.142 -53.037  1.00  0.00     0.037 A 
HETATM    4  C   UNL     1     -43.866  56.198 -54.248  1.00  0.00     0.029 A 
HETATM    5  C   UNL     1     -44.728  57.257 -54.518  1.00  0.00     0.004 A 
HETATM    6  C   UNL     1     -44.886  58.278 -53.582  1.00  0.00     0.029 A 
ENDROOT
BRANCH   3   7
HETATM    7  N   UNL     1     -42.315  55.038 -52.849  1.00  0.00    -0.322 N 
HETATM    8  C   UNL     1     -41.118  54.758 -53.481  1.00  0.00     0.274 C 
HETATM    9  O   UNL     1     -40.513  55.463 -54.277  1.00  0.00    -0.266 OA
HETATM   10  H   UNL     1     -42.593  54.337 -52.166  1.00  0.00     0.169 HD
BRANCH   8  11
HETATM   11  C   UNL     1     -40.546  53.430 -53.083  1.00  0.00     0.126 A 
HETATM   12  N   UNL     1     -40.226  53.286 -51.763  1.00  0.00    -0.255 NA
HETATM   13  C   UNL     1     -39.735  52.084 -51.390  1.00  0.00     0.119 A 
HETATM   14  C   UNL     1     -39.543  51.030 -52.263  1.00  0.00     0.043 A 
HETATM   15  C   UNL     1     -39.874  51.223 -53.599  1.00  0.00     0.037 A 
HETATM   16 CL   UNL     1     -39.650  49.938 -54.723  1.00  0.00    -0.084 Cl
HETATM   17  C   UNL     1     -40.386  52.435 -54.033  1.00  0.00     0.061 A 
ENDBRANCH   8  11
ENDBRANCH   3   7
BRANCH   1  18
HETATM   18  N   UNL     1     -44.384  59.344 -51.499  1.00  0.00    -0.327 N 
HETATM   19  C   UNL     1     -45.401  59.512 -50.578  1.00  0.00     0.218 C 
HETATM   20  C   UNL     1     -45.292  60.818 -49.828  1.00  0.00     0.117 C 
HETATM   21  O   UNL     1     -46.297  58.722 -50.311  1.00  0.00    -0.274 OA
HETATM   22  H   UNL     1     -43.672  60.063 -51.522  1.00  0.00     0.169 HD
ENDBRANCH   1  18
TORSDOF 3
ENDMDL
MODEL 4
REMARK VINA RESULT:      -7.1      4.302      6.620
REMARK  3 active torsions:
REMARK  status: ('A' for Active; 'I' for Inactive)
REMARK       I    between atoms: C_2  and  N_3 
REMARK    1  A    between atoms: N_3  and  C_4 
REMARK    2  A    between atoms: C_6  and  N_7 
REMARK       I    between atoms: N_7  and  C_8 
REMARK    3  A    between atoms: C_8  and  C_9 
ROOT
HETATM    1  C   UNL     1     -42.988  57.423 -52.300  1.00  0.00     0.036 A 
HETATM    2  C   UNL     1     -42.271  56.225 -52.189  1.00  0.00     0.059 A 
HETATM    3  C   UNL     1     -42.498  55.170 -53.084  1.00  0.00     0.037 A 
HETATM    4  C   UNL     1     -43.454  55.324 -54.094  1.00  0.00     0.029 A 
HETATM    5  C   UNL     1     -44.187  56.503 -54.201  1.00  0.00     0.004 A 
HETATM    6  C   UNL     1     -43.956  57.546 -53.306  1.00  0.00     0.029 A 
ENDROOT
BRANCH   3   7
HETATM    7  N   UNL     1     -41.802  53.948 -53.053  1.00  0.00    -0.322 N 
HETATM    8  C   UNL     1     -40.696  53.569 -53.789  1.00  0.00     0.274 C 
HETATM    9  O   UNL     1     -40.043  54.257 -54.562  1.00  0.00    -0.266 OA
HETATM   10  H   UNL     1     -42.136  53.230 -52.415  1.00  0.00     0.169 HD
BRANCH   8  11
HETATM   11  C   UNL     1     -40.296  52.144 -53.548  1.00  0.00     0.126 A 
HETATM   12  N   UNL     1     -40.217  51.347 -54.655  1.00  0.00    -0.255 NA
HETATM   13  C   UNL     1     -39.833  50.068 -54.452  1.00  0.00     0.119 A 
HETATM   14  C   UNL     1     -39.532  49.548 -53.207  1.00  0.00     0.043 A 
HETATM   15  C   UNL     1     -39.632  50.391 -52.106  1.00  0.00     0.037 A 
HETATM   16 CL   UNL     1     -39.268  49.785 -50.537  1.00  0.00    -0.084 Cl
HETATM   17  C   UNL     1     -40.018  51.713 -52.261  1.00  0.00     0.061 A 
ENDBRANCH   8  11
ENDBRANCH   3   7
BRANCH   1  18
HETATM   18  N   UNL     1     -42.806  58.541 -51.458  1.00  0.00    -0.327 N 
HETATM   19  C   UNL     1     -41.993  59.639 -51.672  1.00  0.00     0.218 C 
HETATM   20  C   UNL     1     -42.053  60.632 -50.537  1.00  0.00     0.117 C 
HETATM   21  O   UNL     1     -41.310  59.874 -52.660  1.00  0.00    -0.274 OA
HETATM   22  H   UNL     1     -43.374  58.556 -50.621  1.00  0.00     0.169 HD
ENDBRANCH   1  18
TORSDOF 3
ENDMDL
MODEL 5
REMARK VINA RESULT:      -7.0      4.127      5.252
REMARK  3 active torsions:
REMARK  status: ('A' for Active; 'I' for Inactive)
REMARK       I    between atoms: C_2  and  N_3 
REMARK    1  A    between atoms: N_3  and  C_4 
REMARK    2  A    between atoms: C_6  and  N_7 
REMARK       I    between atoms: N_7  and  C_8 
REMARK    3  A    between atoms: C_8  and  C_9 
ROOT
HETATM    1  C   UNL     1     -40.589  53.356 -51.673  1.00  0.00     0.036 A 
HETATM    2  C   UNL     1     -41.558  54.327 -51.954  1.00  0.00     0.059 A 
HETATM    3  C   UNL     1     -41.717  55.440 -51.117  1.00  0.00     0.037 A 
HETATM    4  C   UNL     1     -40.898  55.573 -49.991  1.00  0.00     0.029 A 
HETATM    5  C   UNL     1     -39.946  54.603 -49.691  1.00  0.00     0.004 A 
HETATM    6  C   UNL     1     -39.794  53.498 -50.528  1.00  0.00     0.029 A 
ENDROOT
BRANCH   3   7
HETATM    7  N   UNL     1     -42.650  56.469 -51.345  1.00  0.00    -0.322 N 
HETATM    8  C   UNL     1     -43.989  56.507 -51.008  1.00  0.00     0.274 C 
HETATM    9  O   UNL     1     -44.619  55.679 -50.364  1.00  0.00    -0.266 OA
HETATM   10  H   UNL     1     -42.322  57.307 -51.821  1.00  0.00     0.169 HD
BRANCH   8  11
HETATM   11  C   UNL     1     -44.681  57.739 -51.508  1.00  0.00     0.126 A 
HETATM   12  N   UNL     1     -45.471  58.392 -50.605  1.00  0.00    -0.255 NA
HETATM   13  C   UNL     1     -46.079  59.519 -51.038  1.00  0.00     0.119 A 
HETATM   14  C   UNL     1     -45.942  60.018 -52.320  1.00  0.00     0.043 A 
HETATM   15  C   UNL     1     -45.134  59.319 -53.209  1.00  0.00     0.037 A 
HETATM   16 CL   UNL     1     -44.936  59.904 -54.815  1.00  0.00    -0.084 Cl
HETATM   17  C   UNL     1     -44.486  58.160 -52.813  1.00  0.00     0.061 A 
ENDBRANCH   8  11
ENDBRANCH   3   7
BRANCH   1  18
HETATM   18  N   UNL     1     -40.346  52.219 -52.474  1.00  0.00    -0.327 N 
HETATM   19  C   UNL     1     -40.112  52.177 -53.836  1.00  0.00     0.218 C 
HETATM   20  C   UNL     1     -39.903  50.771 -54.344  1.00  0.00     0.117 C 
HETATM   21  O   UNL     1     -40.024  53.127 -54.602  1.00  0.00    -0.274 OA
HETATM   22  H   UNL     1     -40.293  51.338 -51.979  1.00  0.00     0.169 HD
ENDBRANCH   1  18
TORSDOF 3
ENDMDL
MODEL 6
REMARK VINA RESULT:      -6.9      1.645      2.714
REMARK  3 active torsions:
REMARK  status: ('A' for Active; 'I' for Inactive)
REMARK       I    between atoms: C_2  and  N_3 
REMARK    1  A    between atoms: N_3  and  C_4 
REMARK    2  A    between atoms: C_6  and  N_7 
REMARK       I    between atoms: N_7  and  C_8 
REMARK    3  A    between atoms: C_8  and  C_9 
ROOT
HETATM    1  C   UNL     1     -40.696  53.425 -50.966  1.00  0.00     0.036 A 
HETATM    2  C   UNL     1     -41.061  53.904 -52.231  1.00  0.00     0.059 A 
HETATM    3  C   UNL     1     -41.366  55.258 -52.422  1.00  0.00     0.037 A 
HETATM    4  C   UNL     1     -41.304  56.134 -51.332  1.00  0.00     0.029 A 
HETATM    5  C   UNL     1     -40.962  55.665 -50.067  1.00  0.00     0.004 A 
HETATM    6  C   UNL     1     -40.661  54.316 -49.885  1.00  0.00     0.029 A 
ENDROOT
BRANCH   3   7
HETATM    7  N   UNL     1     -41.717  55.819 -53.663  1.00  0.00    -0.322 N 
HETATM    8  C   UNL     1     -42.763  55.474 -54.498  1.00  0.00     0.274 C 
HETATM    9  O   UNL     1     -43.651  54.660 -54.283  1.00  0.00    -0.266 OA
HETATM   10  H   UNL     1     -41.142  56.579 -54.019  1.00  0.00     0.169 HD
BRANCH   8  11
HETATM   11  C   UNL     1     -42.754  56.237 -55.789  1.00  0.00     0.126 A 
HETATM   12  N   UNL     1     -42.518  57.579 -55.691  1.00  0.00    -0.255 NA
HETATM   13  C   UNL     1     -42.482  58.271 -56.850  1.00  0.00     0.119 A 
HETATM   14  C   UNL     1     -42.675  57.695 -58.093  1.00  0.00     0.043 A 
HETATM   15  C   UNL     1     -42.920  56.328 -58.146  1.00  0.00     0.037 A 
HETATM   16 CL   UNL     1     -43.167  55.570 -59.671  1.00  0.00    -0.084 Cl
HETATM   17  C   UNL     1     -42.963  55.572 -56.986  1.00  0.00     0.061 A 
ENDBRANCH   8  11
ENDBRANCH   3   7
BRANCH   1  18
HETATM   18  N   UNL     1     -40.351  52.084 -50.692  1.00  0.00    -0.327 N 
HETATM   19  C   UNL     1     -39.669  51.201 -51.509  1.00  0.00     0.218 C 
HETATM   20  C   UNL     1     -39.494  49.843 -50.873  1.00  0.00     0.117 C 
HETATM   21  O   UNL     1     -39.190  51.430 -52.612  1.00  0.00    -0.274 OA
HETATM   22  H   UNL     1     -40.594  51.749 -49.769  1.00  0.00     0.169 HD
ENDBRANCH   1  18
TORSDOF 3
ENDMDL
MODEL 7
REMARK VINA RESULT:      -6.6      2.063      2.514
REMARK  3 active torsions:
REMARK  status: ('A' for Active; 'I' for Inactive)
REMARK       I    between atoms: C_2  and  N_3 
REMARK    1  A    between atoms: N_3  and  C_4 
REMARK    2  A    between atoms: C_6  and  N_7 
REMARK       I    between atoms: N_7  and  C_8 
REMARK    3  A    between atoms: C_8  and  C_9 
ROOT
HETATM    1  C   UNL     1     -40.981  54.260 -52.307  1.00  0.00     0.036 A 
HETATM    2  C   UNL     1     -41.270  55.254 -53.250  1.00  0.00     0.059 A 
HETATM    3  C   UNL     1     -41.040  55.033 -54.615  1.00  0.00     0.037 A 
HETATM    4  C   UNL     1     -40.515  53.804 -55.030  1.00  0.00     0.029 A 
HETATM    5  C   UNL     1     -40.206  52.816 -54.098  1.00  0.00     0.004 A 
HETATM    6  C   UNL     1     -40.436  53.045 -52.743  1.00  0.00     0.029 A 
ENDROOT
BRANCH   3   7
HETATM    7  N   UNL     1     -41.326  55.971 -55.623  1.00  0.00    -0.322 N 
HETATM    8  C   UNL     1     -42.558  56.433 -56.044  1.00  0.00     0.274 C 
HETATM    9  O   UNL     1     -43.654  56.178 -55.562  1.00  0.00    -0.266 OA
HETATM   10  H   UNL     1     -40.541  56.378 -56.127  1.00  0.00     0.169 HD
BRANCH   8  11
HETATM   11  C   UNL     1     -42.463  57.361 -57.218  1.00  0.00     0.126 A 
HETATM   12  N   UNL     1     -42.839  56.844 -58.424  1.00  0.00    -0.255 NA
HETATM   13  C   UNL     1     -42.781  57.680 -59.484  1.00  0.00     0.119 A 
HETATM   14  C   UNL     1     -42.364  58.995 -59.400  1.00  0.00     0.043 A 
HETATM   15  C   UNL     1     -41.983  59.479 -58.154  1.00  0.00     0.037 A 
HETATM   16 CL   UNL     1     -41.455  61.110 -58.002  1.00  0.00    -0.084 Cl
HETATM   17  C   UNL     1     -42.027  58.664 -57.034  1.00  0.00     0.061 A 
ENDBRANCH   8  11
ENDBRANCH   3   7
BRANCH   1  18
HETATM   18  N   UNL     1     -41.204  54.391 -50.919  1.00  0.00    -0.327 N 
HETATM   19  C   UNL     1     -40.263  54.370 -49.905  1.00  0.00     0.218 C 
HETATM   20  C   UNL     1     -40.883  54.532 -48.538  1.00  0.00     0.117 C 
HETATM   21  O   UNL     1     -39.048  54.281 -50.023  1.00  0.00    -0.274 OA
HETATM   22  H   UNL     1     -42.161  54.566 -50.643  1.00  0.00     0.169 HD
ENDBRANCH   1  18
TORSDOF 3
ENDMDL
MODEL 8
REMARK VINA RESULT:      -6.6      3.262      8.239
REMARK  3 active torsions:
REMARK  status: ('A' for Active; 'I' for Inactive)
REMARK       I    between atoms: C_2  and  N_3 
REMARK    1  A    between atoms: N_3  and  C_4 
REMARK    2  A    between atoms: C_6  and  N_7 
REMARK       I    between atoms: N_7  and  C_8 
REMARK    3  A    between atoms: C_8  and  C_9 
ROOT
HETATM    1  C   UNL     1     -44.224  57.107 -59.950  1.00  0.00     0.036 A 
HETATM    2  C   UNL     1     -43.881  56.411 -58.783  1.00  0.00     0.059 A 
HETATM    3  C   UNL     1     -42.733  56.756 -58.057  1.00  0.00     0.037 A 
HETATM    4  C   UNL     1     -41.926  57.805 -58.510  1.00  0.00     0.029 A 
HETATM    5  C   UNL     1     -42.246  58.489 -59.680  1.00  0.00     0.004 A 
HETATM    6  C   UNL     1     -43.389  58.139 -60.397  1.00  0.00     0.029 A 
ENDROOT
BRANCH   3   7
HETATM    7  N   UNL     1     -42.336  56.123 -56.865  1.00  0.00    -0.322 N 
HETATM    8  C   UNL     1     -42.176  56.677 -55.609  1.00  0.00     0.274 C 
HETATM    9  O   UNL     1     -42.430  57.822 -55.261  1.00  0.00    -0.266 OA
HETATM   10  H   UNL     1     -42.133  55.127 -56.904  1.00  0.00     0.169 HD
BRANCH   8  11
HETATM   11  C   UNL     1     -41.643  55.698 -54.605  1.00  0.00     0.126 A 
HETATM   12  N   UNL     1     -41.658  56.107 -53.302  1.00  0.00    -0.255 NA
HETATM   13  C   UNL     1     -41.204  55.223 -52.387  1.00  0.00     0.119 A 
HETATM   14  C   UNL     1     -40.734  53.963 -52.707  1.00  0.00     0.043 A 
HETATM   15  C   UNL     1     -40.729  53.590 -54.046  1.00  0.00     0.037 A 
HETATM   16 CL   UNL     1     -40.150  52.031 -54.491  1.00  0.00    -0.084 Cl
HETATM   17  C   UNL     1     -41.188  54.459 -55.024  1.00  0.00     0.061 A 
ENDBRANCH   8  11
ENDBRANCH   3   7
BRANCH   1  18
HETATM   18  N   UNL     1     -45.372  56.841 -60.727  1.00  0.00    -0.327 N 
HETATM   19  C   UNL     1     -46.693  56.855 -60.318  1.00  0.00     0.218 C 
HETATM   20  C   UNL     1     -47.648  56.508 -61.435  1.00  0.00     0.117 C 
HETATM   21  O   UNL     1     -47.123  57.147 -59.210  1.00  0.00    -0.274 OA
HETATM   22  H   UNL     1     -45.205  56.665 -61.709  1.00  0.00     0.169 HD
ENDBRANCH   1  18
TORSDOF 3
ENDMDL
MODEL 9
REMARK VINA RESULT:      -6.4     14.999     17.575
REMARK  3 active torsions:
REMARK  status: ('A' for Active; 'I' for Inactive)
REMARK       I    between atoms: C_2  and  N_3 
REMARK    1  A    between atoms: N_3  and  C_4 
REMARK    2  A    between atoms: C_6  and  N_7 
REMARK       I    between atoms: N_7  and  C_8 
REMARK    3  A    between atoms: C_8  and  C_9 
ROOT
HETATM    1  C   UNL     1     -36.788  39.880 -59.599  1.00  0.00     0.036 A 
HETATM    2  C   UNL     1     -36.083  39.775 -58.394  1.00  0.00     0.059 A 
HETATM    3  C   UNL     1     -35.903  40.895 -57.571  1.00  0.00     0.037 A 
HETATM    4  C   UNL     1     -36.435  42.127 -57.965  1.00  0.00     0.029 A 
HETATM    5  C   UNL     1     -37.121  42.247 -59.171  1.00  0.00     0.004 A 
HETATM    6  C   UNL     1     -37.294  41.129 -59.985  1.00  0.00     0.029 A 
ENDROOT
BRANCH   3   7
HETATM    7  N   UNL     1     -35.229  40.864 -56.336  1.00  0.00    -0.322 N 
HETATM    8  C   UNL     1     -33.880  40.682 -56.097  1.00  0.00     0.274 C 
HETATM    9  O   UNL     1     -32.982  40.594 -56.923  1.00  0.00    -0.266 OA
HETATM   10  H   UNL     1     -35.783  40.987 -55.492  1.00  0.00     0.169 HD
BRANCH   8  11
HETATM   11  C   UNL     1     -33.553  40.612 -54.635  1.00  0.00     0.126 A 
HETATM   12  N   UNL     1     -32.251  40.340 -54.324  1.00  0.00    -0.255 NA
HETATM   13  C   UNL     1     -31.940  40.300 -53.010  1.00  0.00     0.119 A 
HETATM   14  C   UNL     1     -32.858  40.511 -51.999  1.00  0.00     0.043 A 
HETATM   15  C   UNL     1     -34.174  40.777 -52.359  1.00  0.00     0.037 A 
HETATM   16 CL   UNL     1     -35.352  41.044 -51.133  1.00  0.00    -0.084 Cl
HETATM   17  C   UNL     1     -34.545  40.833 -53.694  1.00  0.00     0.061 A 
ENDBRANCH   8  11
ENDBRANCH   3   7
BRANCH   1  18
HETATM   18  N   UNL     1     -37.035  38.801 -60.474  1.00  0.00    -0.327 N 
HETATM   19  C   UNL     1     -36.154  38.215 -61.365  1.00  0.00     0.218 C 
HETATM   20  C   UNL     1     -36.785  37.084 -62.143  1.00  0.00     0.117 C 
HETATM   21  O   UNL     1     -34.974  38.492 -61.531  1.00  0.00    -0.274 OA
HETATM   22  H   UNL     1     -37.952  38.381 -60.404  1.00  0.00     0.169 HD
ENDBRANCH   1  18
TORSDOF 3
ENDMDL
MODEL 10
REMARK VINA RESULT:      -6.3      3.243      4.023
REMARK  3 active torsions:
REMARK  status: ('A' for Active; 'I' for Inactive)
REMARK       I    between atoms: C_2  and  N_3 
REMARK    1  A    between atoms: N_3  and  C_4 
REMARK    2  A    between atoms: C_6  and  N_7 
REMARK       I    between atoms: N_7  and  C_8 
REMARK    3  A    between atoms: C_8  and  C_9 
ROOT
HETATM    1  C   UNL     1     -41.733  56.826 -52.729  1.00  0.00     0.036 A 
HETATM    2  C   UNL     1     -42.407  57.062 -53.934  1.00  0.00     0.059 A 
HETATM    3  C   UNL     1     -42.777  55.997 -54.766  1.00  0.00     0.037 A 
HETATM    4  C   UNL     1     -42.462  54.688 -54.384  1.00  0.00     0.029 A 
HETATM    5  C   UNL     1     -41.774  54.444 -53.198  1.00  0.00     0.004 A 
HETATM    6  C   UNL     1     -41.409  55.509 -52.377  1.00  0.00     0.029 A 
ENDROOT
BRANCH   3   7
HETATM    7  N   UNL     1     -43.476  56.150 -55.977  1.00  0.00    -0.322 N 
HETATM    8  C   UNL     1     -43.154  56.942 -57.063  1.00  0.00     0.274 C 
HETATM    9  O   UNL     1     -42.142  57.612 -57.223  1.00  0.00    -0.266 OA
HETATM   10  H   UNL     1     -44.338  55.622 -56.096  1.00  0.00     0.169 HD
BRANCH   8  11
HETATM   11  C   UNL     1     -44.202  56.916 -58.135  1.00  0.00     0.126 A 
HETATM   12  N   UNL     1     -45.207  57.833 -58.014  1.00  0.00    -0.255 NA
HETATM   13  C   UNL     1     -46.142  57.835 -58.989  1.00  0.00     0.119 A 
HETATM   14  C   UNL     1     -46.127  56.969 -60.067  1.00  0.00     0.043 A 
HETATM   15  C   UNL     1     -45.091  56.046 -60.147  1.00  0.00     0.037 A 
HETATM   16 CL   UNL     1     -45.032  54.948 -61.470  1.00  0.00    -0.084 Cl
HETATM   17  C   UNL     1     -44.104  56.006 -59.174  1.00  0.00     0.061 A 
ENDBRANCH   8  11
ENDBRANCH   3   7
BRANCH   1  18
HETATM   18  N   UNL     1     -41.346  57.837 -51.822  1.00  0.00    -0.327 N 
HETATM   19  C   UNL     1     -40.414  58.839 -52.019  1.00  0.00     0.218 C 
HETATM   20  C   UNL     1     -40.261  59.732 -50.812  1.00  0.00     0.117 C 
HETATM   21  O   UNL     1     -39.778  59.070 -53.039  1.00  0.00    -0.274 OA
HETATM   22  H   UNL     1     -41.846  57.852 -50.944  1.00  0.00     0.169 HD
ENDBRANCH   1  18
TORSDOF 3
ENDMDL
