MODEL 1
REMARK VINA RESULT:      -8.3      0.000      0.000
REMARK  5 active torsions:
REMARK  status: ('A' for Active; 'I' for Inactive)
REMARK    1  A    between atoms: C_2  and  C_3 
REMARK    2  A    between atoms: C_5  and  C_6 
REMARK    3  A    between atoms: C_6  and  C_7 
REMARK       I    between atoms: C_7  and  N_8 
REMARK    4  A    between atoms: N_8  and  C_9 
REMARK    5  A    between atoms: C_11  and  C_12 
ROOT
HETATM    1  C   UNL     1     -41.620  54.296 -55.230  1.00  0.00     0.226 C 
HETATM    2  N   UNL     1     -41.513  55.515 -55.880  1.00  0.00    -0.327 N 
HETATM    3  O   UNL     1     -42.650  53.652 -55.051  1.00  0.00    -0.273 OA
HETATM    4  H   UNL     1     -40.581  55.909 -55.943  1.00  0.00     0.169 HD
ENDROOT
BRANCH   2   5
HETATM    5  C   UNL     1     -42.528  56.218 -56.564  1.00  0.00     0.035 A 
HETATM    6  C   UNL     1     -43.113  55.780 -57.758  1.00  0.00     0.042 A 
HETATM    7  C   UNL     1     -44.090  56.545 -58.419  1.00  0.00    -0.021 A 
HETATM    8  C   UNL     1     -44.489  57.760 -57.847  1.00  0.00     0.012 A 
HETATM    9  C   UNL     1     -43.923  58.200 -56.650  1.00  0.00     0.003 A 
HETATM   10  C   UNL     1     -42.945  57.434 -56.014  1.00  0.00     0.029 A 
BRANCH   7  11
HETATM   11  C   UNL     1     -44.679  56.099 -59.676  1.00  0.00     0.010 A 
HETATM   12  C   UNL     1     -44.321  55.042 -60.549  1.00  0.00     0.152 A 
HETATM   13  N   UNL     1     -45.126  54.942 -61.610  1.00  0.00    -0.187 NA
HETATM   14  N   UNL     1     -46.006  55.938 -61.427  1.00  0.00    -0.289 N 
HETATM   15  H   UNL     1     -46.735  56.071 -62.120  1.00  0.00     0.188 HD
HETATM   16  C   UNL     1     -45.787  56.654 -60.286  1.00  0.00     0.123 A 
ENDBRANCH   7  11
ENDBRANCH   2   5
BRANCH   1  17
HETATM   17  C   UNL     1     -40.286  53.779 -54.713  1.00  0.00     0.141 C 
BRANCH  17  18
HETATM   18  C   UNL     1     -40.290  53.269 -53.286  1.00  0.00    -0.049 A 
HETATM   19  C   UNL     1     -40.729  54.052 -52.204  1.00  0.00     0.014 A 
HETATM   20  C   UNL     1     -40.729  53.554 -50.892  1.00  0.00    -0.058 A 
HETATM   21  C   UNL     1     -40.212  52.270 -50.667  1.00  0.00     0.007 A 
HETATM   22  C   UNL     1     -39.737  51.495 -51.724  1.00  0.00     0.001 A 
HETATM   23  C   UNL     1     -39.780  51.989 -53.026  1.00  0.00     0.007 A 
BRANCH  20  24
HETATM   24  C   UNL     1     -41.210  54.360 -49.706  1.00  0.00     0.034 C 
HETATM   25  C   UNL     1     -40.483  54.122 -48.387  1.00  0.00     0.010 C 
ENDBRANCH  20  24
ENDBRANCH  17  18
ENDBRANCH   1  17
TORSDOF 5
ENDMDL
MODEL 2
REMARK VINA RESULT:      -8.2      2.532      8.641
REMARK  5 active torsions:
REMARK  status: ('A' for Active; 'I' for Inactive)
REMARK    1  A    between atoms: C_2  and  C_3 
REMARK    2  A    between atoms: C_5  and  C_6 
REMARK    3  A    between atoms: C_6  and  C_7 
REMARK       I    between atoms: C_7  and  N_8 
REMARK    4  A    between atoms: N_8  and  C_9 
REMARK    5  A    between atoms: C_11  and  C_12 
ROOT
HETATM    1  C   UNL     1     -42.749  56.207 -56.125  1.00  0.00     0.226 C 
HETATM    2  N   UNL     1     -41.548  55.562 -55.874  1.00  0.00    -0.327 N 
HETATM    3  O   UNL     1     -43.739  56.214 -55.399  1.00  0.00    -0.273 OA
HETATM    4  H   UNL     1     -40.829  55.664 -56.582  1.00  0.00     0.169 HD
ENDROOT
BRANCH   2   5
HETATM    5  C   UNL     1     -41.168  54.876 -54.701  1.00  0.00     0.035 A 
HETATM    6  C   UNL     1     -40.768  53.535 -54.674  1.00  0.00     0.042 A 
HETATM    7  C   UNL     1     -40.443  52.892 -53.467  1.00  0.00    -0.021 A 
HETATM    8  C   UNL     1     -40.509  53.627 -52.277  1.00  0.00     0.012 A 
HETATM    9  C   UNL     1     -40.894  54.968 -52.293  1.00  0.00     0.003 A 
HETATM   10  C   UNL     1     -41.224  55.588 -53.498  1.00  0.00     0.029 A 
BRANCH   7  11
HETATM   11  C   UNL     1     -40.051  51.487 -53.439  1.00  0.00     0.010 A 
HETATM   12  C   UNL     1     -39.992  50.517 -54.470  1.00  0.00     0.152 A 
HETATM   13  N   UNL     1     -39.562  49.325 -54.044  1.00  0.00    -0.187 NA
HETATM   14  N   UNL     1     -39.347  49.522 -52.734  1.00  0.00    -0.289 N 
HETATM   15  H   UNL     1     -39.011  48.744 -52.178  1.00  0.00     0.188 HD
HETATM   16  C   UNL     1     -39.618  50.796 -52.326  1.00  0.00     0.123 A 
ENDBRANCH   7  11
ENDBRANCH   2   5
BRANCH   1  17
HETATM   17  C   UNL     1     -42.758  56.951 -57.452  1.00  0.00     0.141 C 
BRANCH  17  18
HETATM   18  C   UNL     1     -43.726  56.422 -58.492  1.00  0.00    -0.049 A 
HETATM   19  C   UNL     1     -44.864  57.140 -58.900  1.00  0.00     0.014 A 
HETATM   20  C   UNL     1     -45.741  56.631 -59.870  1.00  0.00    -0.058 A 
HETATM   21  C   UNL     1     -45.498  55.349 -60.381  1.00  0.00     0.007 A 
HETATM   22  C   UNL     1     -44.395  54.608 -59.959  1.00  0.00     0.001 A 
HETATM   23  C   UNL     1     -43.511  55.143 -59.023  1.00  0.00     0.007 A 
BRANCH  20  24
HETATM   24  C   UNL     1     -46.965  57.381 -60.346  1.00  0.00     0.034 C 
HETATM   25  C   UNL     1     -47.782  56.713 -61.446  1.00  0.00     0.010 C 
ENDBRANCH  20  24
ENDBRANCH  17  18
ENDBRANCH   1  17
TORSDOF 5
ENDMDL
MODEL 3
REMARK VINA RESULT:      -8.1      1.392      2.091
REMARK  5 active torsions:
REMARK  status: ('A' for Active; 'I' for Inactive)
REMARK    1  A    between atoms: C_2  and  C_3 
REMARK    2  A    between atoms: C_5  and  C_6 
REMARK    3  A    between atoms: C_6  and  C_7 
REMARK       I    between atoms: C_7  and  N_8 
REMARK    4  A    between atoms: N_8  and  C_9 
REMARK    5  A    between atoms: C_11  and  C_12 
ROOT
HETATM    1  C   UNL     1     -42.223  55.823 -54.324  1.00  0.00     0.226 C 
HETATM    2  N   UNL     1     -41.831  56.712 -55.313  1.00  0.00    -0.327 N 
HETATM    3  O   UNL     1     -43.333  55.317 -54.196  1.00  0.00    -0.273 OA
HETATM    4  H   UNL     1     -40.870  57.031 -55.272  1.00  0.00     0.169 HD
ENDROOT
BRANCH   2   5
HETATM    5  C   UNL     1     -42.577  57.136 -56.434  1.00  0.00     0.035 A 
HETATM    6  C   UNL     1     -43.073  56.270 -57.414  1.00  0.00     0.042 A 
HETATM    7  C   UNL     1     -43.773  56.755 -58.533  1.00  0.00    -0.021 A 
HETATM    8  C   UNL     1     -43.984  58.135 -58.644  1.00  0.00     0.012 A 
HETATM    9  C   UNL     1     -43.505  59.007 -57.665  1.00  0.00     0.003 A 
HETATM   10  C   UNL     1     -42.802  58.509 -56.568  1.00  0.00     0.029 A 
BRANCH   7  11
HETATM   11  C   UNL     1     -44.267  55.853 -59.568  1.00  0.00     0.010 A 
HETATM   12  C   UNL     1     -44.761  56.113 -60.870  1.00  0.00     0.152 A 
HETATM   13  N   UNL     1     -45.108  55.004 -61.530  1.00  0.00    -0.187 NA
HETATM   14  N   UNL     1     -44.842  54.024 -60.652  1.00  0.00    -0.289 N 
HETATM   15  H   UNL     1     -45.028  53.066 -60.927  1.00  0.00     0.188 HD
HETATM   16  C   UNL     1     -44.333  54.478 -59.470  1.00  0.00     0.123 A 
ENDBRANCH   7  11
ENDBRANCH   2   5
BRANCH   1  17
HETATM   17  C   UNL     1     -41.109  55.502 -53.338  1.00  0.00     0.141 C 
BRANCH  17  18
HETATM   18  C   UNL     1     -40.675  54.051 -53.291  1.00  0.00    -0.049 A 
HETATM   19  C   UNL     1     -40.491  53.355 -52.083  1.00  0.00     0.014 A 
HETATM   20  C   UNL     1     -40.095  52.009 -52.065  1.00  0.00    -0.058 A 
HETATM   21  C   UNL     1     -39.816  51.381 -53.287  1.00  0.00     0.007 A 
HETATM   22  C   UNL     1     -39.956  52.068 -54.493  1.00  0.00     0.001 A 
HETATM   23  C   UNL     1     -40.388  53.393 -54.495  1.00  0.00     0.007 A 
BRANCH  20  24
HETATM   24  C   UNL     1     -39.904  51.224 -50.787  1.00  0.00     0.034 C 
HETATM   25  C   UNL     1     -39.540  49.752 -50.945  1.00  0.00     0.010 C 
ENDBRANCH  20  24
ENDBRANCH  17  18
ENDBRANCH   1  17
TORSDOF 5
ENDMDL
MODEL 4
REMARK VINA RESULT:      -8.1      2.694      8.926
REMARK  5 active torsions:
REMARK  status: ('A' for Active; 'I' for Inactive)
REMARK    1  A    between atoms: C_2  and  C_3 
REMARK    2  A    between atoms: C_5  and  C_6 
REMARK    3  A    between atoms: C_6  and  C_7 
REMARK       I    between atoms: C_7  and  N_8 
REMARK    4  A    between atoms: N_8  and  C_9 
REMARK    5  A    between atoms: C_11  and  C_12 
ROOT
HETATM    1  C   UNL     1     -42.510  56.717 -54.979  1.00  0.00     0.226 C 
HETATM    2  N   UNL     1     -41.358  55.946 -54.992  1.00  0.00    -0.327 N 
HETATM    3  O   UNL     1     -43.490  56.552 -54.259  1.00  0.00    -0.273 OA
HETATM    4  H   UNL     1     -40.641  56.225 -55.652  1.00  0.00     0.169 HD
ENDROOT
BRANCH   2   5
HETATM    5  C   UNL     1     -41.019  54.890 -54.119  1.00  0.00     0.035 A 
HETATM    6  C   UNL     1     -41.069  54.983 -52.724  1.00  0.00     0.042 A 
HETATM    7  C   UNL     1     -40.677  53.911 -51.904  1.00  0.00    -0.021 A 
HETATM    8  C   UNL     1     -40.246  52.726 -52.512  1.00  0.00     0.012 A 
HETATM    9  C   UNL     1     -40.204  52.616 -53.903  1.00  0.00     0.003 A 
HETATM   10  C   UNL     1     -40.586  53.695 -54.701  1.00  0.00     0.029 A 
BRANCH   7  11
HETATM   11  C   UNL     1     -40.705  54.020 -50.450  1.00  0.00     0.010 A 
HETATM   12  C   UNL     1     -41.010  55.115 -49.604  1.00  0.00     0.152 A 
HETATM   13  N   UNL     1     -40.939  54.810 -48.305  1.00  0.00    -0.187 NA
HETATM   14  N   UNL     1     -40.583  53.516 -48.308  1.00  0.00    -0.289 N 
HETATM   15  H   UNL     1     -40.461  53.047 -47.418  1.00  0.00     0.188 HD
HETATM   16  C   UNL     1     -40.438  52.997 -49.562  1.00  0.00     0.123 A 
ENDBRANCH   7  11
ENDBRANCH   2   5
BRANCH   1  17
HETATM   17  C   UNL     1     -42.477  57.853 -55.991  1.00  0.00     0.141 C 
BRANCH  17  18
HETATM   18  C   UNL     1     -42.575  57.437 -57.445  1.00  0.00    -0.049 A 
HETATM   19  C   UNL     1     -43.310  56.314 -57.863  1.00  0.00     0.014 A 
HETATM   20  C   UNL     1     -43.390  55.953 -59.216  1.00  0.00    -0.058 A 
HETATM   21  C   UNL     1     -42.660  56.702 -60.150  1.00  0.00     0.007 A 
HETATM   22  C   UNL     1     -41.895  57.797 -59.747  1.00  0.00     0.001 A 
HETATM   23  C   UNL     1     -41.857  58.165 -58.404  1.00  0.00     0.007 A 
BRANCH  20  24
HETATM   24  C   UNL     1     -44.185  54.763 -59.705  1.00  0.00     0.034 C 
HETATM   25  C   UNL     1     -44.987  54.965 -60.985  1.00  0.00     0.010 C 
ENDBRANCH  20  24
ENDBRANCH  17  18
ENDBRANCH   1  17
TORSDOF 5
ENDMDL
MODEL 5
REMARK VINA RESULT:      -8.1      2.110      3.263
REMARK  5 active torsions:
REMARK  status: ('A' for Active; 'I' for Inactive)
REMARK    1  A    between atoms: C_2  and  C_3 
REMARK    2  A    between atoms: C_5  and  C_6 
REMARK    3  A    between atoms: C_6  and  C_7 
REMARK       I    between atoms: C_7  and  N_8 
REMARK    4  A    between atoms: N_8  and  C_9 
REMARK    5  A    between atoms: C_11  and  C_12 
ROOT
HETATM    1  C   UNL     1     -42.037  56.043 -52.767  1.00  0.00     0.226 C 
HETATM    2  N   UNL     1     -43.167  55.776 -53.525  1.00  0.00    -0.327 N 
HETATM    3  O   UNL     1     -41.170  56.874 -53.018  1.00  0.00    -0.273 OA
HETATM    4  H   UNL     1     -43.784  55.056 -53.168  1.00  0.00     0.169 HD
ENDROOT
BRANCH   2   5
HETATM    5  C   UNL     1     -43.616  56.464 -54.672  1.00  0.00     0.035 A 
HETATM    6  C   UNL     1     -43.012  56.364 -55.930  1.00  0.00     0.042 A 
HETATM    7  C   UNL     1     -43.478  57.110 -57.027  1.00  0.00    -0.021 A 
HETATM    8  C   UNL     1     -44.583  57.951 -56.845  1.00  0.00     0.012 A 
HETATM    9  C   UNL     1     -45.202  58.049 -55.598  1.00  0.00     0.003 A 
HETATM   10  C   UNL     1     -44.718  57.311 -54.517  1.00  0.00     0.029 A 
BRANCH   7  11
HETATM   11  C   UNL     1     -42.830  57.024 -58.331  1.00  0.00     0.010 A 
HETATM   12  C   UNL     1     -42.932  56.054 -59.359  1.00  0.00     0.152 A 
HETATM   13  N   UNL     1     -42.181  56.340 -60.426  1.00  0.00    -0.187 NA
HETATM   14  N   UNL     1     -41.588  57.495 -60.088  1.00  0.00    -0.289 N 
HETATM   15  H   UNL     1     -40.952  57.923 -60.752  1.00  0.00     0.188 HD
HETATM   16  C   UNL     1     -41.947  57.948 -58.852  1.00  0.00     0.123 A 
ENDBRANCH   7  11
ENDBRANCH   2   5
BRANCH   1  17
HETATM   17  C   UNL     1     -41.936  55.174 -51.523  1.00  0.00     0.141 C 
BRANCH  17  18
HETATM   18  C   UNL     1     -41.150  53.888 -51.684  1.00  0.00    -0.049 A 
HETATM   19  C   UNL     1     -40.902  53.306 -52.940  1.00  0.00     0.014 A 
HETATM   20  C   UNL     1     -40.166  52.118 -53.064  1.00  0.00    -0.058 A 
HETATM   21  C   UNL     1     -39.736  51.476 -51.894  1.00  0.00     0.007 A 
HETATM   22  C   UNL     1     -40.007  52.020 -50.639  1.00  0.00     0.001 A 
HETATM   23  C   UNL     1     -40.706  53.221 -50.534  1.00  0.00     0.007 A 
BRANCH  20  24
HETATM   24  C   UNL     1     -39.864  51.472 -54.397  1.00  0.00     0.034 C 
HETATM   25  C   UNL     1     -39.784  49.950 -54.409  1.00  0.00     0.010 C 
ENDBRANCH  20  24
ENDBRANCH  17  18
ENDBRANCH   1  17
TORSDOF 5
ENDMDL
MODEL 6
REMARK VINA RESULT:      -8.0      2.818      4.266
REMARK  5 active torsions:
REMARK  status: ('A' for Active; 'I' for Inactive)
REMARK    1  A    between atoms: C_2  and  C_3 
REMARK    2  A    between atoms: C_5  and  C_6 
REMARK    3  A    between atoms: C_6  and  C_7 
REMARK       I    between atoms: C_7  and  N_8 
REMARK    4  A    between atoms: N_8  and  C_9 
REMARK    5  A    between atoms: C_11  and  C_12 
ROOT
HETATM    1  C   UNL     1     -42.505  55.196 -55.780  1.00  0.00     0.226 C 
HETATM    2  N   UNL     1     -43.307  55.267 -56.908  1.00  0.00    -0.327 N 
HETATM    3  O   UNL     1     -41.481  55.838 -55.571  1.00  0.00    -0.273 OA
HETATM    4  H   UNL     1     -44.123  54.666 -56.916  1.00  0.00     0.169 HD
ENDROOT
BRANCH   2   5
HETATM    5  C   UNL     1     -43.184  56.158 -57.996  1.00  0.00     0.035 A 
HETATM    6  C   UNL     1     -42.616  57.433 -57.901  1.00  0.00     0.042 A 
HETATM    7  C   UNL     1     -42.561  58.295 -59.011  1.00  0.00    -0.021 A 
HETATM    8  C   UNL     1     -43.074  57.845 -60.234  1.00  0.00     0.012 A 
HETATM    9  C   UNL     1     -43.631  56.571 -60.344  1.00  0.00     0.003 A 
HETATM   10  C   UNL     1     -43.688  55.733 -59.229  1.00  0.00     0.029 A 
BRANCH   7  11
HETATM   11  C   UNL     1     -41.992  59.634 -58.903  1.00  0.00     0.010 A 
HETATM   12  C   UNL     1     -41.411  60.312 -57.803  1.00  0.00     0.152 A 
HETATM   13  N   UNL     1     -40.985  61.541 -58.111  1.00  0.00    -0.187 NA
HETATM   14  N   UNL     1     -41.294  61.661 -59.411  1.00  0.00    -0.289 N 
HETATM   15  H   UNL     1     -41.066  62.528 -59.883  1.00  0.00     0.188 HD
HETATM   16  C   UNL     1     -41.890  60.548 -59.931  1.00  0.00     0.123 A 
ENDBRANCH   7  11
ENDBRANCH   2   5
BRANCH   1  17
HETATM   17  C   UNL     1     -43.013  54.196 -54.752  1.00  0.00     0.141 C 
BRANCH  17  18
HETATM   18  C   UNL     1     -41.968  53.643 -53.804  1.00  0.00    -0.049 A 
HETATM   19  C   UNL     1     -41.147  52.552 -54.136  1.00  0.00     0.014 A 
HETATM   20  C   UNL     1     -40.182  52.063 -53.242  1.00  0.00    -0.058 A 
HETATM   21  C   UNL     1     -40.096  52.645 -51.970  1.00  0.00     0.007 A 
HETATM   22  C   UNL     1     -40.930  53.704 -51.611  1.00  0.00     0.001 A 
HETATM   23  C   UNL     1     -41.857  54.203 -52.523  1.00  0.00     0.007 A 
BRANCH  20  24
HETATM   24  C   UNL     1     -39.269  50.903 -53.571  1.00  0.00     0.034 C 
HETATM   25  C   UNL     1     -39.777  49.919 -54.619  1.00  0.00     0.010 C 
ENDBRANCH  20  24
ENDBRANCH  17  18
ENDBRANCH   1  17
TORSDOF 5
ENDMDL
MODEL 7
REMARK VINA RESULT:      -7.9      2.884      8.284
REMARK  5 active torsions:
REMARK  status: ('A' for Active; 'I' for Inactive)
REMARK    1  A    between atoms: C_2  and  C_3 
REMARK    2  A    between atoms: C_5  and  C_6 
REMARK    3  A    between atoms: C_6  and  C_7 
REMARK       I    between atoms: C_7  and  N_8 
REMARK    4  A    between atoms: N_8  and  C_9 
REMARK    5  A    between atoms: C_11  and  C_12 
ROOT
HETATM    1  C   UNL     1     -42.557  56.558 -54.554  1.00  0.00     0.226 C 
HETATM    2  N   UNL     1     -41.314  56.006 -54.288  1.00  0.00    -0.327 N 
HETATM    3  O   UNL     1     -43.630  56.206 -54.073  1.00  0.00    -0.273 OA
HETATM    4  H   UNL     1     -40.527  56.422 -54.772  1.00  0.00     0.169 HD
ENDROOT
BRANCH   2   5
HETATM    5  C   UNL     1     -41.000  55.010 -53.339  1.00  0.00     0.035 A 
HETATM    6  C   UNL     1     -40.626  53.703 -53.672  1.00  0.00     0.042 A 
HETATM    7  C   UNL     1     -40.367  52.740 -52.681  1.00  0.00    -0.021 A 
HETATM    8  C   UNL     1     -40.473  53.118 -51.337  1.00  0.00     0.012 A 
HETATM    9  C   UNL     1     -40.833  54.421 -50.992  1.00  0.00     0.003 A 
HETATM   10  C   UNL     1     -41.098  55.361 -51.989  1.00  0.00     0.029 A 
BRANCH   7  11
HETATM   11  C   UNL     1     -40.003  51.372 -53.031  1.00  0.00     0.010 A 
HETATM   12  C   UNL     1     -40.002  50.699 -54.278  1.00  0.00     0.152 A 
HETATM   13  N   UNL     1     -39.580  49.434 -54.190  1.00  0.00    -0.187 NA
HETATM   14  N   UNL     1     -39.312  49.285 -52.884  1.00  0.00    -0.289 N 
HETATM   15  H   UNL     1     -38.970  48.387 -52.561  1.00  0.00     0.188 HD
HETATM   16  C   UNL     1     -39.541  50.414 -52.151  1.00  0.00     0.123 A 
ENDBRANCH   7  11
ENDBRANCH   2   5
BRANCH   1  17
HETATM   17  C   UNL     1     -42.498  57.702 -55.556  1.00  0.00     0.141 C 
BRANCH  17  18
HETATM   18  C   UNL     1     -42.604  57.302 -57.013  1.00  0.00    -0.049 A 
HETATM   19  C   UNL     1     -43.237  56.117 -57.429  1.00  0.00     0.014 A 
HETATM   20  C   UNL     1     -43.327  55.772 -58.786  1.00  0.00    -0.058 A 
HETATM   21  C   UNL     1     -42.708  56.606 -59.728  1.00  0.00     0.007 A 
HETATM   22  C   UNL     1     -42.044  57.766 -59.329  1.00  0.00     0.001 A 
HETATM   23  C   UNL     1     -41.996  58.114 -57.981  1.00  0.00     0.007 A 
BRANCH  20  24
HETATM   24  C   UNL     1     -44.014  54.516 -59.271  1.00  0.00     0.034 C 
HETATM   25  C   UNL     1     -44.914  54.666 -60.493  1.00  0.00     0.010 C 
ENDBRANCH  20  24
ENDBRANCH  17  18
ENDBRANCH   1  17
TORSDOF 5
ENDMDL
MODEL 8
REMARK VINA RESULT:      -7.8      2.892      8.394
REMARK  5 active torsions:
REMARK  status: ('A' for Active; 'I' for Inactive)
REMARK    1  A    between atoms: C_2  and  C_3 
REMARK    2  A    between atoms: C_5  and  C_6 
REMARK    3  A    between atoms: C_6  and  C_7 
REMARK       I    between atoms: C_7  and  N_8 
REMARK    4  A    between atoms: N_8  and  C_9 
REMARK    5  A    between atoms: C_11  and  C_12 
ROOT
HETATM    1  C   UNL     1     -42.630  56.515 -54.921  1.00  0.00     0.226 C 
HETATM    2  N   UNL     1     -41.374  56.107 -54.503  1.00  0.00    -0.327 N 
HETATM    3  O   UNL     1     -43.705  56.019 -54.596  1.00  0.00    -0.273 OA
HETATM    4  H   UNL     1     -40.588  56.633 -54.867  1.00  0.00     0.169 HD
ENDROOT
BRANCH   2   5
HETATM    5  C   UNL     1     -41.066  55.121 -53.541  1.00  0.00     0.035 A 
HETATM    6  C   UNL     1     -40.691  53.811 -53.859  1.00  0.00     0.042 A 
HETATM    7  C   UNL     1     -40.438  52.857 -52.856  1.00  0.00    -0.021 A 
HETATM    8  C   UNL     1     -40.551  53.249 -51.517  1.00  0.00     0.012 A 
HETATM    9  C   UNL     1     -40.912  54.557 -51.187  1.00  0.00     0.003 A 
HETATM   10  C   UNL     1     -41.170  55.486 -52.196  1.00  0.00     0.029 A 
BRANCH   7  11
HETATM   11  C   UNL     1     -40.073  51.485 -53.190  1.00  0.00     0.010 A 
HETATM   12  C   UNL     1     -40.089  50.792 -54.425  1.00  0.00     0.152 A 
HETATM   13  N   UNL     1     -39.660  49.531 -54.325  1.00  0.00    -0.187 NA
HETATM   14  N   UNL     1     -39.370  49.405 -53.021  1.00  0.00    -0.289 N 
HETATM   15  H   UNL     1     -39.019  48.513 -52.689  1.00  0.00     0.188 HD
HETATM   16  C   UNL     1     -39.592  50.544 -52.303  1.00  0.00     0.123 A 
ENDBRANCH   7  11
ENDBRANCH   2   5
BRANCH   1  17
HETATM   17  C   UNL     1     -42.583  57.695 -55.881  1.00  0.00     0.141 C 
BRANCH  17  18
HETATM   18  C   UNL     1     -42.579  57.341 -57.354  1.00  0.00    -0.049 A 
HETATM   19  C   UNL     1     -42.236  58.269 -58.354  1.00  0.00     0.014 A 
HETATM   20  C   UNL     1     -42.234  57.915 -59.712  1.00  0.00    -0.058 A 
HETATM   21  C   UNL     1     -42.652  56.624 -60.064  1.00  0.00     0.007 A 
HETATM   22  C   UNL     1     -43.033  55.704 -59.088  1.00  0.00     0.001 A 
HETATM   23  C   UNL     1     -42.992  56.059 -57.741  1.00  0.00     0.007 A 
BRANCH  20  24
HETATM   24  C   UNL     1     -41.854  58.879 -60.813  1.00  0.00     0.034 C 
HETATM   25  C   UNL     1     -41.913  60.362 -60.463  1.00  0.00     0.010 C 
ENDBRANCH  20  24
ENDBRANCH  17  18
ENDBRANCH   1  17
TORSDOF 5
ENDMDL
MODEL 9
REMARK VINA RESULT:      -7.7      2.613      3.547
REMARK  5 active torsions:
REMARK  status: ('A' for Active; 'I' for Inactive)
REMARK    1  A    between atoms: C_2  and  C_3 
REMARK    2  A    between atoms: C_5  and  C_6 
REMARK    3  A    between atoms: C_6  and  C_7 
REMARK       I    between atoms: C_7  and  N_8 
REMARK    4  A    between atoms: N_8  and  C_9 
REMARK    5  A    between atoms: C_11  and  C_12 
ROOT
HETATM    1  C   UNL     1     -42.235  54.920 -55.528  1.00  0.00     0.226 C 
HETATM    2  N   UNL     1     -43.164  55.082 -56.543  1.00  0.00    -0.327 N 
HETATM    3  O   UNL     1     -41.109  55.407 -55.484  1.00  0.00    -0.273 OA
HETATM    4  H   UNL     1     -44.052  54.611 -56.416  1.00  0.00     0.169 HD
ENDROOT
BRANCH   2   5
HETATM    5  C   UNL     1     -43.064  55.918 -57.676  1.00  0.00     0.035 A 
HETATM    6  C   UNL     1     -42.562  57.223 -57.642  1.00  0.00     0.042 A 
HETATM    7  C   UNL     1     -42.528  58.025 -58.797  1.00  0.00    -0.021 A 
HETATM    8  C   UNL     1     -42.992  57.484 -60.002  1.00  0.00     0.012 A 
HETATM    9  C   UNL     1     -43.482  56.178 -60.051  1.00  0.00     0.003 A 
HETATM   10  C   UNL     1     -43.520  55.401 -58.893  1.00  0.00     0.029 A 
BRANCH   7  11
HETATM   11  C   UNL     1     -42.029  59.395 -58.753  1.00  0.00     0.010 A 
HETATM   12  C   UNL     1     -41.466  60.147 -57.693  1.00  0.00     0.152 A 
HETATM   13  N   UNL     1     -41.111  61.383 -58.057  1.00  0.00    -0.187 NA
HETATM   14  N   UNL     1     -41.448  61.433 -59.355  1.00  0.00    -0.289 N 
HETATM   15  H   UNL     1     -41.274  62.292 -59.865  1.00  0.00     0.188 HD
HETATM   16  C   UNL     1     -41.993  60.271 -59.819  1.00  0.00     0.123 A 
ENDBRANCH   7  11
ENDBRANCH   2   5
BRANCH   1  17
HETATM   17  C   UNL     1     -42.737  54.033 -54.398  1.00  0.00     0.141 C 
BRANCH  17  18
HETATM   18  C   UNL     1     -41.663  53.372 -53.558  1.00  0.00    -0.049 A 
HETATM   19  C   UNL     1     -41.348  53.804 -52.257  1.00  0.00     0.014 A 
HETATM   20  C   UNL     1     -40.353  53.172 -51.496  1.00  0.00    -0.058 A 
HETATM   21  C   UNL     1     -39.622  52.132 -52.088  1.00  0.00     0.007 A 
HETATM   22  C   UNL     1     -39.896  51.717 -53.391  1.00  0.00     0.001 A 
HETATM   23  C   UNL     1     -40.913  52.330 -54.119  1.00  0.00     0.007 A 
BRANCH  20  24
HETATM   24  C   UNL     1     -39.999  53.597 -50.089  1.00  0.00     0.034 C 
HETATM   25  C   UNL     1     -40.929  54.613 -49.436  1.00  0.00     0.010 C 
ENDBRANCH  20  24
ENDBRANCH  17  18
ENDBRANCH   1  17
TORSDOF 5
ENDMDL
MODEL 10
REMARK VINA RESULT:      -7.6      3.603      5.633
REMARK  5 active torsions:
REMARK  status: ('A' for Active; 'I' for Inactive)
REMARK    1  A    between atoms: C_2  and  C_3 
REMARK    2  A    between atoms: C_5  and  C_6 
REMARK    3  A    between atoms: C_6  and  C_7 
REMARK       I    between atoms: C_7  and  N_8 
REMARK    4  A    between atoms: N_8  and  C_9 
REMARK    5  A    between atoms: C_11  and  C_12 
ROOT
HETATM    1  C   UNL     1     -42.384  54.886 -54.751  1.00  0.00     0.226 C 
HETATM    2  N   UNL     1     -42.156  56.238 -54.545  1.00  0.00    -0.327 N 
HETATM    3  O   UNL     1     -43.466  54.312 -54.692  1.00  0.00    -0.273 OA
HETATM    4  H   UNL     1     -41.196  56.549 -54.636  1.00  0.00     0.169 HD
ENDROOT
BRANCH   2   5
HETATM    5  C   UNL     1     -43.117  57.251 -54.335  1.00  0.00     0.035 A 
HETATM    6  C   UNL     1     -43.431  57.781 -53.079  1.00  0.00     0.042 A 
HETATM    7  C   UNL     1     -44.430  58.758 -52.926  1.00  0.00    -0.021 A 
HETATM    8  C   UNL     1     -45.103  59.212 -54.068  1.00  0.00     0.012 A 
HETATM    9  C   UNL     1     -44.789  58.700 -55.327  1.00  0.00     0.003 A 
HETATM   10  C   UNL     1     -43.802  57.722 -55.459  1.00  0.00     0.029 A 
BRANCH   7  11
HETATM   11  C   UNL     1     -44.775  59.291 -51.613  1.00  0.00     0.010 A 
HETATM   12  C   UNL     1     -45.949  59.154 -50.832  1.00  0.00     0.152 A 
HETATM   13  N   UNL     1     -45.875  59.789 -49.658  1.00  0.00    -0.187 NA
HETATM   14  N   UNL     1     -44.653  60.342 -49.680  1.00  0.00    -0.289 N 
HETATM   15  H   UNL     1     -44.357  60.890 -48.881  1.00  0.00     0.188 HD
HETATM   16  C   UNL     1     -43.954  60.068 -50.821  1.00  0.00     0.123 A 
ENDBRANCH   7  11
ENDBRANCH   2   5
BRANCH   1  17
HETATM   17  C   UNL     1     -41.114  54.112 -55.071  1.00  0.00     0.141 C 
BRANCH  17  18
HETATM   18  C   UNL     1     -40.610  53.198 -53.972  1.00  0.00    -0.049 A 
HETATM   19  C   UNL     1     -40.586  53.583 -52.620  1.00  0.00     0.014 A 
HETATM   20  C   UNL     1     -40.121  52.716 -51.620  1.00  0.00    -0.058 A 
HETATM   21  C   UNL     1     -39.610  51.468 -52.004  1.00  0.00     0.007 A 
HETATM   22  C   UNL     1     -39.591  51.086 -53.345  1.00  0.00     0.001 A 
HETATM   23  C   UNL     1     -40.092  51.944 -54.323  1.00  0.00     0.007 A 
BRANCH  20  24
HETATM   24  C   UNL     1     -40.096  53.088 -50.154  1.00  0.00     0.034 C 
HETATM   25  C   UNL     1     -40.005  54.576 -49.836  1.00  0.00     0.010 C 
ENDBRANCH  20  24
ENDBRANCH  17  18
ENDBRANCH   1  17
TORSDOF 5
ENDMDL
