MODEL 1
REMARK VINA RESULT:      -7.9      0.000      0.000
REMARK  3 active torsions:
REMARK  status: ('A' for Active; 'I' for Inactive)
REMARK    1  A    between atoms: C_6  and  N_7 
REMARK       I    between atoms: N_7  and  C_8 
REMARK    2  A    between atoms: C_8  and  C_9 
REMARK    3  A    between atoms: C_9  and  C_10 
ROOT
HETATM    1  C   UNL     1     -43.049  57.079 -56.212  1.00  0.00     0.286 C 
HETATM    2  N   UNL     1     -42.218  56.580 -57.396  1.00  0.00    -0.056 N 
HETATM    3  H   UNL     1     -41.473  57.273 -57.544  1.00  0.00     0.278 HD
HETATM    4  H   UNL     1     -41.684  55.737 -57.093  1.00  0.00     0.278 HD
HETATM    5  C   UNL     1     -42.917  56.369 -58.704  1.00  0.00     0.209 C 
HETATM    6  C   UNL     1     -43.787  57.607 -59.018  1.00  0.00     0.115 C 
HETATM    7  N   UNL     1     -44.671  57.943 -57.905  1.00  0.00    -0.353 N 
HETATM    8  C   UNL     1     -44.316  57.864 -56.586  1.00  0.00     0.249 C 
HETATM    9  O   UNL     1     -45.029  58.380 -55.731  1.00  0.00    -0.271 OA
HETATM   10  C   UNL     1     -43.719  55.068 -58.692  1.00  0.00     0.035 C 
HETATM   11  C   UNL     1     -44.474  54.889 -60.008  1.00  0.00     0.002 C 
HETATM   12  C   UNL     1     -45.370  56.089 -60.309  1.00  0.00     0.002 C 
HETATM   13  C   UNL     1     -44.584  57.400 -60.309  1.00  0.00     0.027 C 
HETATM   14  H   UNL     1     -45.472  58.548 -58.075  1.00  0.00     0.163 HD
ENDROOT
BRANCH   1  15
HETATM   15  C   UNL     1     -43.407  55.953 -55.231  1.00  0.00     0.146 C 
BRANCH  15  16
HETATM   16  C   UNL     1     -42.150  55.263 -54.762  1.00  0.00     0.224 C 
HETATM   17  N   UNL     1     -42.358  54.016 -54.221  1.00  0.00    -0.327 N 
HETATM   18  H   UNL     1     -43.305  53.650 -54.217  1.00  0.00     0.169 HD
HETATM   19  O   UNL     1     -41.076  55.843 -54.923  1.00  0.00    -0.273 OA
BRANCH  17  20
HETATM   20  C   UNL     1     -41.392  53.166 -53.634  1.00  0.00     0.036 A 
HETATM   21  C   UNL     1     -40.863  52.034 -54.257  1.00  0.00     0.053 A 
HETATM   22  C   UNL     1     -39.893  51.265 -53.607  1.00  0.00     0.036 A 
HETATM   23  C   UNL     1     -39.442  51.611 -52.337  1.00  0.00     0.024 A 
HETATM   24 CL   UNL     1     -39.245  49.876 -54.393  1.00  0.00    -0.084 Cl
HETATM   25  C   UNL     1     -39.967  52.736 -51.706  1.00  0.00     0.004 A 
HETATM   26  C   UNL     1     -40.938  53.507 -52.352  1.00  0.00     0.029 A 
ENDBRANCH  17  20
ENDBRANCH  15  16
ENDBRANCH   1  15
TORSDOF 3
ENDMDL
MODEL 2
REMARK VINA RESULT:      -7.8      1.510      1.836
REMARK  3 active torsions:
REMARK  status: ('A' for Active; 'I' for Inactive)
REMARK    1  A    between atoms: C_6  and  N_7 
REMARK       I    between atoms: N_7  and  C_8 
REMARK    2  A    between atoms: C_8  and  C_9 
REMARK    3  A    between atoms: C_9  and  C_10 
ROOT
HETATM    1  C   UNL     1     -42.803  56.230 -57.001  1.00  0.00     0.286 C 
HETATM    2  N   UNL     1     -42.389  56.102 -58.468  1.00  0.00    -0.056 N 
HETATM    3  H   UNL     1     -41.648  56.798 -58.625  1.00  0.00     0.278 HD
HETATM    4  H   UNL     1     -41.880  55.201 -58.591  1.00  0.00     0.278 HD
HETATM    5  C   UNL     1     -43.441  56.307 -59.515  1.00  0.00     0.209 C 
HETATM    6  C   UNL     1     -44.234  57.593 -59.190  1.00  0.00     0.115 C 
HETATM    7  N   UNL     1     -44.735  57.587 -57.818  1.00  0.00    -0.353 N 
HETATM    8  C   UNL     1     -44.037  57.108 -56.743  1.00  0.00     0.249 C 
HETATM    9  O   UNL     1     -44.429  57.349 -55.605  1.00  0.00    -0.271 OA
HETATM   10  C   UNL     1     -44.335  55.074 -59.639  1.00  0.00     0.035 C 
HETATM   11  C   UNL     1     -45.440  55.311 -60.667  1.00  0.00     0.002 C 
HETATM   12  C   UNL     1     -46.258  56.557 -60.333  1.00  0.00     0.002 C 
HETATM   13  C   UNL     1     -45.375  57.797 -60.191  1.00  0.00     0.027 C 
HETATM   14  H   UNL     1     -45.486  58.225 -57.563  1.00  0.00     0.163 HD
ENDROOT
BRANCH   1  15
HETATM   15  C   UNL     1     -42.987  54.864 -56.323  1.00  0.00     0.146 C 
BRANCH  15  16
HETATM   16  C   UNL     1     -41.863  54.623 -55.345  1.00  0.00     0.224 C 
HETATM   17  N   UNL     1     -41.922  53.407 -54.706  1.00  0.00    -0.327 N 
HETATM   18  H   UNL     1     -42.669  52.769 -54.963  1.00  0.00     0.169 HD
HETATM   19  O   UNL     1     -41.001  55.495 -55.225  1.00  0.00    -0.273 OA
BRANCH  17  20
HETATM   20  C   UNL     1     -41.060  52.931 -53.691  1.00  0.00     0.036 A 
HETATM   21  C   UNL     1     -40.898  53.547 -52.449  1.00  0.00     0.053 A 
HETATM   22  C   UNL     1     -40.039  52.990 -51.497  1.00  0.00     0.036 A 
HETATM   23  C   UNL     1     -39.334  51.820 -51.769  1.00  0.00     0.024 A 
HETATM   24 CL   UNL     1     -39.857  53.758 -49.966  1.00  0.00    -0.084 Cl
HETATM   25  C   UNL     1     -39.486  51.202 -53.006  1.00  0.00     0.004 A 
HETATM   26  C   UNL     1     -40.343  51.756 -53.962  1.00  0.00     0.029 A 
ENDBRANCH  17  20
ENDBRANCH  15  16
ENDBRANCH   1  15
TORSDOF 3
ENDMDL
MODEL 3
REMARK VINA RESULT:      -7.6      3.134      5.053
REMARK  3 active torsions:
REMARK  status: ('A' for Active; 'I' for Inactive)
REMARK    1  A    between atoms: C_6  and  N_7 
REMARK       I    between atoms: N_7  and  C_8 
REMARK    2  A    between atoms: C_8  and  C_9 
REMARK    3  A    between atoms: C_9  and  C_10 
ROOT
HETATM    1  C   UNL     1     -43.926  56.986 -54.102  1.00  0.00     0.286 C 
HETATM    2  N   UNL     1     -43.958  56.572 -52.630  1.00  0.00    -0.056 N 
HETATM    3  H   UNL     1     -44.948  56.447 -52.383  1.00  0.00     0.278 HD
HETATM    4  H   UNL     1     -43.583  55.602 -52.552  1.00  0.00     0.278 HD
HETATM    5  C   UNL     1     -43.346  57.500 -51.626  1.00  0.00     0.209 C 
HETATM    6  C   UNL     1     -43.852  58.935 -51.891  1.00  0.00     0.115 C 
HETATM    7  N   UNL     1     -43.653  59.331 -53.282  1.00  0.00    -0.353 N 
HETATM    8  C   UNL     1     -43.832  58.500 -54.355  1.00  0.00     0.249 C 
HETATM    9  O   UNL     1     -43.871  58.967 -55.489  1.00  0.00    -0.271 OA
HETATM   10  C   UNL     1     -41.821  57.395 -51.644  1.00  0.00     0.035 C 
HETATM   11  C   UNL     1     -41.202  58.384 -50.658  1.00  0.00     0.002 C 
HETATM   12  C   UNL     1     -41.662  59.814 -50.936  1.00  0.00     0.002 C 
HETATM   13  C   UNL     1     -43.186  59.932 -50.936  1.00  0.00     0.027 C 
HETATM   14  H   UNL     1     -43.685  60.319 -53.525  1.00  0.00     0.163 HD
ENDROOT
BRANCH   1  15
HETATM   15  C   UNL     1     -42.828  56.260 -54.893  1.00  0.00     0.146 C 
BRANCH  15  16
HETATM   16  C   UNL     1     -42.564  54.907 -54.277  1.00  0.00     0.224 C 
HETATM   17  N   UNL     1     -41.249  54.685 -53.945  1.00  0.00    -0.327 N 
HETATM   18  H   UNL     1     -40.584  55.439 -54.097  1.00  0.00     0.169 HD
HETATM   19  O   UNL     1     -43.521  54.152 -54.104  1.00  0.00    -0.273 OA
BRANCH  17  20
HETATM   20  C   UNL     1     -40.686  53.496 -53.425  1.00  0.00     0.036 A 
HETATM   21  C   UNL     1     -40.411  52.361 -54.190  1.00  0.00     0.053 A 
HETATM   22  C   UNL     1     -39.832  51.237 -53.592  1.00  0.00     0.036 A 
HETATM   23  C   UNL     1     -39.522  51.231 -52.235  1.00  0.00     0.024 A 
HETATM   24 CL   UNL     1     -39.492  49.847 -54.551  1.00  0.00    -0.084 Cl
HETATM   25  C   UNL     1     -39.797  52.357 -51.465  1.00  0.00     0.004 A 
HETATM   26  C   UNL     1     -40.377  53.482 -52.057  1.00  0.00     0.029 A 
ENDBRANCH  17  20
ENDBRANCH  15  16
ENDBRANCH   1  15
TORSDOF 3
ENDMDL
MODEL 4
REMARK VINA RESULT:      -7.6      3.090      3.587
REMARK  3 active torsions:
REMARK  status: ('A' for Active; 'I' for Inactive)
REMARK    1  A    between atoms: C_6  and  N_7 
REMARK       I    between atoms: N_7  and  C_8 
REMARK    2  A    between atoms: C_8  and  C_9 
REMARK    3  A    between atoms: C_9  and  C_10 
ROOT
HETATM    1  C   UNL     1     -40.996  56.901 -53.714  1.00  0.00     0.286 C 
HETATM    2  N   UNL     1     -41.810  56.298 -54.860  1.00  0.00    -0.056 N 
HETATM    3  H   UNL     1     -41.141  56.081 -55.611  1.00  0.00     0.278 HD
HETATM    4  H   UNL     1     -42.137  55.351 -54.571  1.00  0.00     0.278 HD
HETATM    5  C   UNL     1     -42.911  57.124 -55.450  1.00  0.00     0.209 C 
HETATM    6  C   UNL     1     -42.381  58.548 -55.730  1.00  0.00     0.115 C 
HETATM    7  N   UNL     1     -41.750  59.132 -54.551  1.00  0.00    -0.353 N 
HETATM    8  C   UNL     1     -40.964  58.437 -53.671  1.00  0.00     0.249 C 
HETATM    9  O   UNL     1     -40.289  59.044 -52.846  1.00  0.00    -0.271 OA
HETATM   10  C   UNL     1     -44.143  57.117 -54.545  1.00  0.00     0.035 C 
HETATM   11  C   UNL     1     -45.242  58.007 -55.123  1.00  0.00     0.002 C 
HETATM   12  C   UNL     1     -44.741  59.429 -55.366  1.00  0.00     0.002 C 
HETATM   13  C   UNL     1     -43.500  59.451 -56.258  1.00  0.00     0.027 C 
HETATM   14  H   UNL     1     -41.608  60.140 -54.513  1.00  0.00     0.163 HD
ENDROOT
BRANCH   1  15
HETATM   15  C   UNL     1     -41.418  56.353 -52.343  1.00  0.00     0.146 C 
BRANCH  15  16
HETATM   16  C   UNL     1     -41.533  54.849 -52.407  1.00  0.00     0.224 C 
HETATM   17  N   UNL     1     -40.372  54.181 -52.099  1.00  0.00    -0.327 N 
HETATM   18  H   UNL     1     -39.563  54.730 -51.822  1.00  0.00     0.169 HD
HETATM   19  O   UNL     1     -42.628  54.363 -52.691  1.00  0.00    -0.273 OA
BRANCH  17  20
HETATM   20  C   UNL     1     -40.150  52.784 -52.144  1.00  0.00     0.036 A 
HETATM   21  C   UNL     1     -40.002  52.053 -53.323  1.00  0.00     0.053 A 
HETATM   22  C   UNL     1     -39.763  50.676 -53.269  1.00  0.00     0.036 A 
HETATM   23  C   UNL     1     -39.669  50.016 -52.047  1.00  0.00     0.024 A 
HETATM   24 CL   UNL     1     -39.574  49.789 -54.733  1.00  0.00    -0.084 Cl
HETATM   25  C   UNL     1     -39.821  50.737 -50.866  1.00  0.00     0.004 A 
HETATM   26  C   UNL     1     -40.061  52.113 -50.915  1.00  0.00     0.029 A 
ENDBRANCH  17  20
ENDBRANCH  15  16
ENDBRANCH   1  15
TORSDOF 3
ENDMDL
MODEL 5
REMARK VINA RESULT:      -7.4      2.654      7.241
REMARK  3 active torsions:
REMARK  status: ('A' for Active; 'I' for Inactive)
REMARK    1  A    between atoms: C_6  and  N_7 
REMARK       I    between atoms: N_7  and  C_8 
REMARK    2  A    between atoms: C_8  and  C_9 
REMARK    3  A    between atoms: C_9  and  C_10 
ROOT
HETATM    1  C   UNL     1     -42.409  56.481 -52.914  1.00  0.00     0.286 C 
HETATM    2  N   UNL     1     -43.001  55.105 -53.223  1.00  0.00    -0.056 N 
HETATM    3  H   UNL     1     -43.924  55.075 -52.769  1.00  0.00     0.278 HD
HETATM    4  H   UNL     1     -43.247  55.070 -54.235  1.00  0.00     0.278 HD
HETATM    5  C   UNL     1     -42.234  53.896 -52.784  1.00  0.00     0.209 C 
HETATM    6  C   UNL     1     -41.795  54.081 -51.314  1.00  0.00     0.115 C 
HETATM    7  N   UNL     1     -41.097  55.348 -51.114  1.00  0.00    -0.353 N 
HETATM    8  C   UNL     1     -41.447  56.526 -51.715  1.00  0.00     0.249 C 
HETATM    9  O   UNL     1     -40.962  57.581 -51.320  1.00  0.00    -0.271 OA
HETATM   10  C   UNL     1     -41.060  53.623 -53.723  1.00  0.00     0.035 C 
HETATM   11  C   UNL     1     -40.248  52.424 -53.238  1.00  0.00     0.002 C 
HETATM   12  C   UNL     1     -39.773  52.613 -51.799  1.00  0.00     0.002 C 
HETATM   13  C   UNL     1     -40.935  52.902 -50.849  1.00  0.00     0.027 C 
HETATM   14  H   UNL     1     -40.526  55.473 -50.280  1.00  0.00     0.163 HD
ENDROOT
BRANCH   1  15
HETATM   15  C   UNL     1     -41.739  57.119 -54.140  1.00  0.00     0.146 C 
BRANCH  15  16
HETATM   16  C   UNL     1     -42.668  57.046 -55.327  1.00  0.00     0.224 C 
HETATM   17  N   UNL     1     -42.044  56.744 -56.514  1.00  0.00    -0.327 N 
HETATM   18  H   UNL     1     -41.046  56.560 -56.495  1.00  0.00     0.169 HD
HETATM   19  O   UNL     1     -43.871  57.228 -55.134  1.00  0.00    -0.273 OA
BRANCH  17  20
HETATM   20  C   UNL     1     -42.634  56.679 -57.798  1.00  0.00     0.036 A 
HETATM   21  C   UNL     1     -43.423  55.618 -58.244  1.00  0.00     0.053 A 
HETATM   22  C   UNL     1     -43.984  55.651 -59.524  1.00  0.00     0.036 A 
HETATM   23  C   UNL     1     -43.767  56.735 -60.371  1.00  0.00     0.024 A 
HETATM   24 CL   UNL     1     -44.962  54.337 -60.056  1.00  0.00    -0.084 Cl
HETATM   25  C   UNL     1     -42.977  57.795 -59.936  1.00  0.00     0.004 A 
HETATM   26  C   UNL     1     -42.413  57.766 -58.657  1.00  0.00     0.029 A 
ENDBRANCH  17  20
ENDBRANCH  15  16
ENDBRANCH   1  15
TORSDOF 3
ENDMDL
MODEL 6
REMARK VINA RESULT:      -7.4     14.770     16.110
REMARK  3 active torsions:
REMARK  status: ('A' for Active; 'I' for Inactive)
REMARK    1  A    between atoms: C_6  and  N_7 
REMARK       I    between atoms: N_7  and  C_8 
REMARK    2  A    between atoms: C_8  and  C_9 
REMARK    3  A    between atoms: C_9  and  C_10 
ROOT
HETATM    1  C   UNL     1     -36.472  41.401 -58.387  1.00  0.00     0.286 C 
HETATM    2  N   UNL     1     -36.141  39.913 -58.258  1.00  0.00    -0.056 N 
HETATM    3  H   UNL     1     -35.138  39.818 -58.466  1.00  0.00     0.278 HD
HETATM    4  H   UNL     1     -36.187  39.651 -57.250  1.00  0.00     0.278 HD
HETATM    5  C   UNL     1     -36.885  38.950 -59.130  1.00  0.00     0.209 C 
HETATM    6  C   UNL     1     -36.881  39.476 -60.583  1.00  0.00     0.115 C 
HETATM    7  N   UNL     1     -37.354  40.855 -60.660  1.00  0.00    -0.353 N 
HETATM    8  C   UNL     1     -37.056  41.826 -59.743  1.00  0.00     0.249 C 
HETATM    9  O   UNL     1     -37.297  43.002 -60.000  1.00  0.00    -0.271 OA
HETATM   10  C   UNL     1     -38.295  38.704 -58.592  1.00  0.00     0.035 C 
HETATM   11  C   UNL     1     -39.068  37.765 -59.517  1.00  0.00     0.002 C 
HETATM   12  C   UNL     1     -39.107  38.296 -60.949  1.00  0.00     0.002 C 
HETATM   13  C   UNL     1     -37.704  38.561 -61.496  1.00  0.00     0.027 C 
HETATM   14  H   UNL     1     -37.658  41.225 -61.559  1.00  0.00     0.163 HD
ENDROOT
BRANCH   1  15
HETATM   15  C   UNL     1     -37.378  41.901 -57.253  1.00  0.00     0.146 C 
BRANCH  15  16
HETATM   16  C   UNL     1     -36.934  41.302 -55.941  1.00  0.00     0.224 C 
HETATM   17  N   UNL     1     -35.881  41.958 -55.348  1.00  0.00    -0.327 N 
HETATM   18  H   UNL     1     -35.522  42.792 -55.803  1.00  0.00     0.169 HD
HETATM   19  O   UNL     1     -37.549  40.325 -55.512  1.00  0.00    -0.273 OA
BRANCH  17  20
HETATM   20  C   UNL     1     -35.203  41.592 -54.162  1.00  0.00     0.036 A 
HETATM   21  C   UNL     1     -34.131  40.700 -54.116  1.00  0.00     0.053 A 
HETATM   22  C   UNL     1     -33.506  40.416 -52.898  1.00  0.00     0.036 A 
HETATM   23  C   UNL     1     -33.940  41.013 -51.718  1.00  0.00     0.024 A 
HETATM   24 CL   UNL     1     -32.180  39.318 -52.861  1.00  0.00    -0.084 Cl
HETATM   25  C   UNL     1     -35.011  41.901 -51.753  1.00  0.00     0.004 A 
HETATM   26  C   UNL     1     -35.640  42.187 -52.969  1.00  0.00     0.029 A 
ENDBRANCH  17  20
ENDBRANCH  15  16
ENDBRANCH   1  15
TORSDOF 3
ENDMDL
MODEL 7
REMARK VINA RESULT:      -7.1      3.107      4.844
REMARK  3 active torsions:
REMARK  status: ('A' for Active; 'I' for Inactive)
REMARK    1  A    between atoms: C_6  and  N_7 
REMARK       I    between atoms: N_7  and  C_8 
REMARK    2  A    between atoms: C_8  and  C_9 
REMARK    3  A    between atoms: C_9  and  C_10 
ROOT
HETATM    1  C   UNL     1     -42.680  56.033 -55.034  1.00  0.00     0.286 C 
HETATM    2  N   UNL     1     -43.207  55.828 -53.613  1.00  0.00    -0.056 N 
HETATM    3  H   UNL     1     -44.217  55.654 -53.699  1.00  0.00     0.278 HD
HETATM    4  H   UNL     1     -42.851  54.916 -53.257  1.00  0.00     0.278 HD
HETATM    5  C   UNL     1     -43.015  56.938 -52.626  1.00  0.00     0.209 C 
HETATM    6  C   UNL     1     -43.444  58.273 -53.275  1.00  0.00     0.115 C 
HETATM    7  N   UNL     1     -42.787  58.484 -54.562  1.00  0.00    -0.353 N 
HETATM    8  C   UNL     1     -42.554  57.498 -55.482  1.00  0.00     0.249 C 
HETATM    9  O   UNL     1     -42.212  57.796 -56.622  1.00  0.00    -0.271 OA
HETATM   10  C   UNL     1     -41.576  56.966 -52.110  1.00  0.00     0.035 C 
HETATM   11  C   UNL     1     -41.371  58.134 -51.147  1.00  0.00     0.002 C 
HETATM   12  C   UNL     1     -41.754  59.465 -51.792  1.00  0.00     0.002 C 
HETATM   13  C   UNL     1     -43.185  59.448 -52.327  1.00  0.00     0.027 C 
HETATM   14  H   UNL     1     -42.765  59.422 -54.958  1.00  0.00     0.163 HD
ENDROOT
BRANCH   1  15
HETATM   15  C   UNL     1     -41.351  55.302 -55.278  1.00  0.00     0.146 C 
BRANCH  15  16
HETATM   16  C   UNL     1     -41.434  53.896 -54.734  1.00  0.00     0.224 C 
HETATM   17  N   UNL     1     -40.242  53.403 -54.260  1.00  0.00    -0.327 N 
HETATM   18  H   UNL     1     -39.432  54.017 -54.274  1.00  0.00     0.169 HD
HETATM   19  O   UNL     1     -42.532  53.338 -54.734  1.00  0.00    -0.273 OA
BRANCH  17  20
HETATM   20  C   UNL     1     -39.990  52.103 -53.762  1.00  0.00     0.036 A 
HETATM   21  C   UNL     1     -39.923  51.785 -52.404  1.00  0.00     0.053 A 
HETATM   22  C   UNL     1     -39.692  50.465 -52.005  1.00  0.00     0.036 A 
HETATM   23  C   UNL     1     -39.527  49.453 -52.946  1.00  0.00     0.024 A 
HETATM   24 CL   UNL     1     -39.619  50.087 -50.326  1.00  0.00    -0.084 Cl
HETATM   25  C   UNL     1     -39.588  49.762 -54.302  1.00  0.00     0.004 A 
HETATM   26  C   UNL     1     -39.817  51.081 -54.706  1.00  0.00     0.029 A 
ENDBRANCH  17  20
ENDBRANCH  15  16
ENDBRANCH   1  15
TORSDOF 3
ENDMDL
MODEL 8
REMARK VINA RESULT:      -7.1     14.882     16.560
REMARK  3 active torsions:
REMARK  status: ('A' for Active; 'I' for Inactive)
REMARK    1  A    between atoms: C_6  and  N_7 
REMARK       I    between atoms: N_7  and  C_8 
REMARK    2  A    between atoms: C_8  and  C_9 
REMARK    3  A    between atoms: C_9  and  C_10 
ROOT
HETATM    1  C   UNL     1     -36.729  40.832 -54.944  1.00  0.00     0.286 C 
HETATM    2  N   UNL     1     -37.854  41.619 -55.618  1.00  0.00    -0.056 N 
HETATM    3  H   UNL     1     -38.722  41.369 -55.126  1.00  0.00     0.278 HD
HETATM    4  H   UNL     1     -37.742  42.627 -55.378  1.00  0.00     0.278 HD
HETATM    5  C   UNL     1     -38.078  41.407 -57.084  1.00  0.00     0.209 C 
HETATM    6  C   UNL     1     -38.103  39.890 -57.378  1.00  0.00     0.115 C 
HETATM    7  N   UNL     1     -36.924  39.217 -56.841  1.00  0.00    -0.353 N 
HETATM    8  C   UNL     1     -36.345  39.514 -55.637  1.00  0.00     0.249 C 
HETATM    9  O   UNL     1     -35.509  38.755 -55.157  1.00  0.00    -0.271 OA
HETATM   10  C   UNL     1     -37.032  42.154 -57.910  1.00  0.00     0.035 C 
HETATM   11  C   UNL     1     -37.232  41.888 -59.401  1.00  0.00     0.002 C 
HETATM   12  C   UNL     1     -37.217  40.392 -59.710  1.00  0.00     0.002 C 
HETATM   13  C   UNL     1     -38.248  39.628 -58.880  1.00  0.00     0.027 C 
HETATM   14  H   UNL     1     -36.680  38.292 -57.190  1.00  0.00     0.163 HD
ENDROOT
BRANCH   1  15
HETATM   15  C   UNL     1     -35.472  41.683 -54.717  1.00  0.00     0.146 C 
BRANCH  15  16
HETATM   16  C   UNL     1     -35.043  41.588 -53.273  1.00  0.00     0.224 C 
HETATM   17  N   UNL     1     -34.238  40.510 -52.992  1.00  0.00    -0.327 N 
HETATM   18  H   UNL     1     -33.968  39.903 -53.761  1.00  0.00     0.169 HD
HETATM   19  O   UNL     1     -35.416  42.470 -52.498  1.00  0.00    -0.273 OA
BRANCH  17  20
HETATM   20  C   UNL     1     -33.743  40.117 -51.727  1.00  0.00     0.036 A 
HETATM   21  C   UNL     1     -34.510  39.482 -50.749  1.00  0.00     0.053 A 
HETATM   22  C   UNL     1     -33.928  39.109 -49.534  1.00  0.00     0.036 A 
HETATM   23  C   UNL     1     -32.583  39.363 -49.279  1.00  0.00     0.024 A 
HETATM   24 CL   UNL     1     -34.886  38.318 -48.341  1.00  0.00    -0.084 Cl
HETATM   25  C   UNL     1     -31.812  40.001 -50.247  1.00  0.00     0.004 A 
HETATM   26  C   UNL     1     -32.390  40.376 -51.463  1.00  0.00     0.029 A 
ENDBRANCH  17  20
ENDBRANCH  15  16
ENDBRANCH   1  15
TORSDOF 3
ENDMDL
MODEL 9
REMARK VINA RESULT:      -6.9      2.716      3.808
REMARK  3 active torsions:
REMARK  status: ('A' for Active; 'I' for Inactive)
REMARK    1  A    between atoms: C_6  and  N_7 
REMARK       I    between atoms: N_7  and  C_8 
REMARK    2  A    between atoms: C_8  and  C_9 
REMARK    3  A    between atoms: C_9  and  C_10 
ROOT
HETATM    1  C   UNL     1     -44.338  56.481 -58.734  1.00  0.00     0.286 C 
HETATM    2  N   UNL     1     -45.304  57.310 -57.884  1.00  0.00    -0.056 N 
HETATM    3  H   UNL     1     -46.039  56.666 -57.564  1.00  0.00     0.278 HD
HETATM    4  H   UNL     1     -44.825  57.565 -56.994  1.00  0.00     0.278 HD
HETATM    5  C   UNL     1     -45.972  58.487 -58.527  1.00  0.00     0.209 C 
HETATM    6  C   UNL     1     -46.542  58.058 -59.898  1.00  0.00     0.115 C 
HETATM    7  N   UNL     1     -45.529  57.408 -60.725  1.00  0.00    -0.353 N 
HETATM    8  C   UNL     1     -44.583  56.541 -60.250  1.00  0.00     0.249 C 
HETATM    9  O   UNL     1     -43.925  55.866 -61.035  1.00  0.00    -0.271 OA
HETATM   10  C   UNL     1     -45.011  59.672 -58.628  1.00  0.00     0.035 C 
HETATM   11  C   UNL     1     -45.680  60.848 -59.336  1.00  0.00     0.002 C 
HETATM   12  C   UNL     1     -46.212  60.448 -60.711  1.00  0.00     0.002 C 
HETATM   13  C   UNL     1     -47.162  59.254 -60.627  1.00  0.00     0.027 C 
HETATM   14  H   UNL     1     -45.687  57.327 -61.728  1.00  0.00     0.163 HD
ENDROOT
BRANCH   1  15
HETATM   15  C   UNL     1     -42.867  56.804 -58.433  1.00  0.00     0.146 C 
BRANCH  15  16
HETATM   16  C   UNL     1     -42.572  56.537 -56.977  1.00  0.00     0.224 C 
HETATM   17  N   UNL     1     -42.143  55.258 -56.713  1.00  0.00    -0.327 N 
HETATM   18  H   UNL     1     -42.022  54.624 -57.498  1.00  0.00     0.169 HD
HETATM   19  O   UNL     1     -42.709  57.464 -56.178  1.00  0.00    -0.273 OA
BRANCH  17  20
HETATM   20  C   UNL     1     -41.862  54.693 -55.447  1.00  0.00     0.036 A 
HETATM   21  C   UNL     1     -42.766  54.669 -54.383  1.00  0.00     0.053 A 
HETATM   22  C   UNL     1     -42.408  54.067 -53.173  1.00  0.00     0.036 A 
HETATM   23  C   UNL     1     -41.153  53.486 -53.009  1.00  0.00     0.024 A 
HETATM   24 CL   UNL     1     -43.537  54.039 -51.873  1.00  0.00    -0.084 Cl
HETATM   25  C   UNL     1     -40.245  53.510 -54.063  1.00  0.00     0.004 A 
HETATM   26  C   UNL     1     -40.598  54.111 -55.275  1.00  0.00     0.029 A 
ENDBRANCH  17  20
ENDBRANCH  15  16
ENDBRANCH   1  15
TORSDOF 3
ENDMDL
MODEL 10
REMARK VINA RESULT:      -6.9     14.867     17.749
REMARK  3 active torsions:
REMARK  status: ('A' for Active; 'I' for Inactive)
REMARK    1  A    between atoms: C_6  and  N_7 
REMARK       I    between atoms: N_7  and  C_8 
REMARK    2  A    between atoms: C_8  and  C_9 
REMARK    3  A    between atoms: C_9  and  C_10 
ROOT
HETATM    1  C   UNL     1     -35.032  40.584 -53.849  1.00  0.00     0.286 C 
HETATM    2  N   UNL     1     -34.341  39.252 -53.553  1.00  0.00    -0.056 N 
HETATM    3  H   UNL     1     -35.053  38.520 -53.674  1.00  0.00     0.278 HD
HETATM    4  H   UNL     1     -33.674  39.047 -54.327  1.00  0.00     0.278 HD
HETATM    5  C   UNL     1     -33.717  39.069 -52.203  1.00  0.00     0.209 C 
HETATM    6  C   UNL     1     -34.721  39.517 -51.118  1.00  0.00     0.115 C 
HETATM    7  N   UNL     1     -35.231  40.861 -51.374  1.00  0.00    -0.353 N 
HETATM    8  C   UNL     1     -35.541  41.346 -52.615  1.00  0.00     0.249 C 
HETATM    9  O   UNL     1     -36.176  42.391 -52.721  1.00  0.00    -0.271 OA
HETATM   10  C   UNL     1     -32.381  39.806 -52.115  1.00  0.00     0.035 C 
HETATM   11  C   UNL     1     -31.778  39.663 -50.719  1.00  0.00     0.002 C 
HETATM   12  C   UNL     1     -32.746  40.141 -49.638  1.00  0.00     0.002 C 
HETATM   13  C   UNL     1     -34.093  39.424 -49.723  1.00  0.00     0.027 C 
HETATM   14  H   UNL     1     -35.675  41.375 -50.615  1.00  0.00     0.163 HD
ENDROOT
BRANCH   1  15
HETATM   15  C   UNL     1     -34.167  41.514 -54.712  1.00  0.00     0.146 C 
BRANCH  15  16
HETATM   16  C   UNL     1     -34.494  41.309 -56.171  1.00  0.00     0.224 C 
HETATM   17  N   UNL     1     -35.825  41.466 -56.479  1.00  0.00    -0.327 N 
HETATM   18  H   UNL     1     -36.458  41.739 -55.734  1.00  0.00     0.169 HD
HETATM   19  O   UNL     1     -33.569  41.054 -56.943  1.00  0.00    -0.273 OA
BRANCH  17  20
HETATM   20  C   UNL     1     -36.442  41.266 -57.736  1.00  0.00     0.036 A 
HETATM   21  C   UNL     1     -36.711  42.289 -58.648  1.00  0.00     0.053 A 
HETATM   22  C   UNL     1     -37.304  41.994 -59.879  1.00  0.00     0.036 A 
HETATM   23  C   UNL     1     -37.634  40.684 -60.215  1.00  0.00     0.024 A 
HETATM   24 CL   UNL     1     -37.622  43.266 -60.995  1.00  0.00    -0.084 Cl
HETATM   25  C   UNL     1     -37.374  39.658 -59.310  1.00  0.00     0.004 A 
HETATM   26  C   UNL     1     -36.782  39.949 -58.078  1.00  0.00     0.029 A 
ENDBRANCH  17  20
ENDBRANCH  15  16
ENDBRANCH   1  15
TORSDOF 3
ENDMDL
