MODEL 1
REMARK VINA RESULT:      -7.6      0.000      0.000
REMARK  5 active torsions:
REMARK  status: ('A' for Active; 'I' for Inactive)
REMARK    1  A    between atoms: C_2  and  C_3 
REMARK    2  A    between atoms: C_3  and  N_4 
REMARK    3  A    between atoms: C_7  and  C_8 
REMARK    4  A    between atoms: C_8  and  O_9 
REMARK    5  A    between atoms: N_13  and  C_15 
ROOT
HETATM    1  N   UNL     1     -42.750  58.118 -51.128  1.00  0.00    -0.067 N 
HETATM    2  H   UNL     1     -42.847  58.411 -50.146  1.00  0.00     0.280 HD
HETATM    3  C   UNL     1     -43.632  56.901 -51.230  1.00  0.00     0.242 C 
HETATM    4  C   UNL     1     -43.326  55.990 -52.449  1.00  0.00     0.044 C 
HETATM    5  C   UNL     1     -41.794  55.666 -52.604  1.00  0.00    -0.029 C 
HETATM    6  C   UNL     1     -41.300  54.720 -51.462  1.00  0.00     0.037 C 
HETATM    7  C   UNL     1     -41.758  53.262 -51.598  1.00  0.00     0.236 C 
HETATM    8  N   UNL     1     -41.340  52.680 -52.933  1.00  0.00    -0.067 N 
HETATM    9  H   UNL     1     -41.824  51.771 -52.998  1.00  0.00     0.280 HD
HETATM   10  C   UNL     1     -41.941  53.520 -54.044  1.00  0.00     0.236 C 
HETATM   11  C   UNL     1     -41.440  54.961 -53.950  1.00  0.00     0.037 C 
HETATM   12  C   UNL     1     -41.020  57.015 -52.549  1.00  0.00     0.037 C 
HETATM   13  C   UNL     1     -41.287  57.844 -51.296  1.00  0.00     0.236 C 
ENDROOT
BRANCH   4  14
HETATM   14  C   UNL     1     -43.995  56.508 -53.740  1.00  0.00     0.171 C 
BRANCH  14  15
HETATM   15  O   UNL     1     -44.828  55.496 -54.268  1.00  0.00    -0.400 OA
HETATM   16  H   UNL     1     -45.730  55.613 -53.907  1.00  0.00     0.209 HD
ENDBRANCH  14  15
ENDBRANCH   4  14
BRANCH   1  17
HETATM   17  C   UNL     1     -43.245  59.360 -51.859  1.00  0.00     0.273 C 
BRANCH  17  18
HETATM   18  C   UNL     1     -43.647  60.475 -50.927  1.00  0.00    -0.033 A 
HETATM   19  C   UNL     1     -42.899  61.663 -50.862  1.00  0.00     0.010 A 
HETATM   20  C   UNL     1     -43.255  62.679 -49.970  1.00  0.00     0.024 A 
HETATM   21  C   UNL     1     -44.366  62.522 -49.145  1.00  0.00     0.034 A 
HETATM   22  C   UNL     1     -45.129  61.360 -49.210  1.00  0.00     0.024 A 
HETATM   23 CL   UNL     1     -44.794  63.766 -48.041  1.00  0.00    -0.084 Cl
HETATM   24  C   UNL     1     -44.773  60.342 -50.099  1.00  0.00     0.010 A 
ENDBRANCH  17  18
ENDBRANCH   1  17
BRANCH   8  25
HETATM   25  C   UNL     1     -39.826  52.343 -53.073  1.00  0.00     0.192 C 
HETATM   26  C   UNL     1     -39.319  51.516 -51.881  1.00  0.00     0.059 C 
HETATM   27  C   UNL     1     -39.853  50.091 -51.911  1.00  0.00     0.169 C 
HETATM   28  O   UNL     1     -39.540  49.475 -53.152  1.00  0.00    -0.391 OA
HETATM   29  C   UNL     1     -40.062  50.140 -54.293  1.00  0.00     0.169 C 
HETATM   30  C   UNL     1     -39.525  51.562 -54.361  1.00  0.00     0.059 C 
ENDBRANCH   8  25
TORSDOF 5
ENDMDL
MODEL 2
REMARK VINA RESULT:      -7.5      4.185      9.497
REMARK  5 active torsions:
REMARK  status: ('A' for Active; 'I' for Inactive)
REMARK    1  A    between atoms: C_2  and  C_3 
REMARK    2  A    between atoms: C_3  and  N_4 
REMARK    3  A    between atoms: C_7  and  C_8 
REMARK    4  A    between atoms: C_8  and  O_9 
REMARK    5  A    between atoms: N_13  and  C_15 
ROOT
HETATM    1  N   UNL     1     -41.880  55.752 -52.596  1.00  0.00    -0.067 N 
HETATM    2  H   UNL     1     -42.018  54.946 -51.970  1.00  0.00     0.280 HD
HETATM    3  C   UNL     1     -41.359  56.832 -51.684  1.00  0.00     0.242 C 
HETATM    4  C   UNL     1     -41.501  58.271 -52.251  1.00  0.00     0.044 C 
HETATM    5  C   UNL     1     -42.939  58.569 -52.815  1.00  0.00    -0.029 C 
HETATM    6  C   UNL     1     -43.990  58.656 -51.661  1.00  0.00     0.037 C 
HETATM    7  C   UNL     1     -43.910  59.937 -50.821  1.00  0.00     0.236 C 
HETATM    8  N   UNL     1     -44.031  61.171 -51.692  1.00  0.00    -0.067 N 
HETATM    9  H   UNL     1     -43.806  61.965 -51.073  1.00  0.00     0.280 HD
HETATM   10  C   UNL     1     -42.920  61.155 -52.724  1.00  0.00     0.236 C 
HETATM   11  C   UNL     1     -43.032  59.911 -53.605  1.00  0.00     0.037 C 
HETATM   12  C   UNL     1     -43.312  57.412 -53.788  1.00  0.00     0.037 C 
HETATM   13  C   UNL     1     -43.238  56.020 -53.168  1.00  0.00     0.236 C 
ENDROOT
BRANCH   4  14
HETATM   14  C   UNL     1     -40.355  58.623 -53.223  1.00  0.00     0.171 C 
BRANCH  14  15
HETATM   15  O   UNL     1     -39.316  59.255 -52.504  1.00  0.00    -0.400 OA
HETATM   16  H   UNL     1     -39.431  59.061 -51.552  1.00  0.00     0.209 HD
ENDBRANCH  14  15
ENDBRANCH   4  14
BRANCH   1  17
HETATM   17  C   UNL     1     -40.877  55.185 -53.594  1.00  0.00     0.273 C 
BRANCH  17  18
HETATM   18  C   UNL     1     -40.547  53.736 -53.342  1.00  0.00    -0.033 A 
HETATM   19  C   UNL     1     -40.254  53.280 -52.045  1.00  0.00     0.010 A 
HETATM   20  C   UNL     1     -39.913  51.942 -51.823  1.00  0.00     0.024 A 
HETATM   21  C   UNL     1     -39.870  51.049 -52.890  1.00  0.00     0.034 A 
HETATM   22  C   UNL     1     -40.175  51.480 -54.178  1.00  0.00     0.024 A 
HETATM   23 CL   UNL     1     -39.438  49.409 -52.617  1.00  0.00    -0.084 Cl
HETATM   24  C   UNL     1     -40.515  52.816 -54.402  1.00  0.00     0.010 A 
ENDBRANCH  17  18
ENDBRANCH   1  17
BRANCH   8  25
HETATM   25  C   UNL     1     -45.462  61.472 -52.231  1.00  0.00     0.192 C 
HETATM   26  C   UNL     1     -46.505  61.460 -51.102  1.00  0.00     0.059 C 
HETATM   27  C   UNL     1     -46.367  62.670 -50.189  1.00  0.00     0.169 C 
HETATM   28  O   UNL     1     -46.426  63.868 -50.950  1.00  0.00    -0.391 OA
HETATM   29  C   UNL     1     -45.426  63.986 -51.951  1.00  0.00     0.169 C 
HETATM   30  C   UNL     1     -45.537  62.834 -52.938  1.00  0.00     0.059 C 
ENDBRANCH   8  25
TORSDOF 5
ENDMDL
MODEL 3
REMARK VINA RESULT:      -7.4     16.300     18.715
REMARK  5 active torsions:
REMARK  status: ('A' for Active; 'I' for Inactive)
REMARK    1  A    between atoms: C_2  and  C_3 
REMARK    2  A    between atoms: C_3  and  N_4 
REMARK    3  A    between atoms: C_7  and  C_8 
REMARK    4  A    between atoms: C_8  and  O_9 
REMARK    5  A    between atoms: N_13  and  C_15 
ROOT
HETATM    1  N   UNL     1     -36.613  41.572 -55.277  1.00  0.00    -0.067 N 
HETATM    2  H   UNL     1     -36.247  42.298 -55.909  1.00  0.00     0.280 HD
HETATM    3  C   UNL     1     -36.704  42.268 -53.943  1.00  0.00     0.242 C 
HETATM    4  C   UNL     1     -36.780  41.308 -52.725  1.00  0.00     0.044 C 
HETATM    5  C   UNL     1     -35.687  40.177 -52.766  1.00  0.00    -0.029 C 
HETATM    6  C   UNL     1     -34.258  40.766 -52.525  1.00  0.00     0.037 C 
HETATM    7  C   UNL     1     -33.972  41.174 -51.074  1.00  0.00     0.236 C 
HETATM    8  N   UNL     1     -34.192  40.012 -50.126  1.00  0.00    -0.067 N 
HETATM    9  H   UNL     1     -34.136  40.418 -49.180  1.00  0.00     0.280 HD
HETATM   10  C   UNL     1     -35.625  39.533 -50.260  1.00  0.00     0.236 C 
HETATM   11  C   UNL     1     -35.898  39.068 -51.690  1.00  0.00     0.037 C 
HETATM   12  C   UNL     1     -35.755  39.506 -54.169  1.00  0.00     0.037 C 
HETATM   13  C   UNL     1     -35.596  40.473 -55.338  1.00  0.00     0.236 C 
ENDROOT
BRANCH   4  14
HETATM   14  C   UNL     1     -38.214  40.790 -52.486  1.00  0.00     0.171 C 
BRANCH  14  15
HETATM   15  O   UNL     1     -39.090  41.893 -52.363  1.00  0.00    -0.400 OA
HETATM   16  H   UNL     1     -39.970  41.633 -52.702  1.00  0.00     0.209 HD
ENDBRANCH  14  15
ENDBRANCH   4  14
BRANCH   1  17
HETATM   17  C   UNL     1     -37.941  41.238 -55.944  1.00  0.00     0.273 C 
BRANCH  17  18
HETATM   18  C   UNL     1     -37.789  40.788 -57.375  1.00  0.00    -0.033 A 
HETATM   19  C   UNL     1     -37.345  41.681 -58.365  1.00  0.00     0.010 A 
HETATM   20  C   UNL     1     -37.239  41.269 -59.698  1.00  0.00     0.024 A 
HETATM   21  C   UNL     1     -37.566  39.961 -60.048  1.00  0.00     0.034 A 
HETATM   22  C   UNL     1     -37.989  39.059 -59.077  1.00  0.00     0.024 A 
HETATM   23 CL   UNL     1     -37.449  39.461 -61.687  1.00  0.00    -0.084 Cl
HETATM   24  C   UNL     1     -38.097  39.470 -57.745  1.00  0.00     0.010 A 
ENDBRANCH  17  18
ENDBRANCH   1  17
BRANCH   8  25
HETATM   25  C   UNL     1     -33.095  38.906 -50.157  1.00  0.00     0.192 C 
HETATM   26  C   UNL     1     -31.712  39.472 -49.798  1.00  0.00     0.059 C 
HETATM   27  C   UNL     1     -31.611  39.825 -48.320  1.00  0.00     0.169 C 
HETATM   28  O   UNL     1     -31.945  38.699 -47.522  1.00  0.00    -0.391 OA
HETATM   29  C   UNL     1     -33.250  38.183 -47.738  1.00  0.00     0.169 C 
HETATM   30  C   UNL     1     -33.409  37.755 -49.189  1.00  0.00     0.059 C 
ENDBRANCH   8  25
TORSDOF 5
ENDMDL
MODEL 4
REMARK VINA RESULT:      -7.3      4.337      9.443
REMARK  5 active torsions:
REMARK  status: ('A' for Active; 'I' for Inactive)
REMARK    1  A    between atoms: C_2  and  C_3 
REMARK    2  A    between atoms: C_3  and  N_4 
REMARK    3  A    between atoms: C_7  and  C_8 
REMARK    4  A    between atoms: C_8  and  O_9 
REMARK    5  A    between atoms: N_13  and  C_15 
ROOT
HETATM    1  N   UNL     1     -41.714  55.757 -53.366  1.00  0.00    -0.067 N 
HETATM    2  H   UNL     1     -41.494  55.183 -54.192  1.00  0.00     0.280 HD
HETATM    3  C   UNL     1     -43.220  55.746 -53.311  1.00  0.00     0.242 C 
HETATM    4  C   UNL     1     -43.837  56.889 -52.461  1.00  0.00     0.044 C 
HETATM    5  C   UNL     1     -43.235  58.302 -52.804  1.00  0.00    -0.029 C 
HETATM    6  C   UNL     1     -43.689  58.779 -54.222  1.00  0.00     0.037 C 
HETATM    7  C   UNL     1     -45.152  59.235 -54.304  1.00  0.00     0.236 C 
HETATM    8  N   UNL     1     -45.439  60.333 -53.300  1.00  0.00    -0.067 N 
HETATM    9  H   UNL     1     -46.463  60.457 -53.316  1.00  0.00     0.280 HD
HETATM   10  C   UNL     1     -45.132  59.818 -51.907  1.00  0.00     0.236 C 
HETATM   11  C   UNL     1     -43.660  59.419 -51.801  1.00  0.00     0.037 C 
HETATM   12  C   UNL     1     -41.684  58.178 -52.756  1.00  0.00     0.037 C 
HETATM   13  C   UNL     1     -41.112  57.096 -53.666  1.00  0.00     0.236 C 
ENDROOT
BRANCH   4  14
HETATM   14  C   UNL     1     -43.839  56.553 -50.955  1.00  0.00     0.171 C 
BRANCH  14  15
HETATM   15  O   UNL     1     -45.154  56.218 -50.557  1.00  0.00    -0.400 OA
HETATM   16  H   UNL     1     -45.107  55.493 -49.902  1.00  0.00     0.209 HD
ENDBRANCH  14  15
ENDBRANCH   4  14
BRANCH   1  17
HETATM   17  C   UNL     1     -41.003  54.980 -52.265  1.00  0.00     0.273 C 
BRANCH  17  18
HETATM   18  C   UNL     1     -40.584  53.597 -52.693  1.00  0.00    -0.033 A 
HETATM   19  C   UNL     1     -39.978  52.715 -51.781  1.00  0.00     0.010 A 
HETATM   20  C   UNL     1     -39.558  51.446 -52.192  1.00  0.00     0.024 A 
HETATM   21  C   UNL     1     -39.749  51.044 -53.511  1.00  0.00     0.034 A 
HETATM   22  C   UNL     1     -40.365  51.897 -54.422  1.00  0.00     0.024 A 
HETATM   23 CL   UNL     1     -39.222  49.490 -54.017  1.00  0.00    -0.084 Cl
HETATM   24  C   UNL     1     -40.783  53.167 -54.014  1.00  0.00     0.010 A 
ENDBRANCH  17  18
ENDBRANCH   1  17
BRANCH   8  25
HETATM   25  C   UNL     1     -44.858  61.734 -53.655  1.00  0.00     0.192 C 
HETATM   26  C   UNL     1     -45.340  62.213 -55.034  1.00  0.00     0.059 C 
HETATM   27  C   UNL     1     -46.813  62.597 -55.017  1.00  0.00     0.169 C 
HETATM   28  O   UNL     1     -47.057  63.565 -54.007  1.00  0.00    -0.391 OA
HETATM   29  C   UNL     1     -46.721  63.148 -52.692  1.00  0.00     0.169 C 
HETATM   30  C   UNL     1     -45.242  62.799 -52.617  1.00  0.00     0.059 C 
ENDBRANCH   8  25
TORSDOF 5
ENDMDL
MODEL 5
REMARK VINA RESULT:      -7.1      4.213      9.211
REMARK  5 active torsions:
REMARK  status: ('A' for Active; 'I' for Inactive)
REMARK    1  A    between atoms: C_2  and  C_3 
REMARK    2  A    between atoms: C_3  and  N_4 
REMARK    3  A    between atoms: C_7  and  C_8 
REMARK    4  A    between atoms: C_8  and  O_9 
REMARK    5  A    between atoms: N_13  and  C_15 
ROOT
HETATM    1  N   UNL     1     -41.267  55.969 -51.918  1.00  0.00    -0.067 N 
HETATM    2  H   UNL     1     -40.259  55.817 -51.766  1.00  0.00     0.280 HD
HETATM    3  C   UNL     1     -41.356  56.368 -53.369  1.00  0.00     0.242 C 
HETATM    4  C   UNL     1     -42.672  57.098 -53.751  1.00  0.00     0.044 C 
HETATM    5  C   UNL     1     -43.037  58.263 -52.760  1.00  0.00    -0.029 C 
HETATM    6  C   UNL     1     -42.042  59.461 -52.906  1.00  0.00     0.037 C 
HETATM    7  C   UNL     1     -42.236  60.301 -54.176  1.00  0.00     0.236 C 
HETATM    8  N   UNL     1     -43.654  60.825 -54.272  1.00  0.00    -0.067 N 
HETATM    9  H   UNL     1     -43.732  61.231 -55.217  1.00  0.00     0.280 HD
HETATM   10  C   UNL     1     -44.614  59.651 -54.273  1.00  0.00     0.236 C 
HETATM   11  C   UNL     1     -44.468  58.845 -52.983  1.00  0.00     0.037 C 
HETATM   12  C   UNL     1     -42.971  57.691 -51.314  1.00  0.00     0.037 C 
HETATM   13  C   UNL     1     -41.633  57.054 -50.951  1.00  0.00     0.236 C 
ENDROOT
BRANCH   4  14
HETATM   14  C   UNL     1     -43.826  56.108 -54.014  1.00  0.00     0.171 C 
BRANCH  14  15
HETATM   15  O   UNL     1     -44.134  56.111 -55.394  1.00  0.00    -0.400 OA
HETATM   16  H   UNL     1     -44.948  55.587 -55.534  1.00  0.00     0.209 HD
ENDBRANCH  14  15
ENDBRANCH   4  14
BRANCH   1  17
HETATM   17  C   UNL     1     -41.831  54.598 -51.570  1.00  0.00     0.273 C 
BRANCH  17  18
HETATM   18  C   UNL     1     -41.142  53.472 -52.298  1.00  0.00    -0.033 A 
HETATM   19  C   UNL     1     -41.506  53.137 -53.613  1.00  0.00     0.010 A 
HETATM   20  C   UNL     1     -40.889  52.068 -54.271  1.00  0.00     0.024 A 
HETATM   21  C   UNL     1     -39.899  51.333 -53.625  1.00  0.00     0.034 A 
HETATM   22  C   UNL     1     -39.514  51.663 -52.329  1.00  0.00     0.024 A 
HETATM   23 CL   UNL     1     -39.152  50.013 -54.430  1.00  0.00    -0.084 Cl
HETATM   24  C   UNL     1     -40.131  52.729 -51.669  1.00  0.00     0.010 A 
ENDBRANCH  17  18
ENDBRANCH   1  17
BRANCH   8  25
HETATM   25  C   UNL     1     -44.004  61.993 -53.302  1.00  0.00     0.192 C 
HETATM   26  C   UNL     1     -43.067  63.194 -53.504  1.00  0.00     0.059 C 
HETATM   27  C   UNL     1     -43.349  63.919 -54.813  1.00  0.00     0.169 C 
HETATM   28  O   UNL     1     -44.715  64.299 -54.880  1.00  0.00    -0.391 OA
HETATM   29  C   UNL     1     -45.636  63.220 -54.795  1.00  0.00     0.169 C 
HETATM   30  C   UNL     1     -45.450  62.478 -53.480  1.00  0.00     0.059 C 
ENDBRANCH   8  25
TORSDOF 5
ENDMDL
MODEL 6
REMARK VINA RESULT:      -6.9      4.785      8.794
REMARK  5 active torsions:
REMARK  status: ('A' for Active; 'I' for Inactive)
REMARK    1  A    between atoms: C_2  and  C_3 
REMARK    2  A    between atoms: C_3  and  N_4 
REMARK    3  A    between atoms: C_7  and  C_8 
REMARK    4  A    between atoms: C_8  and  O_9 
REMARK    5  A    between atoms: N_13  and  C_15 
ROOT
HETATM    1  N   UNL     1     -42.288  55.523 -52.320  1.00  0.00    -0.067 N 
HETATM    2  H   UNL     1     -42.770  55.107 -51.511  1.00  0.00     0.280 HD
HETATM    3  C   UNL     1     -42.672  56.979 -52.258  1.00  0.00     0.242 C 
HETATM    4  C   UNL     1     -42.475  57.749 -53.592  1.00  0.00     0.044 C 
HETATM    5  C   UNL     1     -43.083  56.994 -54.831  1.00  0.00    -0.029 C 
HETATM    6  C   UNL     1     -44.646  56.992 -54.778  1.00  0.00     0.037 C 
HETATM    7  C   UNL     1     -45.298  58.341 -55.112  1.00  0.00     0.236 C 
HETATM    8  N   UNL     1     -44.852  58.842 -56.470  1.00  0.00    -0.067 N 
HETATM    9  H   UNL     1     -45.205  59.809 -56.534  1.00  0.00     0.280 HD
HETATM   10  C   UNL     1     -43.342  58.979 -56.472  1.00  0.00     0.236 C 
HETATM   11  C   UNL     1     -42.686  57.625 -56.202  1.00  0.00     0.037 C 
HETATM   12  C   UNL     1     -42.549  55.532 -54.802  1.00  0.00     0.037 C 
HETATM   13  C   UNL     1     -42.834  54.784 -53.504  1.00  0.00     0.236 C 
ENDROOT
BRANCH   4  14
HETATM   14  C   UNL     1     -41.013  58.204 -53.787  1.00  0.00     0.171 C 
BRANCH  14  15
HETATM   15  O   UNL     1     -40.966  59.616 -53.801  1.00  0.00    -0.400 OA
HETATM   16  H   UNL     1     -40.959  59.939 -52.877  1.00  0.00     0.209 HD
ENDBRANCH  14  15
ENDBRANCH   4  14
BRANCH   1  17
HETATM   17  C   UNL     1     -40.834  55.205 -51.995  1.00  0.00     0.273 C 
BRANCH  17  18
HETATM   18  C   UNL     1     -40.513  53.735 -52.092  1.00  0.00    -0.033 A 
HETATM   19  C   UNL     1     -40.445  52.937 -50.937  1.00  0.00     0.010 A 
HETATM   20  C   UNL     1     -40.112  51.582 -51.028  1.00  0.00     0.024 A 
HETATM   21  C   UNL     1     -39.853  51.012 -52.273  1.00  0.00     0.034 A 
HETATM   22  C   UNL     1     -39.934  51.784 -53.428  1.00  0.00     0.024 A 
HETATM   23 CL   UNL     1     -39.432  49.351 -52.382  1.00  0.00    -0.084 Cl
HETATM   24  C   UNL     1     -40.265  53.139 -53.338  1.00  0.00     0.010 A 
ENDBRANCH  17  18
ENDBRANCH   1  17
BRANCH   8  25
HETATM   25  C   UNL     1     -45.474  58.104 -57.693  1.00  0.00     0.192 C 
HETATM   26  C   UNL     1     -47.010  58.154 -57.661  1.00  0.00     0.059 C 
HETATM   27  C   UNL     1     -47.538  59.548 -57.969  1.00  0.00     0.169 C 
HETATM   28  O   UNL     1     -47.021  60.008 -59.209  1.00  0.00    -0.391 OA
HETATM   29  C   UNL     1     -45.604  60.077 -59.272  1.00  0.00     0.169 C 
HETATM   30  C   UNL     1     -45.003  58.700 -59.028  1.00  0.00     0.059 C 
ENDBRANCH   8  25
TORSDOF 5
ENDMDL
MODEL 7
REMARK VINA RESULT:      -6.8      4.032      9.249
REMARK  5 active torsions:
REMARK  status: ('A' for Active; 'I' for Inactive)
REMARK    1  A    between atoms: C_2  and  C_3 
REMARK    2  A    between atoms: C_3  and  N_4 
REMARK    3  A    between atoms: C_7  and  C_8 
REMARK    4  A    between atoms: C_8  and  O_9 
REMARK    5  A    between atoms: N_13  and  C_15 
ROOT
HETATM    1  N   UNL     1     -41.241  56.109 -52.789  1.00  0.00    -0.067 N 
HETATM    2  H   UNL     1     -40.470  55.924 -52.131  1.00  0.00     0.280 HD
HETATM    3  C   UNL     1     -40.970  57.509 -53.275  1.00  0.00     0.242 C 
HETATM    4  C   UNL     1     -42.200  58.214 -53.909  1.00  0.00     0.044 C 
HETATM    5  C   UNL     1     -43.496  58.099 -53.023  1.00  0.00    -0.029 C 
HETATM    6  C   UNL     1     -43.367  58.955 -51.721  1.00  0.00     0.037 C 
HETATM    7  C   UNL     1     -43.489  60.470 -51.938  1.00  0.00     0.236 C 
HETATM    8  N   UNL     1     -44.790  60.820 -52.630  1.00  0.00    -0.067 N 
HETATM    9  H   UNL     1     -44.709  61.818 -52.875  1.00  0.00     0.280 HD
HETATM   10  C   UNL     1     -44.849  60.096 -53.962  1.00  0.00     0.236 C 
HETATM   11  C   UNL     1     -44.790  58.584 -53.748  1.00  0.00     0.037 C 
HETATM   12  C   UNL     1     -43.685  56.598 -52.656  1.00  0.00     0.037 C 
HETATM   13  C   UNL     1     -42.482  55.965 -51.963  1.00  0.00     0.236 C 
ENDROOT
BRANCH   4  14
HETATM   14  C   UNL     1     -42.405  57.806 -55.383  1.00  0.00     0.171 C 
BRANCH  14  15
HETATM   15  O   UNL     1     -42.090  58.903 -56.215  1.00  0.00    -0.400 OA
HETATM   16  H   UNL     1     -42.134  58.611 -57.148  1.00  0.00     0.209 HD
ENDBRANCH  14  15
ENDBRANCH   4  14
BRANCH   1  17
HETATM   17  C   UNL     1     -41.032  54.999 -53.811  1.00  0.00     0.273 C 
BRANCH  17  18
HETATM   18  C   UNL     1     -40.590  53.698 -53.191  1.00  0.00    -0.033 A 
HETATM   19  C   UNL     1     -40.451  53.576 -51.798  1.00  0.00     0.010 A 
HETATM   20  C   UNL     1     -40.005  52.378 -51.230  1.00  0.00     0.024 A 
HETATM   21  C   UNL     1     -39.705  51.291 -52.047  1.00  0.00     0.034 A 
HETATM   22  C   UNL     1     -39.856  51.389 -53.427  1.00  0.00     0.024 A 
HETATM   23 CL   UNL     1     -39.146  49.825 -51.349  1.00  0.00    -0.084 Cl
HETATM   24  C   UNL     1     -40.299  52.586 -53.996  1.00  0.00     0.010 A 
ENDBRANCH  17  18
ENDBRANCH   1  17
BRANCH   8  25
HETATM   25  C   UNL     1     -46.067  60.724 -51.742  1.00  0.00     0.192 C 
HETATM   26  C   UNL     1     -45.859  61.400 -50.378  1.00  0.00     0.059 C 
HETATM   27  C   UNL     1     -45.803  62.916 -50.500  1.00  0.00     0.169 C 
HETATM   28  O   UNL     1     -46.966  63.400 -51.157  1.00  0.00    -0.391 OA
HETATM   29  C   UNL     1     -47.167  62.884 -52.465  1.00  0.00     0.169 C 
HETATM   30  C   UNL     1     -47.288  61.369 -52.416  1.00  0.00     0.059 C 
ENDBRANCH   8  25
TORSDOF 5
ENDMDL
MODEL 8
REMARK VINA RESULT:      -6.5      4.676      9.387
REMARK  5 active torsions:
REMARK  status: ('A' for Active; 'I' for Inactive)
REMARK    1  A    between atoms: C_2  and  C_3 
REMARK    2  A    between atoms: C_3  and  N_4 
REMARK    3  A    between atoms: C_7  and  C_8 
REMARK    4  A    between atoms: C_8  and  O_9 
REMARK    5  A    between atoms: N_13  and  C_15 
ROOT
HETATM    1  N   UNL     1     -41.962  55.093 -54.548  1.00  0.00    -0.067 N 
HETATM    2  H   UNL     1     -42.473  54.228 -54.320  1.00  0.00     0.280 HD
HETATM    3  C   UNL     1     -42.329  56.033 -53.429  1.00  0.00     0.242 C 
HETATM    4  C   UNL     1     -42.085  57.533 -53.747  1.00  0.00     0.044 C 
HETATM    5  C   UNL     1     -42.669  57.966 -55.143  1.00  0.00    -0.029 C 
HETATM    6  C   UNL     1     -44.232  57.971 -55.123  1.00  0.00     0.037 C 
HETATM    7  C   UNL     1     -44.857  59.140 -54.350  1.00  0.00     0.236 C 
HETATM    8  N   UNL     1     -44.367  60.472 -54.882  1.00  0.00    -0.067 N 
HETATM    9  H   UNL     1     -44.706  61.176 -54.209  1.00  0.00     0.280 HD
HETATM   10  C   UNL     1     -42.856  60.520 -54.768  1.00  0.00     0.236 C 
HETATM   11  C   UNL     1     -42.225  59.394 -55.587  1.00  0.00     0.037 C 
HETATM   12  C   UNL     1     -42.154  56.951 -56.205  1.00  0.00     0.037 C 
HETATM   13  C   UNL     1     -42.484  55.494 -55.894  1.00  0.00     0.236 C 
ENDROOT
BRANCH   4  14
HETATM   14  C   UNL     1     -40.613  57.938 -53.525  1.00  0.00     0.171 C 
BRANCH  14  15
HETATM   15  O   UNL     1     -40.554  58.938 -52.527  1.00  0.00    -0.400 OA
HETATM   16  H   UNL     1     -40.486  58.503 -51.653  1.00  0.00     0.209 HD
ENDBRANCH  14  15
ENDBRANCH   4  14
BRANCH   1  17
HETATM   17  C   UNL     1     -40.522  54.597 -54.554  1.00  0.00     0.273 C 
BRANCH  17  18
HETATM   18  C   UNL     1     -40.297  53.422 -53.636  1.00  0.00    -0.033 A 
HETATM   19  C   UNL     1     -40.373  53.575 -52.241  1.00  0.00     0.010 A 
HETATM   20  C   UNL     1     -40.128  52.491 -51.392  1.00  0.00     0.024 A 
HETATM   21  C   UNL     1     -39.815  51.245 -51.931  1.00  0.00     0.034 A 
HETATM   22  C   UNL     1     -39.754  51.072 -53.310  1.00  0.00     0.024 A 
HETATM   23 CL   UNL     1     -39.502  49.917 -50.887  1.00  0.00    -0.084 Cl
HETATM   24  C   UNL     1     -39.997  52.155 -54.159  1.00  0.00     0.010 A 
ENDBRANCH  17  18
ENDBRANCH   1  17
BRANCH   8  25
HETATM   25  C   UNL     1     -44.964  60.904 -56.255  1.00  0.00     0.192 C 
HETATM   26  C   UNL     1     -46.480  61.140 -56.162  1.00  0.00     0.059 C 
HETATM   27  C   UNL     1     -46.810  62.405 -55.383  1.00  0.00     0.169 C 
HETATM   28  O   UNL     1     -46.136  63.520 -55.948  1.00  0.00    -0.391 OA
HETATM   29  C   UNL     1     -44.721  63.407 -55.976  1.00  0.00     0.169 C 
HETATM   30  C   UNL     1     -44.311  62.188 -56.789  1.00  0.00     0.059 C 
ENDBRANCH   8  25
TORSDOF 5
ENDMDL
MODEL 9
REMARK VINA RESULT:      -6.5     16.920     19.216
REMARK  5 active torsions:
REMARK  status: ('A' for Active; 'I' for Inactive)
REMARK    1  A    between atoms: C_2  and  C_3 
REMARK    2  A    between atoms: C_3  and  N_4 
REMARK    3  A    between atoms: C_7  and  C_8 
REMARK    4  A    between atoms: C_8  and  O_9 
REMARK    5  A    between atoms: N_13  and  C_15 
ROOT
HETATM    1  N   UNL     1     -35.206  39.950 -52.961  1.00  0.00    -0.067 N 
HETATM    2  H   UNL     1     -35.641  39.480 -52.154  1.00  0.00     0.280 HD
HETATM    3  C   UNL     1     -36.342  40.718 -53.585  1.00  0.00     0.242 C 
HETATM    4  C   UNL     1     -36.094  41.141 -55.058  1.00  0.00     0.044 C 
HETATM    5  C   UNL     1     -35.573  39.958 -55.956  1.00  0.00    -0.029 C 
HETATM    6  C   UNL     1     -36.693  38.893 -56.192  1.00  0.00     0.037 C 
HETATM    7  C   UNL     1     -37.791  39.328 -57.171  1.00  0.00     0.236 C 
HETATM    8  N   UNL     1     -37.204  39.728 -58.509  1.00  0.00    -0.067 N 
HETATM    9  H   UNL     1     -37.984  40.152 -59.034  1.00  0.00     0.280 HD
HETATM   10  C   UNL     1     -36.220  40.862 -58.294  1.00  0.00     0.236 C 
HETATM   11  C   UNL     1     -35.089  40.415 -57.367  1.00  0.00     0.037 C 
HETATM   12  C   UNL     1     -34.365  39.307 -55.222  1.00  0.00     0.037 C 
HETATM   13  C   UNL     1     -34.672  38.832 -53.804  1.00  0.00     0.236 C 
ENDROOT
BRANCH   4  14
HETATM   14  C   UNL     1     -35.248  42.428 -55.156  1.00  0.00     0.171 C 
BRANCH  14  15
HETATM   15  O   UNL     1     -35.309  43.116 -53.923  1.00  0.00    -0.400 OA
HETATM   16  H   UNL     1     -35.167  42.474 -53.199  1.00  0.00     0.209 HD
ENDBRANCH  14  15
ENDBRANCH   4  14
BRANCH   1  17
HETATM   17  C   UNL     1     -34.134  40.788 -52.275  1.00  0.00     0.273 C 
BRANCH  17  18
HETATM   18  C   UNL     1     -33.618  40.164 -51.003  1.00  0.00    -0.033 A 
HETATM   19  C   UNL     1     -32.268  40.295 -50.635  1.00  0.00     0.010 A 
HETATM   20  C   UNL     1     -31.786  39.684 -49.472  1.00  0.00     0.024 A 
HETATM   21  C   UNL     1     -32.651  38.948 -48.665  1.00  0.00     0.034 A 
HETATM   22  C   UNL     1     -33.994  38.824 -49.006  1.00  0.00     0.024 A 
HETATM   23 CL   UNL     1     -32.054  38.188 -47.245  1.00  0.00    -0.084 Cl
HETATM   24  C   UNL     1     -34.476  39.432 -50.168  1.00  0.00     0.010 A 
ENDBRANCH  17  18
ENDBRANCH   1  17
BRANCH   8  25
HETATM   25  C   UNL     1     -36.708  38.551 -59.401  1.00  0.00     0.192 C 
HETATM   26  C   UNL     1     -37.764  37.440 -59.509  1.00  0.00     0.059 C 
HETATM   27  C   UNL     1     -38.949  37.865 -60.364  1.00  0.00     0.169 C 
HETATM   28  O   UNL     1     -38.504  38.296 -61.642  1.00  0.00    -0.391 OA
HETATM   29  C   UNL     1     -37.595  39.387 -61.618  1.00  0.00     0.169 C 
HETATM   30  C   UNL     1     -36.353  39.015 -60.822  1.00  0.00     0.059 C 
ENDBRANCH   8  25
TORSDOF 5
ENDMDL
MODEL 10
REMARK VINA RESULT:      -6.5      3.906      9.144
REMARK  5 active torsions:
REMARK  status: ('A' for Active; 'I' for Inactive)
REMARK    1  A    between atoms: C_2  and  C_3 
REMARK    2  A    between atoms: C_3  and  N_4 
REMARK    3  A    between atoms: C_7  and  C_8 
REMARK    4  A    between atoms: C_8  and  O_9 
REMARK    5  A    between atoms: N_13  and  C_15 
ROOT
HETATM    1  N   UNL     1     -41.944  57.091 -54.968  1.00  0.00    -0.067 N 
HETATM    2  H   UNL     1     -41.131  57.124 -55.600  1.00  0.00     0.280 HD
HETATM    3  C   UNL     1     -42.811  58.230 -55.438  1.00  0.00     0.242 C 
HETATM    4  C   UNL     1     -43.860  58.706 -54.397  1.00  0.00     0.044 C 
HETATM    5  C   UNL     1     -43.245  58.938 -52.968  1.00  0.00    -0.029 C 
HETATM    6  C   UNL     1     -42.304  60.187 -52.955  1.00  0.00     0.037 C 
HETATM    7  C   UNL     1     -43.034  61.536 -53.005  1.00  0.00     0.236 C 
HETATM    8  N   UNL     1     -44.032  61.660 -51.872  1.00  0.00    -0.067 N 
HETATM    9  H   UNL     1     -44.577  62.511 -52.081  1.00  0.00     0.280 HD
HETATM   10  C   UNL     1     -45.031  60.524 -51.971  1.00  0.00     0.236 C 
HETATM   11  C   UNL     1     -44.317  59.177 -51.860  1.00  0.00     0.037 C 
HETATM   12  C   UNL     1     -42.439  57.661 -52.589  1.00  0.00     0.037 C 
HETATM   13  C   UNL     1     -41.363  57.274 -53.599  1.00  0.00     0.236 C 
ENDROOT
BRANCH   4  14
HETATM   14  C   UNL     1     -45.124  57.820 -54.404  1.00  0.00     0.171 C 
BRANCH  14  15
HETATM   15  O   UNL     1     -45.474  57.523 -55.740  1.00  0.00    -0.400 OA
HETATM   16  H   UNL     1     -44.920  58.066 -56.337  1.00  0.00     0.209 HD
ENDBRANCH  14  15
ENDBRANCH   4  14
BRANCH   1  17
HETATM   17  C   UNL     1     -42.478  55.692 -55.243  1.00  0.00     0.273 C 
BRANCH  17  18
HETATM   18  C   UNL     1     -41.694  54.610 -54.545  1.00  0.00    -0.033 A 
HETATM   19  C   UNL     1     -40.550  54.053 -55.140  1.00  0.00     0.010 A 
HETATM   20  C   UNL     1     -39.846  53.025 -54.504  1.00  0.00     0.024 A 
HETATM   21  C   UNL     1     -40.275  52.553 -53.266  1.00  0.00     0.034 A 
HETATM   22  C   UNL     1     -41.395  53.106 -52.654  1.00  0.00     0.024 A 
HETATM   23 CL   UNL     1     -39.418  51.281 -52.493  1.00  0.00    -0.084 Cl
HETATM   24  C   UNL     1     -42.100  54.132 -53.289  1.00  0.00     0.010 A 
ENDBRANCH  17  18
ENDBRANCH   1  17
BRANCH   8  25
HETATM   25  C   UNL     1     -43.417  61.910 -50.463  1.00  0.00     0.192 C 
HETATM   26  C   UNL     1     -42.727  63.281 -50.383  1.00  0.00     0.059 C 
HETATM   27  C   UNL     1     -43.734  64.423 -50.376  1.00  0.00     0.169 C 
HETATM   28  O   UNL     1     -44.675  64.243 -49.327  1.00  0.00    -0.391 OA
HETATM   29  C   UNL     1     -45.416  63.034 -49.396  1.00  0.00     0.169 C 
HETATM   30  C   UNL     1     -44.475  61.840 -49.351  1.00  0.00     0.059 C 
ENDBRANCH   8  25
TORSDOF 5
ENDMDL
