MODEL 1
REMARK VINA RESULT:      -8.6      0.000      0.000
REMARK  4 active torsions:
REMARK  status: ('A' for Active; 'I' for Inactive)
REMARK    1  A    between atoms: C_6  and  N_7 
REMARK       I    between atoms: N_7  and  C_8 
REMARK    2  A    between atoms: C_8  and  C_9 
REMARK    3  A    between atoms: C_10  and  C_11 
REMARK    4  A    between atoms: C_14  and  O_15 
ROOT
HETATM    1  C   UNL     1     -42.967  56.749 -52.560  1.00  0.00     0.062 A 
HETATM    2  C   UNL     1     -42.579  57.907 -53.470  1.00  0.00     0.202 A 
HETATM    3  N   UNL     1     -42.948  59.199 -52.875  1.00  0.00    -0.084 N 
HETATM    4  C   UNL     1     -43.578  59.336 -51.668  1.00  0.00     0.725 A 
HETATM    5  N   UNL     1     -43.907  58.236 -50.965  1.00  0.00    -0.192 N 
HETATM    6  N   UNL     1     -42.562  60.400 -53.359  1.00  0.00    -0.149 NA
HETATM    7  C   UNL     1     -43.102  61.217 -52.448  1.00  0.00     0.275 A 
HETATM    8  N   UNL     1     -43.720  60.606 -51.389  1.00  0.00    -0.054 NA
HETATM    9  C   UNL     1     -43.605  56.945 -51.380  1.00  0.00     0.037 A 
HETATM   10  C   UNL     1     -44.015  55.841 -50.436  1.00  0.00     0.070 C 
HETATM   11  H   UNL     1     -44.381  58.348 -50.073  1.00  0.00     0.184 HD
ENDROOT
BRANCH   1  12
HETATM   12  C   UNL     1     -42.707  55.371 -53.050  1.00  0.00     0.256 C 
HETATM   13  N   UNL     1     -41.436  54.927 -52.757  1.00  0.00    -0.323 N 
HETATM   14  H   UNL     1     -40.836  55.552 -52.240  1.00  0.00     0.169 HD
HETATM   15  O   UNL     1     -43.606  54.766 -53.621  1.00  0.00    -0.267 OA
BRANCH  13  16
HETATM   16  C   UNL     1     -40.880  53.658 -53.058  1.00  0.00     0.041 A 
HETATM   17  C   UNL     1     -40.291  52.906 -52.018  1.00  0.00    -0.035 A 
HETATM   18  C   UNL     1     -39.763  51.630 -52.297  1.00  0.00     0.015 A 
HETATM   19  C   UNL     1     -40.198  53.417 -50.604  1.00  0.00     0.050 C 
HETATM   20  C   UNL     1     -39.795  51.096 -53.589  1.00  0.00    -0.061 A 
HETATM   21  C   UNL     1     -39.268  49.720 -53.867  1.00  0.00     0.048 C 
HETATM   22  C   UNL     1     -40.378  51.846 -54.609  1.00  0.00     0.009 A 
HETATM   23  C   UNL     1     -40.908  53.113 -54.346  1.00  0.00     0.030 A 
ENDBRANCH  13  16
ENDBRANCH   1  12
BRANCH   2  24
HETATM   24  C   UNL     1     -43.110  57.817 -54.897  1.00  0.00    -0.028 A 
HETATM   25  C   UNL     1     -42.298  57.446 -55.980  1.00  0.00     0.012 A 
HETATM   26  C   UNL     1     -42.830  57.370 -57.271  1.00  0.00     0.037 A 
HETATM   27  C   UNL     1     -44.180  57.636 -57.508  1.00  0.00     0.068 A 
HETATM   28  C   UNL     1     -45.000  57.987 -56.438  1.00  0.00     0.037 A 
HETATM   29  C   UNL     1     -44.469  58.075 -55.145  1.00  0.00     0.012 A 
BRANCH  27  30
HETATM   30  O   UNL     1     -44.569  57.517 -58.814  1.00  0.00    -0.356 OA
HETATM   31  C   UNL     1     -44.394  56.243 -59.421  1.00  0.00     0.210 C 
ENDBRANCH  27  30
ENDBRANCH   2  24
TORSDOF 4
ENDMDL
MODEL 2
REMARK VINA RESULT:      -8.4      2.452      4.564
REMARK  4 active torsions:
REMARK  status: ('A' for Active; 'I' for Inactive)
REMARK    1  A    between atoms: C_6  and  N_7 
REMARK       I    between atoms: N_7  and  C_8 
REMARK    2  A    between atoms: C_8  and  C_9 
REMARK    3  A    between atoms: C_10  and  C_11 
REMARK    4  A    between atoms: C_14  and  O_15 
ROOT
HETATM    1  C   UNL     1     -43.429  56.719 -55.521  1.00  0.00     0.062 A 
HETATM    2  C   UNL     1     -43.848  57.973 -54.765  1.00  0.00     0.202 A 
HETATM    3  N   UNL     1     -44.059  59.102 -55.681  1.00  0.00    -0.084 N 
HETATM    4  C   UNL     1     -43.879  59.035 -57.037  1.00  0.00     0.725 A 
HETATM    5  N   UNL     1     -43.470  57.879 -57.592  1.00  0.00    -0.192 N 
HETATM    6  N   UNL     1     -44.613  60.282 -55.324  1.00  0.00    -0.149 NA
HETATM    7  C   UNL     1     -44.624  60.915 -56.503  1.00  0.00     0.275 A 
HETATM    8  N   UNL     1     -44.197  60.182 -57.579  1.00  0.00    -0.054 NA
HETATM    9  C   UNL     1     -43.252  56.715 -56.865  1.00  0.00     0.037 A 
HETATM   10  C   UNL     1     -42.839  55.508 -57.670  1.00  0.00     0.070 C 
HETATM   11  H   UNL     1     -43.333  57.841 -58.598  1.00  0.00     0.184 HD
ENDROOT
BRANCH   1  12
HETATM   12  C   UNL     1     -43.126  55.504 -54.723  1.00  0.00     0.256 C 
HETATM   13  N   UNL     1     -41.777  55.234 -54.645  1.00  0.00    -0.323 N 
HETATM   14  H   UNL     1     -41.150  55.877 -55.105  1.00  0.00     0.169 HD
HETATM   15  O   UNL     1     -44.050  54.889 -54.206  1.00  0.00    -0.267 OA
BRANCH  13  16
HETATM   16  C   UNL     1     -41.154  54.171 -53.943  1.00  0.00     0.041 A 
HETATM   17  C   UNL     1     -40.960  54.293 -52.550  1.00  0.00    -0.035 A 
HETATM   18  C   UNL     1     -40.371  53.232 -51.835  1.00  0.00     0.015 A 
HETATM   19  C   UNL     1     -41.360  55.527 -51.783  1.00  0.00     0.050 C 
HETATM   20  C   UNL     1     -39.956  52.063 -52.480  1.00  0.00    -0.061 A 
HETATM   21  C   UNL     1     -39.367  50.922 -51.705  1.00  0.00     0.048 C 
HETATM   22  C   UNL     1     -40.150  51.952 -53.856  1.00  0.00     0.009 A 
HETATM   23  C   UNL     1     -40.736  52.996 -54.578  1.00  0.00     0.030 A 
ENDBRANCH  13  16
ENDBRANCH   1  12
BRANCH   2  24
HETATM   24  C   UNL     1     -42.918  58.387 -53.629  1.00  0.00    -0.028 A 
HETATM   25  C   UNL     1     -41.561  58.679 -53.836  1.00  0.00     0.012 A 
HETATM   26  C   UNL     1     -40.747  59.062 -52.765  1.00  0.00     0.037 A 
HETATM   27  C   UNL     1     -41.268  59.185 -51.476  1.00  0.00     0.068 A 
HETATM   28  C   UNL     1     -42.617  58.916 -51.262  1.00  0.00     0.037 A 
HETATM   29  C   UNL     1     -43.434  58.521 -52.328  1.00  0.00     0.012 A 
BRANCH  27  30
HETATM   30  O   UNL     1     -40.364  59.574 -50.526  1.00  0.00    -0.356 OA
HETATM   31  C   UNL     1     -38.988  59.397 -50.840  1.00  0.00     0.210 C 
ENDBRANCH  27  30
ENDBRANCH   2  24
TORSDOF 4
ENDMDL
MODEL 3
REMARK VINA RESULT:      -8.3      2.120      6.125
REMARK  4 active torsions:
REMARK  status: ('A' for Active; 'I' for Inactive)
REMARK    1  A    between atoms: C_6  and  N_7 
REMARK       I    between atoms: N_7  and  C_8 
REMARK    2  A    between atoms: C_8  and  C_9 
REMARK    3  A    between atoms: C_10  and  C_11 
REMARK    4  A    between atoms: C_14  and  O_15 
ROOT
HETATM    1  C   UNL     1     -42.824  58.136 -54.360  1.00  0.00     0.062 A 
HETATM    2  C   UNL     1     -42.417  57.241 -53.198  1.00  0.00     0.202 A 
HETATM    3  N   UNL     1     -41.513  57.944 -52.276  1.00  0.00    -0.084 N 
HETATM    4  C   UNL     1     -41.081  59.230 -52.456  1.00  0.00     0.725 A 
HETATM    5  N   UNL     1     -41.480  59.915 -53.544  1.00  0.00    -0.192 N 
HETATM    6  N   UNL     1     -41.141  57.472 -51.065  1.00  0.00    -0.149 NA
HETATM    7  C   UNL     1     -40.386  58.487 -50.628  1.00  0.00     0.275 A 
HETATM    8  N   UNL     1     -40.336  59.589 -51.442  1.00  0.00    -0.054 NA
HETATM    9  C   UNL     1     -42.351  59.400 -54.495  1.00  0.00     0.037 A 
HETATM   10  C   UNL     1     -42.717  60.334 -55.622  1.00  0.00     0.070 C 
HETATM   11  H   UNL     1     -41.148  60.867 -53.672  1.00  0.00     0.184 HD
ENDROOT
BRANCH   1  12
HETATM   12  C   UNL     1     -43.696  57.548 -55.409  1.00  0.00     0.256 C 
HETATM   13  N   UNL     1     -43.028  57.302 -56.589  1.00  0.00    -0.323 N 
HETATM   14  H   UNL     1     -42.043  57.521 -56.616  1.00  0.00     0.169 HD
HETATM   15  O   UNL     1     -44.869  57.317 -55.143  1.00  0.00    -0.267 OA
BRANCH  13  16
HETATM   16  C   UNL     1     -43.557  56.724 -57.771  1.00  0.00     0.041 A 
HETATM   17  C   UNL     1     -44.256  57.547 -58.679  1.00  0.00    -0.035 A 
HETATM   18  C   UNL     1     -44.760  56.991 -59.873  1.00  0.00     0.015 A 
HETATM   19  C   UNL     1     -44.494  59.012 -58.426  1.00  0.00     0.050 C 
HETATM   20  C   UNL     1     -44.596  55.635 -60.169  1.00  0.00    -0.061 A 
HETATM   21  C   UNL     1     -45.099  55.062 -61.460  1.00  0.00     0.048 C 
HETATM   22  C   UNL     1     -43.905  54.830 -59.265  1.00  0.00     0.009 A 
HETATM   23  C   UNL     1     -43.397  55.368 -58.078  1.00  0.00     0.030 A 
ENDBRANCH  13  16
ENDBRANCH   1  12
BRANCH   2  24
HETATM   24  C   UNL     1     -41.817  55.896 -53.594  1.00  0.00    -0.028 A 
HETATM   25  C   UNL     1     -40.682  55.789 -54.411  1.00  0.00     0.012 A 
HETATM   26  C   UNL     1     -40.162  54.534 -54.743  1.00  0.00     0.037 A 
HETATM   27  C   UNL     1     -40.745  53.364 -54.251  1.00  0.00     0.068 A 
HETATM   28  C   UNL     1     -41.860  53.458 -53.424  1.00  0.00     0.037 A 
HETATM   29  C   UNL     1     -42.391  54.712 -53.098  1.00  0.00     0.012 A 
BRANCH  27  30
HETATM   30  O   UNL     1     -40.132  52.207 -54.647  1.00  0.00    -0.356 OA
HETATM   31  C   UNL     1     -39.784  51.283 -53.624  1.00  0.00     0.210 C 
ENDBRANCH  27  30
ENDBRANCH   2  24
TORSDOF 4
ENDMDL
MODEL 4
REMARK VINA RESULT:      -8.2      2.681      6.256
REMARK  4 active torsions:
REMARK  status: ('A' for Active; 'I' for Inactive)
REMARK    1  A    between atoms: C_6  and  N_7 
REMARK       I    between atoms: N_7  and  C_8 
REMARK    2  A    between atoms: C_8  and  C_9 
REMARK    3  A    between atoms: C_10  and  C_11 
REMARK    4  A    between atoms: C_14  and  O_15 
ROOT
HETATM    1  C   UNL     1     -41.143  55.041 -52.686  1.00  0.00     0.062 A 
HETATM    2  C   UNL     1     -41.214  55.889 -51.424  1.00  0.00     0.202 A 
HETATM    3  N   UNL     1     -41.066  55.062 -50.218  1.00  0.00    -0.084 N 
HETATM    4  C   UNL     1     -40.907  53.702 -50.234  1.00  0.00     0.725 A 
HETATM    5  N   UNL     1     -40.895  53.053 -51.413  1.00  0.00    -0.192 N 
HETATM    6  N   UNL     1     -40.899  55.555 -48.970  1.00  0.00    -0.149 NA
HETATM    7  C   UNL     1     -40.764  54.420 -48.274  1.00  0.00     0.275 A 
HETATM    8  N   UNL     1     -40.748  53.265 -49.012  1.00  0.00    -0.054 NA
HETATM    9  C   UNL     1     -40.999  53.693 -52.641  1.00  0.00     0.037 A 
HETATM   10  C   UNL     1     -40.922  52.800 -53.854  1.00  0.00     0.070 C 
HETATM   11  H   UNL     1     -40.783  52.042 -51.414  1.00  0.00     0.184 HD
ENDROOT
BRANCH   1  12
HETATM   12  C   UNL     1     -41.331  55.729 -53.989  1.00  0.00     0.256 C 
HETATM   13  N   UNL     1     -42.534  55.427 -54.589  1.00  0.00    -0.323 N 
HETATM   14  H   UNL     1     -43.154  54.804 -54.093  1.00  0.00     0.169 HD
HETATM   15  O   UNL     1     -40.458  56.490 -54.388  1.00  0.00    -0.267 OA
BRANCH  13  16
HETATM   16  C   UNL     1     -43.031  55.932 -55.817  1.00  0.00     0.041 A 
HETATM   17  C   UNL     1     -43.800  57.116 -55.807  1.00  0.00    -0.035 A 
HETATM   18  C   UNL     1     -44.274  57.647 -57.023  1.00  0.00     0.015 A 
HETATM   19  C   UNL     1     -44.142  57.847 -54.536  1.00  0.00     0.050 C 
HETATM   20  C   UNL     1     -44.013  57.014 -58.243  1.00  0.00    -0.061 A 
HETATM   21  C   UNL     1     -44.487  57.608 -59.536  1.00  0.00     0.048 C 
HETATM   22  C   UNL     1     -43.255  55.845 -58.242  1.00  0.00     0.009 A 
HETATM   23  C   UNL     1     -42.776  55.308 -57.043  1.00  0.00     0.030 A 
ENDBRANCH  13  16
ENDBRANCH   1  12
BRANCH   2  24
HETATM   24  C   UNL     1     -42.451  56.772 -51.304  1.00  0.00    -0.028 A 
HETATM   25  C   UNL     1     -43.739  56.243 -51.132  1.00  0.00     0.012 A 
HETATM   26  C   UNL     1     -44.845  57.092 -51.020  1.00  0.00     0.037 A 
HETATM   27  C   UNL     1     -44.690  58.480 -51.052  1.00  0.00     0.068 A 
HETATM   28  C   UNL     1     -43.415  59.016 -51.203  1.00  0.00     0.037 A 
HETATM   29  C   UNL     1     -42.306  58.170 -51.328  1.00  0.00     0.012 A 
BRANCH  27  30
HETATM   30  O   UNL     1     -45.852  59.190 -50.923  1.00  0.00    -0.356 OA
HETATM   31  C   UNL     1     -46.092  60.207 -51.889  1.00  0.00     0.210 C 
ENDBRANCH  27  30
ENDBRANCH   2  24
TORSDOF 4
ENDMDL
MODEL 5
REMARK VINA RESULT:      -7.9      2.195      3.024
REMARK  4 active torsions:
REMARK  status: ('A' for Active; 'I' for Inactive)
REMARK    1  A    between atoms: C_6  and  N_7 
REMARK       I    between atoms: N_7  and  C_8 
REMARK    2  A    between atoms: C_8  and  C_9 
REMARK    3  A    between atoms: C_10  and  C_11 
REMARK    4  A    between atoms: C_14  and  O_15 
ROOT
HETATM    1  C   UNL     1     -43.281  58.751 -54.398  1.00  0.00     0.062 A 
HETATM    2  C   UNL     1     -43.294  59.473 -55.738  1.00  0.00     0.202 A 
HETATM    3  N   UNL     1     -44.430  60.401 -55.832  1.00  0.00    -0.084 N 
HETATM    4  C   UNL     1     -45.363  60.575 -54.845  1.00  0.00     0.725 A 
HETATM    5  N   UNL     1     -45.269  59.853 -53.713  1.00  0.00    -0.192 N 
HETATM    6  N   UNL     1     -44.592  61.311 -56.819  1.00  0.00    -0.149 NA
HETATM    7  C   UNL     1     -45.715  61.915 -56.413  1.00  0.00     0.275 A 
HETATM    8  N   UNL     1     -46.210  61.505 -55.202  1.00  0.00    -0.054 NA
HETATM    9  C   UNL     1     -44.241  58.953 -53.463  1.00  0.00     0.037 A 
HETATM   10  C   UNL     1     -44.283  58.270 -52.118  1.00  0.00     0.070 C 
HETATM   11  H   UNL     1     -45.970  59.985 -52.989  1.00  0.00     0.184 HD
ENDROOT
BRANCH   1  12
HETATM   12  C   UNL     1     -42.220  57.736 -54.173  1.00  0.00     0.256 C 
HETATM   13  N   UNL     1     -42.663  56.445 -54.358  1.00  0.00    -0.323 N 
HETATM   14  H   UNL     1     -43.626  56.322 -54.636  1.00  0.00     0.169 HD
HETATM   15  O   UNL     1     -41.091  58.113 -53.884  1.00  0.00    -0.267 OA
BRANCH  13  16
HETATM   16  C   UNL     1     -41.903  55.252 -54.250  1.00  0.00     0.041 A 
HETATM   17  C   UNL     1     -42.149  54.382 -53.166  1.00  0.00    -0.035 A 
HETATM   18  C   UNL     1     -41.423  53.178 -53.064  1.00  0.00     0.015 A 
HETATM   19  C   UNL     1     -43.165  54.687 -52.098  1.00  0.00     0.050 C 
HETATM   20  C   UNL     1     -40.449  52.835 -54.007  1.00  0.00    -0.061 A 
HETATM   21  C   UNL     1     -39.710  51.533 -53.913  1.00  0.00     0.048 C 
HETATM   22  C   UNL     1     -40.213  53.702 -55.073  1.00  0.00     0.009 A 
HETATM   23  C   UNL     1     -40.927  54.898 -55.188  1.00  0.00     0.030 A 
ENDBRANCH  13  16
ENDBRANCH   1  12
BRANCH   2  24
HETATM   24  C   UNL     1     -43.258  58.565 -56.964  1.00  0.00    -0.028 A 
HETATM   25  C   UNL     1     -44.329  57.728 -57.312  1.00  0.00     0.012 A 
HETATM   26  C   UNL     1     -44.255  56.918 -58.450  1.00  0.00     0.037 A 
HETATM   27  C   UNL     1     -43.128  56.941 -59.274  1.00  0.00     0.068 A 
HETATM   28  C   UNL     1     -42.067  57.781 -58.949  1.00  0.00     0.037 A 
HETATM   29  C   UNL     1     -42.132  58.586 -57.805  1.00  0.00     0.012 A 
BRANCH  27  30
HETATM   30  O   UNL     1     -43.191  56.106 -60.356  1.00  0.00    -0.356 OA
HETATM   31  C   UNL     1     -44.299  55.215 -60.415  1.00  0.00     0.210 C 
ENDBRANCH  27  30
ENDBRANCH   2  24
TORSDOF 4
ENDMDL
MODEL 6
REMARK VINA RESULT:      -7.9      2.607      5.148
REMARK  4 active torsions:
REMARK  status: ('A' for Active; 'I' for Inactive)
REMARK    1  A    between atoms: C_6  and  N_7 
REMARK       I    between atoms: N_7  and  C_8 
REMARK    2  A    between atoms: C_8  and  C_9 
REMARK    3  A    between atoms: C_10  and  C_11 
REMARK    4  A    between atoms: C_14  and  O_15 
ROOT
HETATM    1  C   UNL     1     -42.826  55.567 -54.629  1.00  0.00     0.062 A 
HETATM    2  C   UNL     1     -43.863  56.667 -54.809  1.00  0.00     0.202 A 
HETATM    3  N   UNL     1     -43.802  57.241 -56.161  1.00  0.00    -0.084 N 
HETATM    4  C   UNL     1     -42.911  56.847 -57.122  1.00  0.00     0.725 A 
HETATM    5  N   UNL     1     -42.013  55.887 -56.837  1.00  0.00    -0.192 N 
HETATM    6  N   UNL     1     -44.718  58.095 -56.669  1.00  0.00    -0.149 NA
HETATM    7  C   UNL     1     -44.239  58.260 -57.907  1.00  0.00     0.275 A 
HETATM    8  N   UNL     1     -43.143  57.503 -58.230  1.00  0.00    -0.054 NA
HETATM    9  C   UNL     1     -41.958  55.229 -55.614  1.00  0.00     0.037 A 
HETATM   10  C   UNL     1     -40.909  54.150 -55.498  1.00  0.00     0.070 C 
HETATM   11  H   UNL     1     -41.351  55.606 -57.555  1.00  0.00     0.184 HD
ENDROOT
BRANCH   1  12
HETATM   12  C   UNL     1     -42.728  54.925 -53.293  1.00  0.00     0.256 C 
HETATM   13  N   UNL     1     -41.626  55.339 -52.577  1.00  0.00    -0.323 N 
HETATM   14  H   UNL     1     -41.027  56.027 -53.008  1.00  0.00     0.169 HD
HETATM   15  O   UNL     1     -43.603  54.142 -52.947  1.00  0.00    -0.267 OA
BRANCH  13  16
HETATM   16  C   UNL     1     -41.256  54.944 -51.266  1.00  0.00     0.041 A 
HETATM   17  C   UNL     1     -40.521  53.751 -51.095  1.00  0.00    -0.035 A 
HETATM   18  C   UNL     1     -40.120  53.363 -49.801  1.00  0.00     0.015 A 
HETATM   19  C   UNL     1     -40.143  52.861 -52.249  1.00  0.00     0.050 C 
HETATM   20  C   UNL     1     -40.450  54.127 -48.677  1.00  0.00    -0.061 A 
HETATM   21  C   UNL     1     -39.983  53.728 -47.309  1.00  0.00     0.048 C 
HETATM   22  C   UNL     1     -41.177  55.303 -48.857  1.00  0.00     0.009 A 
HETATM   23  C   UNL     1     -41.580  55.702 -50.135  1.00  0.00     0.030 A 
ENDBRANCH  13  16
ENDBRANCH   1  12
BRANCH   2  24
HETATM   24  C   UNL     1     -43.818  57.778 -53.766  1.00  0.00    -0.028 A 
HETATM   25  C   UNL     1     -44.809  57.930 -52.784  1.00  0.00     0.012 A 
HETATM   26  C   UNL     1     -44.723  58.960 -51.842  1.00  0.00     0.037 A 
HETATM   27  C   UNL     1     -43.641  59.843 -51.843  1.00  0.00     0.068 A 
HETATM   28  C   UNL     1     -42.642  59.691 -52.800  1.00  0.00     0.037 A 
HETATM   29  C   UNL     1     -42.730  58.668 -53.752  1.00  0.00     0.012 A 
BRANCH  27  30
HETATM   30  O   UNL     1     -43.678  60.797 -50.863  1.00  0.00    -0.356 OA
HETATM   31  C   UNL     1     -44.965  61.209 -50.418  1.00  0.00     0.210 C 
ENDBRANCH  27  30
ENDBRANCH   2  24
TORSDOF 4
ENDMDL
MODEL 7
REMARK VINA RESULT:      -7.5      4.086      6.245
REMARK  4 active torsions:
REMARK  status: ('A' for Active; 'I' for Inactive)
REMARK    1  A    between atoms: C_6  and  N_7 
REMARK       I    between atoms: N_7  and  C_8 
REMARK    2  A    between atoms: C_8  and  C_9 
REMARK    3  A    between atoms: C_10  and  C_11 
REMARK    4  A    between atoms: C_14  and  O_15 
ROOT
HETATM    1  C   UNL     1     -44.481  56.908 -58.785  1.00  0.00     0.062 A 
HETATM    2  C   UNL     1     -44.813  58.351 -58.430  1.00  0.00     0.202 A 
HETATM    3  N   UNL     1     -45.857  58.890 -59.313  1.00  0.00    -0.084 N 
HETATM    4  C   UNL     1     -46.438  58.187 -60.334  1.00  0.00     0.725 A 
HETATM    5  N   UNL     1     -46.036  56.925 -60.578  1.00  0.00    -0.192 N 
HETATM    6  N   UNL     1     -46.487  60.070 -59.118  1.00  0.00    -0.149 NA
HETATM    7  C   UNL     1     -47.353  60.057 -60.138  1.00  0.00     0.275 A 
HETATM    8  N   UNL     1     -47.366  58.916 -60.897  1.00  0.00    -0.054 NA
HETATM    9  C   UNL     1     -45.078  56.266 -59.819  1.00  0.00     0.037 A 
HETATM   10  C   UNL     1     -44.793  54.840 -60.220  1.00  0.00     0.070 C 
HETATM   11  H   UNL     1     -46.469  56.414 -61.343  1.00  0.00     0.184 HD
ENDROOT
BRANCH   1  12
HETATM   12  C   UNL     1     -43.401  56.241 -58.014  1.00  0.00     0.256 C 
HETATM   13  N   UNL     1     -43.714  56.076 -56.682  1.00  0.00    -0.323 N 
HETATM   14  H   UNL     1     -44.621  56.398 -56.377  1.00  0.00     0.169 HD
HETATM   15  O   UNL     1     -42.387  55.886 -58.601  1.00  0.00    -0.267 OA
BRANCH  13  16
HETATM   16  C   UNL     1     -42.920  55.456 -55.684  1.00  0.00     0.041 A 
HETATM   17  C   UNL     1     -42.164  56.268 -54.810  1.00  0.00    -0.035 A 
HETATM   18  C   UNL     1     -41.396  55.666 -53.794  1.00  0.00     0.015 A 
HETATM   19  C   UNL     1     -42.142  57.770 -54.919  1.00  0.00     0.050 C 
HETATM   20  C   UNL     1     -41.351  54.277 -53.642  1.00  0.00    -0.061 A 
HETATM   21  C   UNL     1     -40.564  53.647 -52.532  1.00  0.00     0.048 C 
HETATM   22  C   UNL     1     -42.100  53.484 -54.511  1.00  0.00     0.009 A 
HETATM   23  C   UNL     1     -42.869  54.067 -55.523  1.00  0.00     0.030 A 
ENDBRANCH  13  16
ENDBRANCH   1  12
BRANCH   2  24
HETATM   24  C   UNL     1     -43.620  59.301 -58.390  1.00  0.00    -0.028 A 
HETATM   25  C   UNL     1     -43.227  59.966 -57.219  1.00  0.00     0.012 A 
HETATM   26  C   UNL     1     -42.122  60.823 -57.228  1.00  0.00     0.037 A 
HETATM   27  C   UNL     1     -41.373  61.016 -58.390  1.00  0.00     0.068 A 
HETATM   28  C   UNL     1     -41.742  60.346 -59.553  1.00  0.00     0.037 A 
HETATM   29  C   UNL     1     -42.854  59.496 -59.553  1.00  0.00     0.012 A 
BRANCH  27  30
HETATM   30  O   UNL     1     -40.315  61.872 -58.256  1.00  0.00    -0.356 OA
HETATM   31  C   UNL     1     -39.981  62.662 -59.391  1.00  0.00     0.210 C 
ENDBRANCH  27  30
ENDBRANCH   2  24
TORSDOF 4
ENDMDL
MODEL 8
REMARK VINA RESULT:      -7.4      2.446      6.661
REMARK  4 active torsions:
REMARK  status: ('A' for Active; 'I' for Inactive)
REMARK    1  A    between atoms: C_6  and  N_7 
REMARK       I    between atoms: N_7  and  C_8 
REMARK    2  A    between atoms: C_8  and  C_9 
REMARK    3  A    between atoms: C_10  and  C_11 
REMARK    4  A    between atoms: C_14  and  O_15 
ROOT
HETATM    1  C   UNL     1     -41.452  56.246 -53.082  1.00  0.00     0.062 A 
HETATM    2  C   UNL     1     -41.821  54.982 -52.317  1.00  0.00     0.202 A 
HETATM    3  N   UNL     1     -41.578  55.143 -50.876  1.00  0.00    -0.084 N 
HETATM    4  C   UNL     1     -41.066  56.277 -50.306  1.00  0.00     0.725 A 
HETATM    5  N   UNL     1     -40.741  57.322 -51.090  1.00  0.00    -0.192 N 
HETATM    6  N   UNL     1     -41.984  54.266 -49.931  1.00  0.00    -0.149 NA
HETATM    7  C   UNL     1     -41.572  54.892 -48.822  1.00  0.00     0.275 A 
HETATM    8  N   UNL     1     -41.019  56.132 -49.007  1.00  0.00    -0.054 NA
HETATM    9  C   UNL     1     -40.934  57.336 -52.465  1.00  0.00     0.037 A 
HETATM   10  C   UNL     1     -40.550  58.615 -53.167  1.00  0.00     0.070 C 
HETATM   11  H   UNL     1     -40.355  58.157 -50.657  1.00  0.00     0.184 HD
ENDROOT
BRANCH   1  12
HETATM   12  C   UNL     1     -41.593  56.219 -54.561  1.00  0.00     0.256 C 
HETATM   13  N   UNL     1     -42.881  56.465 -54.984  1.00  0.00    -0.323 N 
HETATM   14  H   UNL     1     -43.573  56.650 -54.273  1.00  0.00     0.169 HD
HETATM   15  O   UNL     1     -40.598  56.019 -55.247  1.00  0.00    -0.267 OA
BRANCH  13  16
HETATM   16  C   UNL     1     -43.346  56.538 -56.322  1.00  0.00     0.041 A 
HETATM   17  C   UNL     1     -44.149  57.632 -56.708  1.00  0.00    -0.035 A 
HETATM   18  C   UNL     1     -44.592  57.733 -58.041  1.00  0.00     0.015 A 
HETATM   19  C   UNL     1     -44.562  58.712 -55.742  1.00  0.00     0.050 C 
HETATM   20  C   UNL     1     -44.265  56.759 -58.991  1.00  0.00    -0.061 A 
HETATM   21  C   UNL     1     -44.706  56.896 -60.418  1.00  0.00     0.048 C 
HETATM   22  C   UNL     1     -43.473  55.682 -58.600  1.00  0.00     0.009 A 
HETATM   23  C   UNL     1     -43.024  55.570 -57.280  1.00  0.00     0.030 A 
ENDBRANCH  13  16
ENDBRANCH   1  12
BRANCH   2  24
HETATM   24  C   UNL     1     -41.161  53.703 -52.820  1.00  0.00    -0.028 A 
HETATM   25  C   UNL     1     -40.105  53.082 -52.135  1.00  0.00     0.012 A 
HETATM   26  C   UNL     1     -39.534  51.904 -52.630  1.00  0.00     0.037 A 
HETATM   27  C   UNL     1     -40.016  51.310 -53.798  1.00  0.00     0.068 A 
HETATM   28  C   UNL     1     -41.077  51.906 -54.475  1.00  0.00     0.037 A 
HETATM   29  C   UNL     1     -41.643  53.091 -53.990  1.00  0.00     0.012 A 
BRANCH  27  30
HETATM   30  O   UNL     1     -39.373  50.159 -54.164  1.00  0.00    -0.356 OA
HETATM   31  C   UNL     1     -39.257  49.146 -53.172  1.00  0.00     0.210 C 
ENDBRANCH  27  30
ENDBRANCH   2  24
TORSDOF 4
ENDMDL
MODEL 9
REMARK VINA RESULT:      -7.3     15.924     19.118
REMARK  4 active torsions:
REMARK  status: ('A' for Active; 'I' for Inactive)
REMARK    1  A    between atoms: C_6  and  N_7 
REMARK       I    between atoms: N_7  and  C_8 
REMARK    2  A    between atoms: C_8  and  C_9 
REMARK    3  A    between atoms: C_10  and  C_11 
REMARK    4  A    between atoms: C_14  and  O_15 
ROOT
HETATM    1  C   UNL     1     -36.129  40.234 -55.212  1.00  0.00     0.062 A 
HETATM    2  C   UNL     1     -35.010  39.771 -54.289  1.00  0.00     0.202 A 
HETATM    3  N   UNL     1     -34.788  40.729 -53.198  1.00  0.00    -0.084 N 
HETATM    4  C   UNL     1     -35.488  41.897 -53.047  1.00  0.00     0.725 A 
HETATM    5  N   UNL     1     -36.433  42.221 -53.949  1.00  0.00    -0.192 N 
HETATM    6  N   UNL     1     -33.997  40.497 -52.127  1.00  0.00    -0.149 NA
HETATM    7  C   UNL     1     -34.184  41.626 -51.434  1.00  0.00     0.275 A 
HETATM    8  N   UNL     1     -35.100  42.503 -51.955  1.00  0.00    -0.054 NA
HETATM    9  C   UNL     1     -36.778  41.409 -55.022  1.00  0.00     0.037 A 
HETATM   10  C   UNL     1     -37.893  41.922 -55.899  1.00  0.00     0.070 C 
HETATM   11  H   UNL     1     -36.942  43.093 -53.832  1.00  0.00     0.184 HD
ENDROOT
BRANCH   1  12
HETATM   12  C   UNL     1     -36.435  39.394 -56.398  1.00  0.00     0.256 C 
HETATM   13  N   UNL     1     -35.936  39.917 -57.571  1.00  0.00    -0.323 N 
HETATM   14  H   UNL     1     -35.414  40.779 -57.508  1.00  0.00     0.169 HD
HETATM   15  O   UNL     1     -37.050  38.347 -56.240  1.00  0.00    -0.267 OA
BRANCH  13  16
HETATM   16  C   UNL     1     -36.028  39.354 -58.870  1.00  0.00     0.041 A 
HETATM   17  C   UNL     1     -36.867  39.970 -59.823  1.00  0.00    -0.035 A 
HETATM   18  C   UNL     1     -36.944  39.440 -61.126  1.00  0.00     0.015 A 
HETATM   19  C   UNL     1     -37.698  41.185 -59.504  1.00  0.00     0.050 C 
HETATM   20  C   UNL     1     -36.217  38.302 -61.492  1.00  0.00    -0.061 A 
HETATM   21  C   UNL     1     -36.273  37.769 -62.893  1.00  0.00     0.048 C 
HETATM   22  C   UNL     1     -35.393  37.700 -60.543  1.00  0.00     0.009 A 
HETATM   23  C   UNL     1     -35.305  38.217 -59.247  1.00  0.00     0.030 A 
ENDBRANCH  13  16
ENDBRANCH   1  12
BRANCH   2  24
HETATM   24  C   UNL     1     -33.689  39.452 -54.982  1.00  0.00    -0.028 A 
HETATM   25  C   UNL     1     -32.897  40.441 -55.585  1.00  0.00     0.012 A 
HETATM   26  C   UNL     1     -31.689  40.103 -56.203  1.00  0.00     0.037 A 
HETATM   27  C   UNL     1     -31.232  38.784 -56.212  1.00  0.00     0.068 A 
HETATM   28  C   UNL     1     -31.999  37.797 -55.599  1.00  0.00     0.037 A 
HETATM   29  C   UNL     1     -33.216  38.128 -54.990  1.00  0.00     0.012 A 
BRANCH  27  30
HETATM   30  O   UNL     1     -30.033  38.595 -56.842  1.00  0.00    -0.356 OA
HETATM   31  C   UNL     1     -28.914  38.296 -56.016  1.00  0.00     0.210 C 
ENDBRANCH  27  30
ENDBRANCH   2  24
TORSDOF 4
ENDMDL
MODEL 10
REMARK VINA RESULT:      -7.3      2.766      6.814
REMARK  4 active torsions:
REMARK  status: ('A' for Active; 'I' for Inactive)
REMARK    1  A    between atoms: C_6  and  N_7 
REMARK       I    between atoms: N_7  and  C_8 
REMARK    2  A    between atoms: C_8  and  C_9 
REMARK    3  A    between atoms: C_10  and  C_11 
REMARK    4  A    between atoms: C_14  and  O_15 
ROOT
HETATM    1  C   UNL     1     -42.777  56.068 -53.788  1.00  0.00     0.062 A 
HETATM    2  C   UNL     1     -42.350  56.767 -52.505  1.00  0.00     0.202 A 
HETATM    3  N   UNL     1     -41.978  55.795 -51.467  1.00  0.00    -0.084 N 
HETATM    4  C   UNL     1     -42.031  54.437 -51.633  1.00  0.00     0.725 A 
HETATM    5  N   UNL     1     -42.460  53.931 -52.804  1.00  0.00    -0.192 N 
HETATM    6  N   UNL     1     -41.383  56.117 -50.297  1.00  0.00    -0.149 NA
HETATM    7  C   UNL     1     -41.217  54.902 -49.763  1.00  0.00     0.275 A 
HETATM    8  N   UNL     1     -41.587  53.846 -50.554  1.00  0.00    -0.054 NA
HETATM    9  C   UNL     1     -42.824  54.717 -53.890  1.00  0.00     0.037 A 
HETATM   10  C   UNL     1     -43.237  53.966 -55.132  1.00  0.00     0.070 C 
HETATM   11  H   UNL     1     -42.502  52.921 -52.915  1.00  0.00     0.184 HD
ENDROOT
BRANCH   1  12
HETATM   12  C   UNL     1     -43.235  56.919 -54.916  1.00  0.00     0.256 C 
HETATM   13  N   UNL     1     -42.224  57.236 -55.797  1.00  0.00    -0.323 N 
HETATM   14  H   UNL     1     -41.309  56.856 -55.605  1.00  0.00     0.169 HD
HETATM   15  O   UNL     1     -44.418  57.230 -54.980  1.00  0.00    -0.267 OA
BRANCH  13  16
HETATM   16  C   UNL     1     -42.330  58.004 -56.984  1.00  0.00     0.041 A 
HETATM   17  C   UNL     1     -42.732  57.366 -58.177  1.00  0.00    -0.035 A 
HETATM   18  C   UNL     1     -42.871  58.123 -59.357  1.00  0.00     0.015 A 
HETATM   19  C   UNL     1     -43.021  55.889 -58.246  1.00  0.00     0.050 C 
HETATM   20  C   UNL     1     -42.602  59.495 -59.376  1.00  0.00    -0.061 A 
HETATM   21  C   UNL     1     -42.793  60.301 -60.626  1.00  0.00     0.048 C 
HETATM   22  C   UNL     1     -42.204  60.116 -58.193  1.00  0.00     0.009 A 
HETATM   23  C   UNL     1     -42.064  59.378 -57.014  1.00  0.00     0.030 A 
ENDBRANCH  13  16
ENDBRANCH   1  12
BRANCH   2  24
HETATM   24  C   UNL     1     -43.355  57.769 -51.947  1.00  0.00    -0.028 A 
HETATM   25  C   UNL     1     -44.599  57.378 -51.428  1.00  0.00     0.012 A 
HETATM   26  C   UNL     1     -45.487  58.332 -50.920  1.00  0.00     0.037 A 
HETATM   27  C   UNL     1     -45.148  59.686 -50.895  1.00  0.00     0.068 A 
HETATM   28  C   UNL     1     -43.908  60.084 -51.389  1.00  0.00     0.037 A 
HETATM   29  C   UNL     1     -43.021  59.134 -51.909  1.00  0.00     0.012 A 
BRANCH  27  30
HETATM   30  O   UNL     1     -46.104  60.507 -50.364  1.00  0.00    -0.356 OA
HETATM   31  C   UNL     1     -45.704  61.342 -49.284  1.00  0.00     0.210 C 
ENDBRANCH  27  30
ENDBRANCH   2  24
TORSDOF 4
ENDMDL
