MODEL 1
REMARK VINA RESULT:      -7.6      0.000      0.000
REMARK  11 active torsions:
REMARK  status: ('A' for Active; 'I' for Inactive)
REMARK    1  A    between atoms: C_3  and  C_4 
REMARK    2  A    between atoms: C_4  and  O_5 
REMARK    3  A    between atoms: C_12  and  C_13 
REMARK    4  A    between atoms: C_13  and  C_14 
REMARK    5  A    between atoms: C_15  and  C_16 
REMARK    6  A    between atoms: C_18  and  N_19 
REMARK    7  A    between atoms: N_25  and  C_26 
REMARK    8  A    between atoms: C_26  and  C_27 
REMARK    9  A    between atoms: C_27  and  C_28 
REMARK   10  A    between atoms: C_28  and  N_29 
REMARK   11  A    between atoms: C_38  and  O_39 
ROOT
HETATM    1  C   UNL     1     -42.843  56.472 -53.524  1.00  0.00     0.059 C 
HETATM    2  C   UNL     1     -42.148  56.846 -52.236  1.00  0.00     0.161 C 
HETATM    3  N   UNL     1     -42.520  55.740 -51.367  1.00  0.00    -0.333 N 
HETATM    4  C   UNL     1     -43.253  54.798 -52.056  1.00  0.00     0.278 C 
HETATM    5  O   UNL     1     -43.528  53.681 -51.644  1.00  0.00    -0.265 OA
HETATM    6  C   UNL     1     -43.576  55.355 -53.392  1.00  0.00     0.146 C 
ENDROOT
BRANCH   1   7
HETATM    7  C   UNL     1     -42.582  57.365 -54.680  1.00  0.00     0.196 C 
HETATM    8  O   UNL     1     -41.510  57.952 -54.768  1.00  0.00    -0.287 OA
BRANCH   7   9
HETATM    9  C   UNL     1     -43.620  57.510 -55.697  1.00  0.00     0.045 A 
HETATM   10  C   UNL     1     -44.663  58.508 -55.685  1.00  0.00    -0.013 A 
HETATM   11  C   UNL     1     -44.894  59.515 -54.604  1.00  0.00     0.052 C 
HETATM   12  C   UNL     1     -45.373  58.390 -56.877  1.00  0.00     0.115 A 
HETATM   13  N   UNL     1     -44.827  57.330 -57.562  1.00  0.00    -0.354 N 
HETATM   14  H   UNL     1     -45.153  57.041 -58.479  1.00  0.00     0.166 HD
HETATM   15  C   UNL     1     -43.724  56.838 -56.909  1.00  0.00     0.020 A 
HETATM   16  C   UNL     1     -42.878  55.807 -57.572  1.00  0.00     0.069 C 
BRANCH  12  17
HETATM   17  C   UNL     1     -46.460  59.150 -57.462  1.00  0.00     0.310 C 
HETATM   18  O   UNL     1     -47.547  58.666 -57.748  1.00  0.00    -0.258 OA
BRANCH  17  19
HETATM   19  O   UNL     1     -46.093  60.438 -57.683  1.00  0.00    -0.321 OA
HETATM   20  C   UNL     1     -45.309  60.629 -58.861  1.00  0.00     0.213 C 
ENDBRANCH  17  19
ENDBRANCH  12  17
ENDBRANCH   7   9
ENDBRANCH   1   7
BRANCH   2  21
HETATM   21  C   UNL     1     -42.558  58.169 -51.609  1.00  0.00    -0.028 A 
HETATM   22  C   UNL     1     -43.901  58.482 -51.331  1.00  0.00     0.045 A 
HETATM   23  C   UNL     1     -44.236  59.727 -50.774  1.00  0.00     0.103 A 
HETATM   24  C   UNL     1     -43.244  60.663 -50.465  1.00  0.00     0.036 A 
HETATM   25  C   UNL     1     -41.910  60.351 -50.721  1.00  0.00     0.003 A 
HETATM   26  C   UNL     1     -41.572  59.119 -51.287  1.00  0.00     0.010 A 
BRANCH  23  27
HETATM   27  N   UNL     1     -45.646  60.045 -50.511  1.00  0.00    -0.116 N 
HETATM   28  O   UNL     1     -46.046  61.171 -50.841  1.00  0.00    -0.532 OA
HETATM   29  O   UNL     1     -46.352  59.166 -50.000  1.00  0.00    -0.532 OA
ENDBRANCH  23  27
ENDBRANCH   2  21
BRANCH   6  30
HETATM   30  O   UNL     1     -44.414  54.713 -54.250  1.00  0.00    -0.355 OA
HETATM   31  H   UNL     1     -43.930  54.039 -54.759  1.00  0.00     0.218 HD
ENDBRANCH   6  30
BRANCH   3  32
HETATM   32  C   UNL     1     -41.800  55.449 -50.140  1.00  0.00     0.129 C 
BRANCH  32  33
HETATM   33  C   UNL     1     -40.445  54.761 -50.344  1.00  0.00     0.048 C 
BRANCH  33  34
HETATM   34  C   UNL     1     -40.376  53.236 -50.200  1.00  0.00     0.236 C 
BRANCH  34  35
HETATM   35  N   UNL     1     -40.441  52.493 -51.506  1.00  0.00    -0.067 N 
HETATM   36  H   UNL     1     -41.392  52.071 -51.542  1.00  0.00     0.280 HD
HETATM   37  C   UNL     1     -40.181  53.325 -52.748  1.00  0.00     0.261 C 
HETATM   38  C   UNL     1     -40.327  52.451 -53.999  1.00  0.00     0.195 C 
HETATM   39  O   UNL     1     -39.441  51.329 -53.949  1.00  0.00    -0.388 OA
HETATM   40  C   UNL     1     -39.715  50.493 -52.817  1.00  0.00     0.195 C 
HETATM   41  C   UNL     1     -39.523  51.269 -51.507  1.00  0.00     0.261 C 
ENDBRANCH  34  35
ENDBRANCH  33  34
ENDBRANCH  32  33
ENDBRANCH   3  32
TORSDOF 11
ENDMDL
MODEL 2
REMARK VINA RESULT:      -7.4      2.295      7.902
REMARK  11 active torsions:
REMARK  status: ('A' for Active; 'I' for Inactive)
REMARK    1  A    between atoms: C_3  and  C_4 
REMARK    2  A    between atoms: C_4  and  O_5 
REMARK    3  A    between atoms: C_12  and  C_13 
REMARK    4  A    between atoms: C_13  and  C_14 
REMARK    5  A    between atoms: C_15  and  C_16 
REMARK    6  A    between atoms: C_18  and  N_19 
REMARK    7  A    between atoms: N_25  and  C_26 
REMARK    8  A    between atoms: C_26  and  C_27 
REMARK    9  A    between atoms: C_27  and  C_28 
REMARK   10  A    between atoms: C_28  and  N_29 
REMARK   11  A    between atoms: C_38  and  O_39 
ROOT
HETATM    1  C   UNL     1     -44.076  58.304 -52.825  1.00  0.00     0.059 C 
HETATM    2  C   UNL     1     -42.955  57.901 -53.754  1.00  0.00     0.161 C 
HETATM    3  N   UNL     1     -43.227  58.727 -54.921  1.00  0.00    -0.333 N 
HETATM    4  C   UNL     1     -44.297  59.566 -54.691  1.00  0.00     0.278 C 
HETATM    5  O   UNL     1     -44.625  60.500 -55.407  1.00  0.00    -0.265 OA
HETATM    6  C   UNL     1     -44.919  59.174 -53.403  1.00  0.00     0.146 C 
ENDROOT
BRANCH   1   7
HETATM    7  C   UNL     1     -44.037  57.702 -51.469  1.00  0.00     0.196 C 
HETATM    8  O   UNL     1     -45.061  57.645 -50.798  1.00  0.00    -0.287 OA
BRANCH   7   9
HETATM    9  C   UNL     1     -42.767  57.181 -50.973  1.00  0.00     0.045 A 
HETATM   10  C   UNL     1     -42.475  55.788 -50.734  1.00  0.00    -0.013 A 
HETATM   11  C   UNL     1     -43.439  54.656 -50.892  1.00  0.00     0.052 C 
HETATM   12  C   UNL     1     -41.131  55.693 -50.382  1.00  0.00     0.115 A 
HETATM   13  N   UNL     1     -40.636  56.975 -50.350  1.00  0.00    -0.354 N 
HETATM   14  H   UNL     1     -39.667  57.187 -50.136  1.00  0.00     0.166 HD
HETATM   15  C   UNL     1     -41.580  57.877 -50.778  1.00  0.00     0.020 A 
HETATM   16  C   UNL     1     -41.192  59.299 -50.993  1.00  0.00     0.069 C 
BRANCH  12  17
HETATM   17  C   UNL     1     -40.257  54.571 -50.106  1.00  0.00     0.310 C 
HETATM   18  O   UNL     1     -39.774  54.343 -49.004  1.00  0.00    -0.258 OA
BRANCH  17  19
HETATM   19  O   UNL     1     -40.018  53.848 -51.231  1.00  0.00    -0.321 OA
HETATM   20  C   UNL     1     -40.242  52.445 -51.083  1.00  0.00     0.213 C 
ENDBRANCH  17  19
ENDBRANCH  12  17
ENDBRANCH   7   9
ENDBRANCH   1   7
BRANCH   2  21
HETATM   21  C   UNL     1     -42.902  56.434 -54.149  1.00  0.00    -0.028 A 
HETATM   22  C   UNL     1     -41.686  55.737 -54.278  1.00  0.00     0.045 A 
HETATM   23  C   UNL     1     -41.683  54.388 -54.670  1.00  0.00     0.103 A 
HETATM   24  C   UNL     1     -42.882  53.712 -54.915  1.00  0.00     0.036 A 
HETATM   25  C   UNL     1     -44.090  54.392 -54.770  1.00  0.00     0.003 A 
HETATM   26  C   UNL     1     -44.099  55.738 -54.393  1.00  0.00     0.010 A 
BRANCH  23  27
HETATM   27  N   UNL     1     -40.403  53.683 -54.821  1.00  0.00    -0.116 N 
HETATM   28  O   UNL     1     -39.417  54.357 -55.150  1.00  0.00    -0.532 OA
HETATM   29  O   UNL     1     -40.382  52.467 -54.588  1.00  0.00    -0.532 OA
ENDBRANCH  23  27
ENDBRANCH   2  21
BRANCH   6  30
HETATM   30  O   UNL     1     -46.086  59.727 -52.977  1.00  0.00    -0.355 OA
HETATM   31  H   UNL     1     -46.183  59.618 -52.013  1.00  0.00     0.218 HD
ENDBRANCH   6  30
BRANCH   3  32
HETATM   32  C   UNL     1     -42.222  58.977 -55.938  1.00  0.00     0.129 C 
BRANCH  32  33
HETATM   33  C   UNL     1     -42.611  58.515 -57.347  1.00  0.00     0.048 C 
BRANCH  33  34
HETATM   34  C   UNL     1     -42.794  57.013 -57.594  1.00  0.00     0.236 C 
BRANCH  34  35
HETATM   35  N   UNL     1     -44.109  56.650 -58.226  1.00  0.00    -0.067 N 
HETATM   36  H   UNL     1     -44.577  56.009 -57.552  1.00  0.00     0.280 HD
HETATM   37  C   UNL     1     -45.017  57.817 -58.568  1.00  0.00     0.261 C 
HETATM   38  C   UNL     1     -46.333  57.296 -59.157  1.00  0.00     0.195 C 
HETATM   39  O   UNL     1     -46.095  56.487 -60.313  1.00  0.00    -0.388 OA
HETATM   40  C   UNL     1     -45.294  55.342 -59.996  1.00  0.00     0.195 C 
HETATM   41  C   UNL     1     -43.920  55.768 -59.462  1.00  0.00     0.261 C 
ENDBRANCH  34  35
ENDBRANCH  33  34
ENDBRANCH  32  33
ENDBRANCH   3  32
TORSDOF 11
ENDMDL
MODEL 3
REMARK VINA RESULT:      -7.4      1.200      2.024
REMARK  11 active torsions:
REMARK  status: ('A' for Active; 'I' for Inactive)
REMARK    1  A    between atoms: C_3  and  C_4 
REMARK    2  A    between atoms: C_4  and  O_5 
REMARK    3  A    between atoms: C_12  and  C_13 
REMARK    4  A    between atoms: C_13  and  C_14 
REMARK    5  A    between atoms: C_15  and  C_16 
REMARK    6  A    between atoms: C_18  and  N_19 
REMARK    7  A    between atoms: N_25  and  C_26 
REMARK    8  A    between atoms: C_26  and  C_27 
REMARK    9  A    between atoms: C_27  and  C_28 
REMARK   10  A    between atoms: C_28  and  N_29 
REMARK   11  A    between atoms: C_38  and  O_39 
ROOT
HETATM    1  C   UNL     1     -42.839  56.751 -53.567  1.00  0.00     0.059 C 
HETATM    2  C   UNL     1     -42.195  57.061 -52.237  1.00  0.00     0.161 C 
HETATM    3  N   UNL     1     -42.596  55.911 -51.439  1.00  0.00    -0.333 N 
HETATM    4  C   UNL     1     -43.298  55.004 -52.204  1.00  0.00     0.278 C 
HETATM    5  O   UNL     1     -43.584  53.867 -51.859  1.00  0.00    -0.265 OA
HETATM    6  C   UNL     1     -43.572  55.628 -53.521  1.00  0.00     0.146 C 
ENDROOT
BRANCH   1   7
HETATM    7  C   UNL     1     -42.538  57.702 -54.667  1.00  0.00     0.196 C 
HETATM    8  O   UNL     1     -41.421  58.198 -54.755  1.00  0.00    -0.287 OA
BRANCH   7   9
HETATM    9  C   UNL     1     -43.593  58.014 -55.627  1.00  0.00     0.045 A 
HETATM   10  C   UNL     1     -43.789  57.349 -56.893  1.00  0.00    -0.013 A 
HETATM   11  C   UNL     1     -42.912  56.279 -57.460  1.00  0.00     0.052 C 
HETATM   12  C   UNL     1     -44.960  57.850 -57.456  1.00  0.00     0.115 A 
HETATM   13  N   UNL     1     -45.429  58.819 -56.601  1.00  0.00    -0.354 N 
HETATM   14  H   UNL     1     -46.288  59.334 -56.769  1.00  0.00     0.166 HD
HETATM   15  C   UNL     1     -44.667  58.879 -55.459  1.00  0.00     0.020 A 
HETATM   16  C   UNL     1     -45.111  59.736 -54.325  1.00  0.00     0.069 C 
BRANCH  12  17
HETATM   17  C   UNL     1     -45.701  57.522 -58.657  1.00  0.00     0.310 C 
HETATM   18  O   UNL     1     -46.909  57.324 -58.675  1.00  0.00    -0.258 OA
BRANCH  17  19
HETATM   19  O   UNL     1     -44.874  57.422 -59.730  1.00  0.00    -0.321 OA
HETATM   20  C   UNL     1     -45.059  56.236 -60.503  1.00  0.00     0.213 C 
ENDBRANCH  17  19
ENDBRANCH  12  17
ENDBRANCH   7   9
ENDBRANCH   1   7
BRANCH   2  21
HETATM   21  C   UNL     1     -42.635  58.350 -51.559  1.00  0.00    -0.028 A 
HETATM   22  C   UNL     1     -43.972  58.583 -51.191  1.00  0.00     0.045 A 
HETATM   23  C   UNL     1     -44.337  59.800 -50.590  1.00  0.00     0.103 A 
HETATM   24  C   UNL     1     -43.378  60.784 -50.327  1.00  0.00     0.036 A 
HETATM   25  C   UNL     1     -42.049  60.549 -50.673  1.00  0.00     0.003 A 
HETATM   26  C   UNL     1     -41.682  59.346 -51.283  1.00  0.00     0.010 A 
BRANCH  23  27
HETATM   27  N   UNL     1     -45.742  60.036 -50.232  1.00  0.00    -0.116 N 
HETATM   28  O   UNL     1     -45.989  60.301 -49.047  1.00  0.00    -0.532 OA
HETATM   29  O   UNL     1     -46.587  59.979 -51.134  1.00  0.00    -0.532 OA
ENDBRANCH  23  27
ENDBRANCH   2  21
BRANCH   6  30
HETATM   30  O   UNL     1     -44.374  55.028 -54.441  1.00  0.00    -0.355 OA
HETATM   31  H   UNL     1     -44.179  55.364 -55.335  1.00  0.00     0.218 HD
ENDBRANCH   6  30
BRANCH   3  32
HETATM   32  C   UNL     1     -41.922  55.560 -50.203  1.00  0.00     0.129 C 
BRANCH  32  33
HETATM   33  C   UNL     1     -40.644  54.733 -50.385  1.00  0.00     0.048 C 
BRANCH  33  34
HETATM   34  C   UNL     1     -40.593  53.329 -49.772  1.00  0.00     0.236 C 
BRANCH  34  35
HETATM   35  N   UNL     1     -39.936  52.300 -50.649  1.00  0.00    -0.067 N 
HETATM   36  H   UNL     1     -38.914  52.491 -50.588  1.00  0.00     0.280 HD
HETATM   37  C   UNL     1     -40.227  50.853 -50.297  1.00  0.00     0.261 C 
HETATM   38  C   UNL     1     -39.456  49.923 -51.240  1.00  0.00     0.195 C 
HETATM   39  O   UNL     1     -39.787  50.185 -52.607  1.00  0.00    -0.388 OA
HETATM   40  C   UNL     1     -39.456  51.529 -52.978  1.00  0.00     0.195 C 
HETATM   41  C   UNL     1     -40.240  52.539 -52.130  1.00  0.00     0.261 C 
ENDBRANCH  34  35
ENDBRANCH  33  34
ENDBRANCH  32  33
ENDBRANCH   3  32
TORSDOF 11
ENDMDL
MODEL 4
REMARK VINA RESULT:      -7.3      2.495      8.035
REMARK  11 active torsions:
REMARK  status: ('A' for Active; 'I' for Inactive)
REMARK    1  A    between atoms: C_3  and  C_4 
REMARK    2  A    between atoms: C_4  and  O_5 
REMARK    3  A    between atoms: C_12  and  C_13 
REMARK    4  A    between atoms: C_13  and  C_14 
REMARK    5  A    between atoms: C_15  and  C_16 
REMARK    6  A    between atoms: C_18  and  N_19 
REMARK    7  A    between atoms: N_25  and  C_26 
REMARK    8  A    between atoms: C_26  and  C_27 
REMARK    9  A    between atoms: C_27  and  C_28 
REMARK   10  A    between atoms: C_28  and  N_29 
REMARK   11  A    between atoms: C_38  and  O_39 
ROOT
HETATM    1  C   UNL     1     -43.268  57.910 -51.537  1.00  0.00     0.059 C 
HETATM    2  C   UNL     1     -43.489  59.232 -52.233  1.00  0.00     0.161 C 
HETATM    3  N   UNL     1     -44.895  59.482 -51.954  1.00  0.00    -0.333 N 
HETATM    4  C   UNL     1     -45.416  58.503 -51.136  1.00  0.00     0.278 C 
HETATM    5  O   UNL     1     -46.503  58.556 -50.579  1.00  0.00    -0.265 OA
HETATM    6  C   UNL     1     -44.403  57.428 -51.004  1.00  0.00     0.146 C 
ENDROOT
BRANCH   1   7
HETATM    7  C   UNL     1     -41.874  57.402 -51.544  1.00  0.00     0.196 C 
HETATM    8  O   UNL     1     -40.940  58.182 -51.403  1.00  0.00    -0.287 OA
BRANCH   7   9
HETATM    9  C   UNL     1     -41.656  55.968 -51.711  1.00  0.00     0.045 A 
HETATM   10  C   UNL     1     -41.499  55.291 -52.976  1.00  0.00    -0.013 A 
HETATM   11  C   UNL     1     -41.598  55.930 -54.324  1.00  0.00     0.052 C 
HETATM   12  C   UNL     1     -41.194  53.960 -52.708  1.00  0.00     0.115 A 
HETATM   13  N   UNL     1     -41.219  53.813 -51.340  1.00  0.00    -0.354 N 
HETATM   14  H   UNL     1     -41.011  52.935 -50.876  1.00  0.00     0.166 HD
HETATM   15  C   UNL     1     -41.416  55.023 -50.720  1.00  0.00     0.020 A 
HETATM   16  C   UNL     1     -41.296  55.116 -49.238  1.00  0.00     0.069 C 
BRANCH  12  17
HETATM   17  C   UNL     1     -40.856  52.831 -53.552  1.00  0.00     0.310 C 
HETATM   18  O   UNL     1     -41.508  52.500 -54.533  1.00  0.00    -0.258 OA
BRANCH  17  19
HETATM   19  O   UNL     1     -39.761  52.179 -53.082  1.00  0.00    -0.321 OA
HETATM   20  C   UNL     1     -39.585  50.868 -53.621  1.00  0.00     0.213 C 
ENDBRANCH  17  19
ENDBRANCH  12  17
ENDBRANCH   7   9
ENDBRANCH   1   7
BRANCH   2  21
HETATM   21  C   UNL     1     -43.238  59.254 -53.733  1.00  0.00    -0.028 A 
HETATM   22  C   UNL     1     -44.067  58.569 -54.640  1.00  0.00     0.045 A 
HETATM   23  C   UNL     1     -43.782  58.597 -56.016  1.00  0.00     0.103 A 
HETATM   24  C   UNL     1     -42.691  59.321 -56.506  1.00  0.00     0.036 A 
HETATM   25  C   UNL     1     -41.878  60.016 -55.613  1.00  0.00     0.003 A 
HETATM   26  C   UNL     1     -42.148  59.982 -54.242  1.00  0.00     0.010 A 
BRANCH  23  27
HETATM   27  N   UNL     1     -44.645  57.858 -56.947  1.00  0.00    -0.116 N 
HETATM   28  O   UNL     1     -45.855  58.129 -56.938  1.00  0.00    -0.532 OA
HETATM   29  O   UNL     1     -44.113  57.031 -57.698  1.00  0.00    -0.532 OA
ENDBRANCH  23  27
ENDBRANCH   2  21
BRANCH   6  30
HETATM   30  O   UNL     1     -44.683  56.257 -50.372  1.00  0.00    -0.355 OA
HETATM   31  H   UNL     1     -44.477  56.324 -49.422  1.00  0.00     0.218 HD
ENDBRANCH   6  30
BRANCH   3  32
HETATM   32  C   UNL     1     -45.484  60.802 -52.093  1.00  0.00     0.129 C 
BRANCH  32  33
HETATM   33  C   UNL     1     -45.092  61.794 -50.992  1.00  0.00     0.048 C 
BRANCH  33  34
HETATM   34  C   UNL     1     -46.210  62.448 -50.171  1.00  0.00     0.236 C 
BRANCH  34  35
HETATM   35  N   UNL     1     -46.003  62.373 -48.684  1.00  0.00    -0.067 N 
HETATM   36  H   UNL     1     -45.227  63.035 -48.475  1.00  0.00     0.280 HD
HETATM   37  C   UNL     1     -47.219  62.696 -47.835  1.00  0.00     0.261 C 
HETATM   38  C   UNL     1     -46.848  62.627 -46.349  1.00  0.00     0.195 C 
HETATM   39  O   UNL     1     -46.322  61.341 -46.008  1.00  0.00    -0.388 OA
HETATM   40  C   UNL     1     -45.133  61.046 -46.753  1.00  0.00     0.195 C 
HETATM   41  C   UNL     1     -45.424  61.022 -48.259  1.00  0.00     0.261 C 
ENDBRANCH  34  35
ENDBRANCH  33  34
ENDBRANCH  32  33
ENDBRANCH   3  32
TORSDOF 11
ENDMDL
MODEL 5
REMARK VINA RESULT:      -7.3      2.526      8.551
REMARK  11 active torsions:
REMARK  status: ('A' for Active; 'I' for Inactive)
REMARK    1  A    between atoms: C_3  and  C_4 
REMARK    2  A    between atoms: C_4  and  O_5 
REMARK    3  A    between atoms: C_12  and  C_13 
REMARK    4  A    between atoms: C_13  and  C_14 
REMARK    5  A    between atoms: C_15  and  C_16 
REMARK    6  A    between atoms: C_18  and  N_19 
REMARK    7  A    between atoms: N_25  and  C_26 
REMARK    8  A    between atoms: C_26  and  C_27 
REMARK    9  A    between atoms: C_27  and  C_28 
REMARK   10  A    between atoms: C_28  and  N_29 
REMARK   11  A    between atoms: C_38  and  O_39 
ROOT
HETATM    1  C   UNL     1     -43.428  56.674 -53.485  1.00  0.00     0.059 C 
HETATM    2  C   UNL     1     -42.790  57.627 -54.467  1.00  0.00     0.161 C 
HETATM    3  N   UNL     1     -43.013  58.912 -53.820  1.00  0.00    -0.333 N 
HETATM    4  C   UNL     1     -43.613  58.745 -52.591  1.00  0.00     0.278 C 
HETATM    5  O   UNL     1     -43.738  59.618 -51.745  1.00  0.00    -0.265 OA
HETATM    6  C   UNL     1     -44.007  57.321 -52.461  1.00  0.00     0.146 C 
ENDROOT
BRANCH   1   7
HETATM    7  C   UNL     1     -43.288  55.231 -53.803  1.00  0.00     0.196 C 
HETATM    8  O   UNL     1     -44.125  54.676 -54.505  1.00  0.00    -0.287 OA
BRANCH   7   9
HETATM    9  C   UNL     1     -42.136  54.508 -53.270  1.00  0.00     0.045 A 
HETATM   10  C   UNL     1     -42.068  53.897 -51.964  1.00  0.00    -0.013 A 
HETATM   11  C   UNL     1     -43.136  53.955 -50.918  1.00  0.00     0.052 C 
HETATM   12  C   UNL     1     -40.860  53.211 -51.881  1.00  0.00     0.115 A 
HETATM   13  N   UNL     1     -40.192  53.439 -53.061  1.00  0.00    -0.354 N 
HETATM   14  H   UNL     1     -39.284  53.033 -53.268  1.00  0.00     0.166 HD
HETATM   15  C   UNL     1     -40.973  54.149 -53.940  1.00  0.00     0.020 A 
HETATM   16  C   UNL     1     -40.508  54.347 -55.341  1.00  0.00     0.069 C 
BRANCH  12  17
HETATM   17  C   UNL     1     -40.273  52.357 -50.868  1.00  0.00     0.310 C 
HETATM   18  O   UNL     1     -40.363  52.571 -49.667  1.00  0.00    -0.258 OA
BRANCH  17  19
HETATM   19  O   UNL     1     -39.585  51.331 -51.432  1.00  0.00    -0.321 OA
HETATM   20  C   UNL     1     -39.740  50.081 -50.759  1.00  0.00     0.213 C 
ENDBRANCH  17  19
ENDBRANCH  12  17
ENDBRANCH   7   9
ENDBRANCH   1   7
BRANCH   2  21
HETATM   21  C   UNL     1     -43.373  57.638 -55.872  1.00  0.00    -0.028 A 
HETATM   22  C   UNL     1     -42.616  57.269 -56.999  1.00  0.00     0.045 A 
HETATM   23  C   UNL     1     -43.188  57.318 -58.281  1.00  0.00     0.103 A 
HETATM   24  C   UNL     1     -44.520  57.709 -58.456  1.00  0.00     0.036 A 
HETATM   25  C   UNL     1     -45.279  58.058 -57.341  1.00  0.00     0.003 A 
HETATM   26  C   UNL     1     -44.711  58.024 -56.064  1.00  0.00     0.010 A 
BRANCH  23  27
HETATM   27  N   UNL     1     -42.377  56.950 -59.449  1.00  0.00    -0.116 N 
HETATM   28  O   UNL     1     -41.534  57.771 -59.838  1.00  0.00    -0.532 OA
HETATM   29  O   UNL     1     -42.566  55.837 -59.958  1.00  0.00    -0.532 OA
ENDBRANCH  23  27
ENDBRANCH   2  21
BRANCH   6  30
HETATM   30  O   UNL     1     -44.752  56.879 -51.413  1.00  0.00    -0.355 OA
HETATM   31  H   UNL     1     -45.198  56.043 -51.640  1.00  0.00     0.218 HD
ENDBRANCH   6  30
BRANCH   3  32
HETATM   32  C   UNL     1     -42.261  60.098 -54.186  1.00  0.00     0.129 C 
BRANCH  32  33
HETATM   33  C   UNL     1     -43.111  61.242 -54.752  1.00  0.00     0.048 C 
BRANCH  33  34
HETATM   34  C   UNL     1     -43.201  62.546 -53.949  1.00  0.00     0.236 C 
BRANCH  34  35
HETATM   35  N   UNL     1     -43.882  62.399 -52.617  1.00  0.00    -0.067 N 
HETATM   36  H   UNL     1     -43.810  61.389 -52.374  1.00  0.00     0.280 HD
HETATM   37  C   UNL     1     -43.323  63.256 -51.496  1.00  0.00     0.261 C 
HETATM   38  C   UNL     1     -44.079  62.967 -50.194  1.00  0.00     0.195 C 
HETATM   39  O   UNL     1     -45.482  63.197 -50.352  1.00  0.00    -0.388 OA
HETATM   40  C   UNL     1     -46.043  62.347 -51.361  1.00  0.00     0.195 C 
HETATM   41  C   UNL     1     -45.393  62.618 -52.724  1.00  0.00     0.261 C 
ENDBRANCH  34  35
ENDBRANCH  33  34
ENDBRANCH  32  33
ENDBRANCH   3  32
TORSDOF 11
ENDMDL
MODEL 6
REMARK VINA RESULT:      -7.2      2.197      7.609
REMARK  11 active torsions:
REMARK  status: ('A' for Active; 'I' for Inactive)
REMARK    1  A    between atoms: C_3  and  C_4 
REMARK    2  A    between atoms: C_4  and  O_5 
REMARK    3  A    between atoms: C_12  and  C_13 
REMARK    4  A    between atoms: C_13  and  C_14 
REMARK    5  A    between atoms: C_15  and  C_16 
REMARK    6  A    between atoms: C_18  and  N_19 
REMARK    7  A    between atoms: N_25  and  C_26 
REMARK    8  A    between atoms: C_26  and  C_27 
REMARK    9  A    between atoms: C_27  and  C_28 
REMARK   10  A    between atoms: C_28  and  N_29 
REMARK   11  A    between atoms: C_38  and  O_39 
ROOT
HETATM    1  C   UNL     1     -43.350  55.955 -55.291  1.00  0.00     0.059 C 
HETATM    2  C   UNL     1     -44.012  57.158 -54.662  1.00  0.00     0.161 C 
HETATM    3  N   UNL     1     -43.895  58.148 -55.722  1.00  0.00    -0.333 N 
HETATM    4  C   UNL     1     -43.331  57.594 -56.851  1.00  0.00     0.278 C 
HETATM    5  O   UNL     1     -43.293  58.125 -57.951  1.00  0.00    -0.265 OA
HETATM    6  C   UNL     1     -42.852  56.234 -56.505  1.00  0.00     0.146 C 
ENDROOT
BRANCH   1   7
HETATM    7  C   UNL     1     -43.386  54.706 -54.489  1.00  0.00     0.196 C 
HETATM    8  O   UNL     1     -44.334  53.937 -54.600  1.00  0.00    -0.287 OA
BRANCH   7   9
HETATM    9  C   UNL     1     -42.272  54.423 -53.589  1.00  0.00     0.045 A 
HETATM   10  C   UNL     1     -42.382  54.228 -52.163  1.00  0.00    -0.013 A 
HETATM   11  C   UNL     1     -43.639  54.346 -51.362  1.00  0.00     0.052 C 
HETATM   12  C   UNL     1     -41.125  53.865 -51.689  1.00  0.00     0.115 A 
HETATM   13  N   UNL     1     -40.270  53.893 -52.765  1.00  0.00    -0.354 N 
HETATM   14  H   UNL     1     -39.287  53.649 -52.695  1.00  0.00     0.166 HD
HETATM   15  C   UNL     1     -40.953  54.148 -53.929  1.00  0.00     0.020 A 
HETATM   16  C   UNL     1     -40.243  54.042 -55.235  1.00  0.00     0.069 C 
BRANCH  12  17
HETATM   17  C   UNL     1     -40.634  53.472 -50.383  1.00  0.00     0.310 C 
HETATM   18  O   UNL     1     -40.372  52.316 -50.077  1.00  0.00    -0.258 OA
BRANCH  17  19
HETATM   19  O   UNL     1     -40.552  54.541 -49.549  1.00  0.00    -0.321 OA
HETATM   20  C   UNL     1     -40.457  54.199 -48.166  1.00  0.00     0.213 C 
ENDBRANCH  17  19
ENDBRANCH  12  17
ENDBRANCH   7   9
ENDBRANCH   1   7
BRANCH   2  21
HETATM   21  C   UNL     1     -43.380  57.682 -53.381  1.00  0.00    -0.028 A 
HETATM   22  C   UNL     1     -42.031  58.076 -53.320  1.00  0.00     0.045 A 
HETATM   23  C   UNL     1     -41.483  58.531 -52.108  1.00  0.00     0.103 A 
HETATM   24  C   UNL     1     -42.271  58.621 -50.956  1.00  0.00     0.036 A 
HETATM   25  C   UNL     1     -43.613  58.250 -51.017  1.00  0.00     0.003 A 
HETATM   26  C   UNL     1     -44.160  57.784 -52.216  1.00  0.00     0.010 A 
BRANCH  23  27
HETATM   27  N   UNL     1     -40.067  58.918 -52.056  1.00  0.00    -0.116 N 
HETATM   28  O   UNL     1     -39.476  59.059 -53.136  1.00  0.00    -0.532 OA
HETATM   29  O   UNL     1     -39.558  59.101 -50.943  1.00  0.00    -0.532 OA
ENDBRANCH  23  27
ENDBRANCH   2  21
BRANCH   6  30
HETATM   30  O   UNL     1     -42.119  55.492 -57.378  1.00  0.00    -0.355 OA
HETATM   31  H   UNL     1     -41.628  56.070 -57.990  1.00  0.00     0.218 HD
ENDBRANCH   6  30
BRANCH   3  32
HETATM   32  C   UNL     1     -44.707  59.351 -55.745  1.00  0.00     0.129 C 
BRANCH  32  33
HETATM   33  C   UNL     1     -43.957  60.634 -55.372  1.00  0.00     0.048 C 
BRANCH  33  34
HETATM   34  C   UNL     1     -44.695  61.694 -54.546  1.00  0.00     0.236 C 
BRANCH  34  35
HETATM   35  N   UNL     1     -44.781  61.379 -53.078  1.00  0.00    -0.067 N 
HETATM   36  H   UNL     1     -44.392  60.418 -52.975  1.00  0.00     0.280 HD
HETATM   37  C   UNL     1     -44.062  62.345 -52.155  1.00  0.00     0.261 C 
HETATM   38  C   UNL     1     -44.195  61.873 -50.703  1.00  0.00     0.195 C 
HETATM   39  O   UNL     1     -45.569  61.744 -50.327  1.00  0.00    -0.388 OA
HETATM   40  C   UNL     1     -46.249  60.783 -51.145  1.00  0.00     0.195 C 
HETATM   41  C   UNL     1     -46.231  61.211 -52.618  1.00  0.00     0.261 C 
ENDBRANCH  34  35
ENDBRANCH  33  34
ENDBRANCH  32  33
ENDBRANCH   3  32
TORSDOF 11
ENDMDL
MODEL 7
REMARK VINA RESULT:      -7.2      2.399      8.152
REMARK  11 active torsions:
REMARK  status: ('A' for Active; 'I' for Inactive)
REMARK    1  A    between atoms: C_3  and  C_4 
REMARK    2  A    between atoms: C_4  and  O_5 
REMARK    3  A    between atoms: C_12  and  C_13 
REMARK    4  A    between atoms: C_13  and  C_14 
REMARK    5  A    between atoms: C_15  and  C_16 
REMARK    6  A    between atoms: C_18  and  N_19 
REMARK    7  A    between atoms: N_25  and  C_26 
REMARK    8  A    between atoms: C_26  and  C_27 
REMARK    9  A    between atoms: C_27  and  C_28 
REMARK   10  A    between atoms: C_28  and  N_29 
REMARK   11  A    between atoms: C_38  and  O_39 
ROOT
HETATM    1  C   UNL     1     -43.125  57.678 -51.875  1.00  0.00     0.059 C 
HETATM    2  C   UNL     1     -43.489  58.808 -52.808  1.00  0.00     0.161 C 
HETATM    3  N   UNL     1     -44.857  59.096 -52.404  1.00  0.00    -0.333 N 
HETATM    4  C   UNL     1     -45.226  58.317 -51.329  1.00  0.00     0.278 C 
HETATM    5  O   UNL     1     -46.234  58.479 -50.656  1.00  0.00    -0.265 OA
HETATM    6  C   UNL     1     -44.159  57.313 -51.101  1.00  0.00     0.146 C 
ENDROOT
BRANCH   1   7
HETATM    7  C   UNL     1     -41.722  57.199 -51.957  1.00  0.00     0.196 C 
HETATM    8  O   UNL     1     -40.804  58.008 -52.017  1.00  0.00    -0.287 OA
BRANCH   7   9
HETATM    9  C   UNL     1     -41.475  55.760 -51.955  1.00  0.00     0.045 A 
HETATM   10  C   UNL     1     -41.220  54.957 -53.127  1.00  0.00    -0.013 A 
HETATM   11  C   UNL     1     -41.227  55.450 -54.539  1.00  0.00     0.052 C 
HETATM   12  C   UNL     1     -40.919  53.668 -52.697  1.00  0.00     0.115 A 
HETATM   13  N   UNL     1     -41.042  53.665 -51.328  1.00  0.00    -0.354 N 
HETATM   14  H   UNL     1     -40.858  52.845 -50.760  1.00  0.00     0.166 HD
HETATM   15  C   UNL     1     -41.298  54.929 -50.855  1.00  0.00     0.020 A 
HETATM   16  C   UNL     1     -41.287  55.180 -49.387  1.00  0.00     0.069 C 
BRANCH  12  17
HETATM   17  C   UNL     1     -40.508  52.463 -53.391  1.00  0.00     0.310 C 
HETATM   18  O   UNL     1     -41.136  51.966 -54.316  1.00  0.00    -0.258 OA
BRANCH  17  19
HETATM   19  O   UNL     1     -39.373  51.950 -52.849  1.00  0.00    -0.321 OA
HETATM   20  C   UNL     1     -39.549  50.682 -52.216  1.00  0.00     0.213 C 
ENDBRANCH  17  19
ENDBRANCH  12  17
ENDBRANCH   7   9
ENDBRANCH   1   7
BRANCH   2  21
HETATM   21  C   UNL     1     -43.433  58.498 -54.296  1.00  0.00    -0.028 A 
HETATM   22  C   UNL     1     -42.620  59.226 -55.182  1.00  0.00     0.045 A 
HETATM   23  C   UNL     1     -42.620  58.921 -56.554  1.00  0.00     0.103 A 
HETATM   24  C   UNL     1     -43.406  57.878 -57.054  1.00  0.00     0.036 A 
HETATM   25  C   UNL     1     -44.199  57.141 -56.177  1.00  0.00     0.003 A 
HETATM   26  C   UNL     1     -44.213  57.449 -54.814  1.00  0.00     0.010 A 
BRANCH  23  27
HETATM   27  N   UNL     1     -41.781  59.706 -57.469  1.00  0.00    -0.116 N 
HETATM   28  O   UNL     1     -41.646  59.279 -58.624  1.00  0.00    -0.532 OA
HETATM   29  O   UNL     1     -41.281  60.754 -57.040  1.00  0.00    -0.532 OA
ENDBRANCH  23  27
ENDBRANCH   2  21
BRANCH   6  30
HETATM   30  O   UNL     1     -44.306  56.308 -50.196  1.00  0.00    -0.355 OA
HETATM   31  H   UNL     1     -44.651  56.656 -49.354  1.00  0.00     0.218 HD
ENDBRANCH   6  30
BRANCH   3  32
HETATM   32  C   UNL     1     -45.514  60.344 -52.749  1.00  0.00     0.129 C 
BRANCH  32  33
HETATM   33  C   UNL     1     -44.575  61.551 -52.856  1.00  0.00     0.048 C 
BRANCH  33  34
HETATM   34  C   UNL     1     -44.414  62.457 -51.630  1.00  0.00     0.236 C 
BRANCH  34  35
HETATM   35  N   UNL     1     -45.233  62.035 -50.443  1.00  0.00    -0.067 N 
HETATM   36  H   UNL     1     -45.971  61.406 -50.821  1.00  0.00     0.280 HD
HETATM   37  C   UNL     1     -44.469  61.348 -49.327  1.00  0.00     0.261 C 
HETATM   38  C   UNL     1     -45.436  60.934 -48.212  1.00  0.00     0.195 C 
HETATM   39  O   UNL     1     -46.155  62.063 -47.709  1.00  0.00    -0.388 OA
HETATM   40  C   UNL     1     -46.938  62.687 -48.735  1.00  0.00     0.195 C 
HETATM   41  C   UNL     1     -46.042  63.201 -49.868  1.00  0.00     0.261 C 
ENDBRANCH  34  35
ENDBRANCH  33  34
ENDBRANCH  32  33
ENDBRANCH   3  32
TORSDOF 11
ENDMDL
MODEL 8
REMARK VINA RESULT:      -7.2      2.012      4.158
REMARK  11 active torsions:
REMARK  status: ('A' for Active; 'I' for Inactive)
REMARK    1  A    between atoms: C_3  and  C_4 
REMARK    2  A    between atoms: C_4  and  O_5 
REMARK    3  A    between atoms: C_12  and  C_13 
REMARK    4  A    between atoms: C_13  and  C_14 
REMARK    5  A    between atoms: C_15  and  C_16 
REMARK    6  A    between atoms: C_18  and  N_19 
REMARK    7  A    between atoms: N_25  and  C_26 
REMARK    8  A    between atoms: C_26  and  C_27 
REMARK    9  A    between atoms: C_27  and  C_28 
REMARK   10  A    between atoms: C_28  and  N_29 
REMARK   11  A    between atoms: C_38  and  O_39 
ROOT
HETATM    1  C   UNL     1     -42.791  57.820 -55.682  1.00  0.00     0.059 C 
HETATM    2  C   UNL     1     -41.721  57.035 -54.961  1.00  0.00     0.161 C 
HETATM    3  N   UNL     1     -41.911  55.701 -55.512  1.00  0.00    -0.333 N 
HETATM    4  C   UNL     1     -42.888  55.706 -56.485  1.00  0.00     0.278 C 
HETATM    5  O   UNL     1     -43.121  54.784 -57.252  1.00  0.00    -0.265 OA
HETATM    6  C   UNL     1     -43.543  57.037 -56.472  1.00  0.00     0.146 C 
ENDROOT
BRANCH   1   7
HETATM    7  C   UNL     1     -42.810  59.280 -55.416  1.00  0.00     0.196 C 
HETATM    8  O   UNL     1     -41.876  59.980 -55.791  1.00  0.00    -0.287 OA
BRANCH   7   9
HETATM    9  C   UNL     1     -43.959  59.847 -54.716  1.00  0.00     0.045 A 
HETATM   10  C   UNL     1     -43.949  60.335 -53.357  1.00  0.00    -0.013 A 
HETATM   11  C   UNL     1     -42.783  60.283 -52.422  1.00  0.00     0.052 C 
HETATM   12  C   UNL     1     -45.195  60.900 -53.103  1.00  0.00     0.115 A 
HETATM   13  N   UNL     1     -45.955  60.715 -54.234  1.00  0.00    -0.354 N 
HETATM   14  H   UNL     1     -46.908  61.053 -54.319  1.00  0.00     0.166 HD
HETATM   15  C   UNL     1     -45.208  60.156 -55.242  1.00  0.00     0.020 A 
HETATM   16  C   UNL     1     -45.790  60.039 -56.608  1.00  0.00     0.069 C 
BRANCH  12  17
HETATM   17  C   UNL     1     -45.749  61.606 -51.965  1.00  0.00     0.310 C 
HETATM   18  O   UNL     1     -45.703  62.823 -51.835  1.00  0.00    -0.258 OA
BRANCH  17  19
HETATM   19  O   UNL     1     -46.274  60.741 -51.060  1.00  0.00    -0.321 OA
HETATM   20  C   UNL     1     -45.501  60.599 -49.868  1.00  0.00     0.213 C 
ENDBRANCH  17  19
ENDBRANCH  12  17
ENDBRANCH   7   9
ENDBRANCH   1   7
BRANCH   2  21
HETATM   21  C   UNL     1     -41.820  56.996 -53.444  1.00  0.00    -0.028 A 
HETATM   22  C   UNL     1     -42.977  56.550 -52.781  1.00  0.00     0.045 A 
HETATM   23  C   UNL     1     -43.033  56.556 -51.377  1.00  0.00     0.103 A 
HETATM   24  C   UNL     1     -41.936  56.980 -50.619  1.00  0.00     0.036 A 
HETATM   25  C   UNL     1     -40.780  57.404 -51.272  1.00  0.00     0.003 A 
HETATM   26  C   UNL     1     -40.724  57.414 -52.668  1.00  0.00     0.010 A 
BRANCH  23  27
HETATM   27  N   UNL     1     -44.257  56.108 -50.700  1.00  0.00    -0.116 N 
HETATM   28  O   UNL     1     -45.169  56.936 -50.567  1.00  0.00    -0.532 OA
HETATM   29  O   UNL     1     -44.313  54.929 -50.327  1.00  0.00    -0.532 OA
ENDBRANCH  23  27
ENDBRANCH   2  21
BRANCH   6  30
HETATM   30  O   UNL     1     -44.645  57.297 -57.225  1.00  0.00    -0.355 OA
HETATM   31  H   UNL     1     -44.473  58.034 -57.838  1.00  0.00     0.218 HD
ENDBRANCH   6  30
BRANCH   3  32
HETATM   32  C   UNL     1     -40.889  54.675 -55.413  1.00  0.00     0.129 C 
BRANCH  32  33
HETATM   33  C   UNL     1     -41.226  53.530 -54.451  1.00  0.00     0.048 C 
BRANCH  33  34
HETATM   34  C   UNL     1     -40.474  53.458 -53.116  1.00  0.00     0.236 C 
BRANCH  34  35
HETATM   35  N   UNL     1     -40.420  52.080 -52.517  1.00  0.00    -0.067 N 
HETATM   36  H   UNL     1     -41.408  51.755 -52.472  1.00  0.00     0.280 HD
HETATM   37  C   UNL     1     -39.562  51.074 -53.260  1.00  0.00     0.261 C 
HETATM   38  C   UNL     1     -39.640  49.710 -52.565  1.00  0.00     0.195 C 
HETATM   39  O   UNL     1     -39.233  49.805 -51.197  1.00  0.00    -0.388 OA
HETATM   40  C   UNL     1     -40.075  50.702 -50.460  1.00  0.00     0.195 C 
HETATM   41  C   UNL     1     -40.006  52.119 -51.044  1.00  0.00     0.261 C 
ENDBRANCH  34  35
ENDBRANCH  33  34
ENDBRANCH  32  33
ENDBRANCH   3  32
TORSDOF 11
ENDMDL
MODEL 9
REMARK VINA RESULT:      -7.1      2.593      8.437
REMARK  11 active torsions:
REMARK  status: ('A' for Active; 'I' for Inactive)
REMARK    1  A    between atoms: C_3  and  C_4 
REMARK    2  A    between atoms: C_4  and  O_5 
REMARK    3  A    between atoms: C_12  and  C_13 
REMARK    4  A    between atoms: C_13  and  C_14 
REMARK    5  A    between atoms: C_15  and  C_16 
REMARK    6  A    between atoms: C_18  and  N_19 
REMARK    7  A    between atoms: N_25  and  C_26 
REMARK    8  A    between atoms: C_26  and  C_27 
REMARK    9  A    between atoms: C_27  and  C_28 
REMARK   10  A    between atoms: C_28  and  N_29 
REMARK   11  A    between atoms: C_38  and  O_39 
ROOT
HETATM    1  C   UNL     1     -43.618  56.706 -53.595  1.00  0.00     0.059 C 
HETATM    2  C   UNL     1     -43.055  57.668 -54.615  1.00  0.00     0.161 C 
HETATM    3  N   UNL     1     -43.354  58.955 -54.004  1.00  0.00    -0.333 N 
HETATM    4  C   UNL     1     -43.928  58.788 -52.762  1.00  0.00     0.278 C 
HETATM    5  O   UNL     1     -44.099  59.677 -51.942  1.00  0.00    -0.265 OA
HETATM    6  C   UNL     1     -44.226  57.346 -52.584  1.00  0.00     0.146 C 
ENDROOT
BRANCH   1   7
HETATM    7  C   UNL     1     -43.388  55.266 -53.870  1.00  0.00     0.196 C 
HETATM    8  O   UNL     1     -44.152  54.656 -54.609  1.00  0.00    -0.287 OA
BRANCH   7   9
HETATM    9  C   UNL     1     -42.237  54.613 -53.253  1.00  0.00     0.045 A 
HETATM   10  C   UNL     1     -42.237  53.979 -51.956  1.00  0.00    -0.013 A 
HETATM   11  C   UNL     1     -43.390  53.940 -51.005  1.00  0.00     0.052 C 
HETATM   12  C   UNL     1     -40.994  53.377 -51.781  1.00  0.00     0.115 A 
HETATM   13  N   UNL     1     -40.246  53.677 -52.896  1.00  0.00    -0.354 N 
HETATM   14  H   UNL     1     -39.298  53.340 -53.030  1.00  0.00     0.166 HD
HETATM   15  C   UNL     1     -40.999  54.351 -53.826  1.00  0.00     0.020 A 
HETATM   16  C   UNL     1     -40.433  54.611 -55.179  1.00  0.00     0.069 C 
BRANCH  12  17
HETATM   17  C   UNL     1     -40.435  52.543 -50.736  1.00  0.00     0.310 C 
HETATM   18  O   UNL     1     -40.482  52.827 -49.546  1.00  0.00    -0.258 OA
BRANCH  17  19
HETATM   19  O   UNL     1     -39.825  51.447 -51.257  1.00  0.00    -0.321 OA
HETATM   20  C   UNL     1     -39.983  50.263 -50.475  1.00  0.00     0.213 C 
ENDBRANCH  17  19
ENDBRANCH  12  17
ENDBRANCH   7   9
ENDBRANCH   1   7
BRANCH   2  21
HETATM   21  C   UNL     1     -43.653  57.596 -56.011  1.00  0.00    -0.028 A 
HETATM   22  C   UNL     1     -42.907  57.167 -57.124  1.00  0.00     0.045 A 
HETATM   23  C   UNL     1     -43.494  57.141 -58.400  1.00  0.00     0.103 A 
HETATM   24  C   UNL     1     -44.829  57.517 -58.581  1.00  0.00     0.036 A 
HETATM   25  C   UNL     1     -45.578  57.926 -57.479  1.00  0.00     0.003 A 
HETATM   26  C   UNL     1     -44.996  57.966 -56.209  1.00  0.00     0.010 A 
BRANCH  23  27
HETATM   27  N   UNL     1     -42.695  56.710 -59.554  1.00  0.00    -0.116 N 
HETATM   28  O   UNL     1     -41.636  57.318 -59.771  1.00  0.00    -0.532 OA
HETATM   29  O   UNL     1     -43.112  55.756 -60.224  1.00  0.00    -0.532 OA
ENDBRANCH  23  27
ENDBRANCH   2  21
BRANCH   6  30
HETATM   30  O   UNL     1     -44.929  56.890 -51.512  1.00  0.00    -0.355 OA
HETATM   31  H   UNL     1     -45.854  57.192 -51.557  1.00  0.00     0.218 HD
ENDBRANCH   6  30
BRANCH   3  32
HETATM   32  C   UNL     1     -42.685  60.175 -54.417  1.00  0.00     0.129 C 
BRANCH  32  33
HETATM   33  C   UNL     1     -43.603  61.217 -55.067  1.00  0.00     0.048 C 
BRANCH  33  34
HETATM   34  C   UNL     1     -42.964  62.309 -55.933  1.00  0.00     0.236 C 
BRANCH  34  35
HETATM   35  N   UNL     1     -42.911  61.978 -57.398  1.00  0.00    -0.067 N 
HETATM   36  H   UNL     1     -42.840  62.892 -57.890  1.00  0.00     0.280 HD
HETATM   37  C   UNL     1     -41.781  61.058 -57.823  1.00  0.00     0.261 C 
HETATM   38  C   UNL     1     -41.824  60.849 -59.341  1.00  0.00     0.195 C 
HETATM   39  O   UNL     1     -43.088  60.318 -59.752  1.00  0.00    -0.388 OA
HETATM   40  C   UNL     1     -44.163  61.206 -59.419  1.00  0.00     0.195 C 
HETATM   41  C   UNL     1     -44.244  61.420 -57.902  1.00  0.00     0.261 C 
ENDBRANCH  34  35
ENDBRANCH  33  34
ENDBRANCH  32  33
ENDBRANCH   3  32
TORSDOF 11
ENDMDL
MODEL 10
REMARK VINA RESULT:      -7.0      2.713      7.666
REMARK  11 active torsions:
REMARK  status: ('A' for Active; 'I' for Inactive)
REMARK    1  A    between atoms: C_3  and  C_4 
REMARK    2  A    between atoms: C_4  and  O_5 
REMARK    3  A    between atoms: C_12  and  C_13 
REMARK    4  A    between atoms: C_13  and  C_14 
REMARK    5  A    between atoms: C_15  and  C_16 
REMARK    6  A    between atoms: C_18  and  N_19 
REMARK    7  A    between atoms: N_25  and  C_26 
REMARK    8  A    between atoms: C_26  and  C_27 
REMARK    9  A    between atoms: C_27  and  C_28 
REMARK   10  A    between atoms: C_28  and  N_29 
REMARK   11  A    between atoms: C_38  and  O_39 
ROOT
HETATM    1  C   UNL     1     -43.421  55.896 -55.379  1.00  0.00     0.059 C 
HETATM    2  C   UNL     1     -44.132  57.083 -54.774  1.00  0.00     0.161 C 
HETATM    3  N   UNL     1     -44.026  58.066 -55.841  1.00  0.00    -0.333 N 
HETATM    4  C   UNL     1     -43.423  57.521 -56.954  1.00  0.00     0.278 C 
HETATM    5  O   UNL     1     -43.380  58.043 -58.058  1.00  0.00    -0.265 OA
HETATM    6  C   UNL     1     -42.908  56.180 -56.586  1.00  0.00     0.146 C 
ENDROOT
BRANCH   1   7
HETATM    7  C   UNL     1     -43.433  54.654 -54.566  1.00  0.00     0.196 C 
HETATM    8  O   UNL     1     -44.309  53.816 -54.746  1.00  0.00    -0.287 OA
BRANCH   7   9
HETATM    9  C   UNL     1     -42.382  54.461 -53.571  1.00  0.00     0.045 A 
HETATM   10  C   UNL     1     -42.601  54.188 -52.171  1.00  0.00    -0.013 A 
HETATM   11  C   UNL     1     -43.933  54.119 -51.495  1.00  0.00     0.052 C 
HETATM   12  C   UNL     1     -41.359  53.953 -51.587  1.00  0.00     0.115 A 
HETATM   13  N   UNL     1     -40.417  54.132 -52.572  1.00  0.00    -0.354 N 
HETATM   14  H   UNL     1     -39.423  54.002 -52.414  1.00  0.00     0.166 HD
HETATM   15  C   UNL     1     -41.013  54.360 -53.788  1.00  0.00     0.020 A 
HETATM   16  C   UNL     1     -40.176  54.400 -55.020  1.00  0.00     0.069 C 
BRANCH  12  17
HETATM   17  C   UNL     1     -40.950  53.559 -50.254  1.00  0.00     0.310 C 
HETATM   18  O   UNL     1     -40.221  52.603 -50.024  1.00  0.00    -0.258 OA
BRANCH  17  19
HETATM   19  O   UNL     1     -41.515  54.359 -49.313  1.00  0.00    -0.321 OA
HETATM   20  C   UNL     1     -41.157  55.736 -49.424  1.00  0.00     0.213 C 
ENDBRANCH  17  19
ENDBRANCH  12  17
ENDBRANCH   7   9
ENDBRANCH   1   7
BRANCH   2  21
HETATM   21  C   UNL     1     -43.542  57.638 -53.487  1.00  0.00    -0.028 A 
HETATM   22  C   UNL     1     -42.192  58.019 -53.386  1.00  0.00     0.045 A 
HETATM   23  C   UNL     1     -41.684  58.503 -52.168  1.00  0.00     0.103 A 
HETATM   24  C   UNL     1     -42.513  58.638 -51.050  1.00  0.00     0.036 A 
HETATM   25  C   UNL     1     -43.856  58.280 -51.151  1.00  0.00     0.003 A 
HETATM   26  C   UNL     1     -44.364  57.785 -52.355  1.00  0.00     0.010 A 
BRANCH  23  27
HETATM   27  N   UNL     1     -40.266  58.876 -52.074  1.00  0.00    -0.116 N 
HETATM   28  O   UNL     1     -39.673  59.127 -53.133  1.00  0.00    -0.532 OA
HETATM   29  O   UNL     1     -39.758  58.939 -50.948  1.00  0.00    -0.532 OA
ENDBRANCH  23  27
ENDBRANCH   2  21
BRANCH   6  30
HETATM   30  O   UNL     1     -42.135  55.454 -57.438  1.00  0.00    -0.355 OA
HETATM   31  H   UNL     1     -41.407  55.999 -57.787  1.00  0.00     0.218 HD
ENDBRANCH   6  30
BRANCH   3  32
HETATM   32  C   UNL     1     -44.876  59.243 -55.891  1.00  0.00     0.129 C 
BRANCH  32  33
HETATM   33  C   UNL     1     -44.122  60.577 -55.830  1.00  0.00     0.048 C 
BRANCH  33  34
HETATM   34  C   UNL     1     -44.107  61.461 -57.083  1.00  0.00     0.236 C 
BRANCH  34  35
HETATM   35  N   UNL     1     -42.925  61.230 -57.982  1.00  0.00    -0.067 N 
HETATM   36  H   UNL     1     -42.468  60.364 -57.628  1.00  0.00     0.280 HD
HETATM   37  C   UNL     1     -43.239  61.099 -59.460  1.00  0.00     0.261 C 
HETATM   38  C   UNL     1     -41.951  60.821 -60.244  1.00  0.00     0.195 C 
HETATM   39  O   UNL     1     -40.982  61.850 -60.024  1.00  0.00    -0.388 OA
HETATM   40  C   UNL     1     -40.621  61.944 -58.640  1.00  0.00     0.195 C 
HETATM   41  C   UNL     1     -41.843  62.293 -57.780  1.00  0.00     0.261 C 
ENDBRANCH  34  35
ENDBRANCH  33  34
ENDBRANCH  32  33
ENDBRANCH   3  32
TORSDOF 11
ENDMDL
