MODEL 1
REMARK VINA RESULT:      -8.8      0.000      0.000
REMARK  9 active torsions:
REMARK  status: ('A' for Active; 'I' for Inactive)
REMARK    1  A    between atoms: C_6  and  C_7 
REMARK    2  A    between atoms: C_7  and  C_8 
REMARK       I    between atoms: C_8  and  N_9 
REMARK    3  A    between atoms: N_9  and  C_10 
REMARK    4  A    between atoms: C_10  and  C_11 
REMARK    5  A    between atoms: C_11  and  N_12 
REMARK    6  A    between atoms: C_17  and  C_18 
REMARK    7  A    between atoms: C_21  and  C_22 
REMARK    8  A    between atoms: C_29  and  C_30 
REMARK       I    between atoms: C_30  and  N_31 
REMARK    9  A    between atoms: N_31  and  C_32 
ROOT
HETATM    1  C   UNL     1     -42.098  60.150 -56.401  1.00  0.00     0.071 C 
HETATM    2  C   UNL     1     -41.815  59.184 -55.278  1.00  0.00     0.047 C 
HETATM    3  N   UNL     1     -41.340  59.801 -54.104  1.00  0.00    -0.229 NA
HETATM    4  C   UNL     1     -41.638  59.227 -52.979  1.00  0.00     0.170 C 
HETATM    5  N   UNL     1     -42.336  57.789 -52.920  1.00  0.00    -0.319 N 
HETATM    6  C   UNL     1     -43.433  58.087 -52.284  1.00  0.00     0.011 C 
HETATM    7  C   UNL     1     -41.782  57.098 -54.095  1.00  0.00     0.165 C 
HETATM    8  S   UNL     1     -41.767  60.018 -51.440  1.00  0.00    -0.086 SA
HETATM    9  C   UNL     1     -43.095  58.811 -50.977  1.00  0.00     0.135 C 
HETATM   10  C   UNL     1     -42.140  57.863 -55.317  1.00  0.00     0.062 C 
ENDROOT
BRANCH   6  11
HETATM   11  C   UNL     1     -44.686  58.439 -53.046  1.00  0.00     0.156 C 
BRANCH  11  12
HETATM   12  C   UNL     1     -45.164  59.861 -53.087  1.00  0.00     0.223 C 
HETATM   13  N   UNL     1     -46.196  60.109 -52.200  1.00  0.00    -0.359 N 
HETATM   14  H   UNL     1     -46.102  59.643 -51.289  1.00  0.00     0.162 HD
HETATM   15  O   UNL     1     -44.764  60.653 -53.925  1.00  0.00    -0.273 OA
BRANCH  13  16
HETATM   16  C   UNL     1     -46.880  61.402 -52.155  1.00  0.00     0.150 C 
BRANCH  16  17
HETATM   17  C   UNL     1     -46.570  62.201 -50.872  1.00  0.00     0.253 C 
BRANCH  17  18
HETATM   18  N   UNL     1     -45.292  61.699 -50.200  1.00  0.00    -0.077 N 
HETATM   19  H   UNL     1     -44.957  60.924 -50.785  1.00  0.00     0.279 HD
HETATM   20  C   UNL     1     -44.188  62.719 -50.139  1.00  0.00     0.269 C 
HETATM   21  C   UNL     1     -45.570  61.136 -48.828  1.00  0.00     0.269 C 
ENDBRANCH  17  18
ENDBRANCH  16  17
ENDBRANCH  13  16
ENDBRANCH  11  12
ENDBRANCH   6  11
BRANCH   7  22
HETATM   22  C   UNL     1     -41.530  55.605 -54.065  1.00  0.00    -0.030 A 
HETATM   23  C   UNL     1     -41.859  54.764 -52.999  1.00  0.00     0.010 A 
HETATM   24  C   UNL     1     -41.279  53.485 -52.906  1.00  0.00     0.008 A 
HETATM   25  C   UNL     1     -40.377  53.012 -53.876  1.00  0.00    -0.055 A 
HETATM   26  C   UNL     1     -40.145  53.803 -54.999  1.00  0.00     0.008 A 
HETATM   27  C   UNL     1     -40.694  55.080 -55.083  1.00  0.00     0.010 A 
BRANCH  25  28
HETATM   28  C   UNL     1     -39.647  51.690 -53.669  1.00  0.00     0.010 C 
HETATM   29  C   UNL     1     -39.481  51.378 -52.183  1.00  0.00     0.015 C 
HETATM   30  C   UNL     1     -40.319  50.507 -54.386  1.00  0.00     0.015 C 
ENDBRANCH  25  28
ENDBRANCH   7  22
BRANCH  10  31
HETATM   31  C   UNL     1     -43.223  57.377 -56.215  1.00  0.00     0.256 C 
HETATM   32  N   UNL     1     -42.871  57.139 -57.516  1.00  0.00    -0.323 N 
HETATM   33  H   UNL     1     -41.935  57.357 -57.836  1.00  0.00     0.169 HD
HETATM   34  O   UNL     1     -44.281  57.049 -55.674  1.00  0.00    -0.267 OA
BRANCH  32  35
HETATM   35  C   UNL     1     -43.657  56.473 -58.487  1.00  0.00     0.035 A 
HETATM   36  C   UNL     1     -43.635  55.091 -58.692  1.00  0.00     0.029 A 
HETATM   37  C   UNL     1     -44.428  54.511 -59.688  1.00  0.00     0.002 A 
HETATM   38  C   UNL     1     -45.242  55.307 -60.489  1.00  0.00     0.000 A 
HETATM   39  C   UNL     1     -45.279  56.683 -60.285  1.00  0.00     0.002 A 
HETATM   40  C   UNL     1     -44.499  57.263 -59.280  1.00  0.00     0.029 A 
ENDBRANCH  32  35
ENDBRANCH  10  31
TORSDOF 9
ENDMDL
MODEL 2
REMARK VINA RESULT:      -8.5      1.559      2.791
REMARK  9 active torsions:
REMARK  status: ('A' for Active; 'I' for Inactive)
REMARK    1  A    between atoms: C_6  and  C_7 
REMARK    2  A    between atoms: C_7  and  C_8 
REMARK       I    between atoms: C_8  and  N_9 
REMARK    3  A    between atoms: N_9  and  C_10 
REMARK    4  A    between atoms: C_10  and  C_11 
REMARK    5  A    between atoms: C_11  and  N_12 
REMARK    6  A    between atoms: C_17  and  C_18 
REMARK    7  A    between atoms: C_21  and  C_22 
REMARK    8  A    between atoms: C_29  and  C_30 
REMARK       I    between atoms: C_30  and  N_31 
REMARK    9  A    between atoms: N_31  and  C_32 
ROOT
HETATM    1  C   UNL     1     -42.202  60.254 -56.390  1.00  0.00     0.071 C 
HETATM    2  C   UNL     1     -41.932  59.270 -55.278  1.00  0.00     0.047 C 
HETATM    3  N   UNL     1     -41.500  59.872 -54.080  1.00  0.00    -0.229 NA
HETATM    4  C   UNL     1     -41.819  59.272 -52.974  1.00  0.00     0.170 C 
HETATM    5  N   UNL     1     -42.494  57.821 -52.962  1.00  0.00    -0.319 N 
HETATM    6  C   UNL     1     -43.612  58.089 -52.351  1.00  0.00     0.011 C 
HETATM    7  C   UNL     1     -41.896  57.162 -54.135  1.00  0.00     0.165 C 
HETATM    8  S   UNL     1     -42.003  60.031 -51.424  1.00  0.00    -0.086 SA
HETATM    9  C   UNL     1     -43.322  58.793 -51.021  1.00  0.00     0.135 C 
HETATM   10  C   UNL     1     -42.234  57.946 -55.350  1.00  0.00     0.062 C 
ENDROOT
BRANCH   6  11
HETATM   11  C   UNL     1     -44.850  58.435 -53.141  1.00  0.00     0.156 C 
BRANCH  11  12
HETATM   12  C   UNL     1     -45.153  59.867 -53.469  1.00  0.00     0.223 C 
HETATM   13  N   UNL     1     -45.448  60.064 -54.806  1.00  0.00    -0.359 N 
HETATM   14  H   UNL     1     -46.020  59.325 -55.234  1.00  0.00     0.162 HD
HETATM   15  O   UNL     1     -45.005  60.762 -52.652  1.00  0.00    -0.273 OA
BRANCH  13  16
HETATM   16  C   UNL     1     -45.668  61.401 -55.359  1.00  0.00     0.150 C 
BRANCH  16  17
HETATM   17  C   UNL     1     -46.766  61.430 -56.442  1.00  0.00     0.253 C 
BRANCH  17  18
HETATM   18  N   UNL     1     -46.559  60.319 -57.473  1.00  0.00    -0.077 N 
HETATM   19  H   UNL     1     -46.292  59.487 -56.934  1.00  0.00     0.279 HD
HETATM   20  C   UNL     1     -47.798  59.965 -58.251  1.00  0.00     0.269 C 
HETATM   21  C   UNL     1     -45.417  60.633 -58.406  1.00  0.00     0.269 C 
ENDBRANCH  17  18
ENDBRANCH  16  17
ENDBRANCH  13  16
ENDBRANCH  11  12
ENDBRANCH   6  11
BRANCH   7  22
HETATM   22  C   UNL     1     -41.619  55.674 -54.126  1.00  0.00    -0.030 A 
HETATM   23  C   UNL     1     -42.018  54.797 -53.115  1.00  0.00     0.010 A 
HETATM   24  C   UNL     1     -41.423  53.525 -53.011  1.00  0.00     0.008 A 
HETATM   25  C   UNL     1     -40.437  53.095 -53.916  1.00  0.00    -0.055 A 
HETATM   26  C   UNL     1     -40.130  53.923 -54.993  1.00  0.00     0.008 A 
HETATM   27  C   UNL     1     -40.694  55.193 -55.086  1.00  0.00     0.010 A 
BRANCH  25  28
HETATM   28  C   UNL     1     -39.702  51.780 -53.688  1.00  0.00     0.010 C 
HETATM   29  C   UNL     1     -39.543  51.489 -52.196  1.00  0.00     0.015 C 
HETATM   30  C   UNL     1     -40.364  50.584 -54.392  1.00  0.00     0.015 C 
ENDBRANCH  25  28
ENDBRANCH   7  22
BRANCH  10  31
HETATM   31  C   UNL     1     -43.283  57.459 -56.287  1.00  0.00     0.256 C 
HETATM   32  N   UNL     1     -42.858  57.083 -57.533  1.00  0.00    -0.323 N 
HETATM   33  H   UNL     1     -41.888  57.206 -57.796  1.00  0.00     0.169 HD
HETATM   34  O   UNL     1     -44.399  57.255 -55.805  1.00  0.00    -0.267 OA
BRANCH  32  35
HETATM   35  C   UNL     1     -43.621  56.391 -58.504  1.00  0.00     0.035 A 
HETATM   36  C   UNL     1     -43.638  55.000 -58.634  1.00  0.00     0.029 A 
HETATM   37  C   UNL     1     -44.403  54.392 -59.635  1.00  0.00     0.002 A 
HETATM   38  C   UNL     1     -45.151  55.169 -60.516  1.00  0.00     0.000 A 
HETATM   39  C   UNL     1     -45.149  56.555 -60.387  1.00  0.00     0.002 A 
HETATM   40  C   UNL     1     -44.398  57.163 -59.378  1.00  0.00     0.029 A 
ENDBRANCH  32  35
ENDBRANCH  10  31
TORSDOF 9
ENDMDL
MODEL 3
REMARK VINA RESULT:      -7.9      3.404      7.239
REMARK  9 active torsions:
REMARK  status: ('A' for Active; 'I' for Inactive)
REMARK    1  A    between atoms: C_6  and  C_7 
REMARK    2  A    between atoms: C_7  and  C_8 
REMARK       I    between atoms: C_8  and  N_9 
REMARK    3  A    between atoms: N_9  and  C_10 
REMARK    4  A    between atoms: C_10  and  C_11 
REMARK    5  A    between atoms: C_11  and  N_12 
REMARK    6  A    between atoms: C_17  and  C_18 
REMARK    7  A    between atoms: C_21  and  C_22 
REMARK    8  A    between atoms: C_29  and  C_30 
REMARK       I    between atoms: C_30  and  N_31 
REMARK    9  A    between atoms: N_31  and  C_32 
ROOT
HETATM    1  C   UNL     1     -45.500  59.713 -55.644  1.00  0.00     0.071 C 
HETATM    2  C   UNL     1     -44.915  58.413 -56.137  1.00  0.00     0.047 C 
HETATM    3  N   UNL     1     -45.400  58.015 -57.398  1.00  0.00    -0.229 NA
HETATM    4  C   UNL     1     -44.591  57.329 -58.147  1.00  0.00     0.170 C 
HETATM    5  N   UNL     1     -43.189  56.785 -57.602  1.00  0.00    -0.319 N 
HETATM    6  C   UNL     1     -42.373  57.376 -58.427  1.00  0.00     0.011 C 
HETATM    7  C   UNL     1     -43.465  56.503 -56.184  1.00  0.00     0.165 C 
HETATM    8  S   UNL     1     -44.629  57.256 -59.880  1.00  0.00    -0.086 SA
HETATM    9  C   UNL     1     -42.784  57.074 -59.871  1.00  0.00     0.135 C 
HETATM   10  C   UNL     1     -43.894  57.760 -55.519  1.00  0.00     0.062 C 
ENDROOT
BRANCH   6  11
HETATM   11  C   UNL     1     -41.762  58.709 -58.073  1.00  0.00     0.156 C 
BRANCH  11  12
HETATM   12  C   UNL     1     -42.257  59.960 -58.737  1.00  0.00     0.223 C 
HETATM   13  N   UNL     1     -41.361  60.472 -59.658  1.00  0.00    -0.359 N 
HETATM   14  H   UNL     1     -40.877  59.766 -60.227  1.00  0.00     0.162 HD
HETATM   15  O   UNL     1     -43.279  60.521 -58.378  1.00  0.00    -0.273 OA
BRANCH  13  16
HETATM   16  C   UNL     1     -41.599  61.745 -60.341  1.00  0.00     0.150 C 
BRANCH  16  17
HETATM   17  C   UNL     1     -41.788  61.584 -61.864  1.00  0.00     0.253 C 
BRANCH  17  18
HETATM   18  N   UNL     1     -40.601  62.163 -62.634  1.00  0.00    -0.077 N 
HETATM   19  H   UNL     1     -40.038  61.355 -62.925  1.00  0.00     0.279 HD
HETATM   20  C   UNL     1     -40.985  62.908 -63.884  1.00  0.00     0.269 C 
HETATM   21  C   UNL     1     -39.730  63.021 -61.752  1.00  0.00     0.269 C 
ENDBRANCH  17  18
ENDBRANCH  16  17
ENDBRANCH  13  16
ENDBRANCH  11  12
ENDBRANCH   6  11
BRANCH   7  22
HETATM   22  C   UNL     1     -42.779  55.353 -55.477  1.00  0.00    -0.030 A 
HETATM   23  C   UNL     1     -43.276  54.707 -54.343  1.00  0.00     0.010 A 
HETATM   24  C   UNL     1     -42.424  53.908 -53.558  1.00  0.00     0.008 A 
HETATM   25  C   UNL     1     -41.071  53.723 -53.892  1.00  0.00    -0.055 A 
HETATM   26  C   UNL     1     -40.609  54.269 -55.087  1.00  0.00     0.008 A 
HETATM   27  C   UNL     1     -41.440  55.083 -55.854  1.00  0.00     0.010 A 
BRANCH  25  28
HETATM   28  C   UNL     1     -40.136  52.982 -52.942  1.00  0.00     0.010 C 
HETATM   29  C   UNL     1     -40.669  53.012 -51.510  1.00  0.00     0.015 C 
HETATM   30  C   UNL     1     -39.858  51.533 -53.372  1.00  0.00     0.015 C 
ENDBRANCH  25  28
ENDBRANCH   7  22
BRANCH  10  31
HETATM   31  C   UNL     1     -42.953  58.496 -54.631  1.00  0.00     0.256 C 
HETATM   32  N   UNL     1     -43.086  58.273 -53.287  1.00  0.00    -0.323 N 
HETATM   33  H   UNL     1     -43.837  57.688 -52.943  1.00  0.00     0.169 HD
HETATM   34  O   UNL     1     -42.022  59.085 -55.184  1.00  0.00    -0.267 OA
BRANCH  32  35
HETATM   35  C   UNL     1     -42.179  58.678 -52.278  1.00  0.00     0.035 A 
HETATM   36  C   UNL     1     -41.000  57.996 -51.972  1.00  0.00     0.029 A 
HETATM   37  C   UNL     1     -40.166  58.450 -50.944  1.00  0.00     0.002 A 
HETATM   38  C   UNL     1     -40.509  59.583 -50.211  1.00  0.00     0.000 A 
HETATM   39  C   UNL     1     -41.677  60.276 -50.517  1.00  0.00     0.002 A 
HETATM   40  C   UNL     1     -42.503  59.833 -51.553  1.00  0.00     0.029 A 
ENDBRANCH  32  35
ENDBRANCH  10  31
TORSDOF 9
ENDMDL
MODEL 4
REMARK VINA RESULT:      -7.9      2.924      6.487
REMARK  9 active torsions:
REMARK  status: ('A' for Active; 'I' for Inactive)
REMARK    1  A    between atoms: C_6  and  C_7 
REMARK    2  A    between atoms: C_7  and  C_8 
REMARK       I    between atoms: C_8  and  N_9 
REMARK    3  A    between atoms: N_9  and  C_10 
REMARK    4  A    between atoms: C_10  and  C_11 
REMARK    5  A    between atoms: C_11  and  N_12 
REMARK    6  A    between atoms: C_17  and  C_18 
REMARK    7  A    between atoms: C_21  and  C_22 
REMARK    8  A    between atoms: C_29  and  C_30 
REMARK       I    between atoms: C_30  and  N_31 
REMARK    9  A    between atoms: N_31  and  C_32 
ROOT
HETATM    1  C   UNL     1     -45.531  59.684 -55.742  1.00  0.00     0.071 C 
HETATM    2  C   UNL     1     -44.926  58.393 -56.234  1.00  0.00     0.047 C 
HETATM    3  N   UNL     1     -45.384  58.000 -57.507  1.00  0.00    -0.229 NA
HETATM    4  C   UNL     1     -44.555  57.327 -58.246  1.00  0.00     0.170 C 
HETATM    5  N   UNL     1     -43.158  56.791 -57.679  1.00  0.00    -0.319 N 
HETATM    6  C   UNL     1     -42.333  57.396 -58.485  1.00  0.00     0.011 C 
HETATM    7  C   UNL     1     -43.458  56.497 -56.269  1.00  0.00     0.165 C 
HETATM    8  S   UNL     1     -44.560  57.267 -59.980  1.00  0.00    -0.086 SA
HETATM    9  C   UNL     1     -42.715  57.102 -59.939  1.00  0.00     0.135 C 
HETATM   10  C   UNL     1     -43.910  57.744 -55.602  1.00  0.00     0.062 C 
ENDROOT
BRANCH   6  11
HETATM   11  C   UNL     1     -41.741  58.732 -58.109  1.00  0.00     0.156 C 
BRANCH  11  12
HETATM   12  C   UNL     1     -42.171  59.972 -58.835  1.00  0.00     0.223 C 
HETATM   13  N   UNL     1     -43.227  60.619 -58.220  1.00  0.00    -0.359 N 
HETATM   14  H   UNL     1     -43.183  60.635 -57.194  1.00  0.00     0.162 HD
HETATM   15  O   UNL     1     -41.714  60.273 -59.927  1.00  0.00    -0.273 OA
BRANCH  13  16
HETATM   16  C   UNL     1     -43.871  61.788 -58.820  1.00  0.00     0.150 C 
BRANCH  16  17
HETATM   17  C   UNL     1     -45.407  61.771 -58.671  1.00  0.00     0.253 C 
BRANCH  17  18
HETATM   18  N   UNL     1     -46.027  60.606 -59.444  1.00  0.00    -0.077 N 
HETATM   19  H   UNL     1     -45.557  59.761 -59.095  1.00  0.00     0.279 HD
HETATM   20  C   UNL     1     -47.502  60.425 -59.204  1.00  0.00     0.269 C 
HETATM   21  C   UNL     1     -45.737  60.701 -60.920  1.00  0.00     0.269 C 
ENDBRANCH  17  18
ENDBRANCH  16  17
ENDBRANCH  13  16
ENDBRANCH  11  12
ENDBRANCH   6  11
BRANCH   7  22
HETATM   22  C   UNL     1     -42.774  55.347 -55.558  1.00  0.00    -0.030 A 
HETATM   23  C   UNL     1     -43.286  54.688 -54.438  1.00  0.00     0.010 A 
HETATM   24  C   UNL     1     -42.441  53.891 -53.643  1.00  0.00     0.008 A 
HETATM   25  C   UNL     1     -41.080  53.720 -53.954  1.00  0.00    -0.055 A 
HETATM   26  C   UNL     1     -40.602  54.279 -55.137  1.00  0.00     0.008 A 
HETATM   27  C   UNL     1     -41.426  55.092 -55.913  1.00  0.00     0.010 A 
BRANCH  25  28
HETATM   28  C   UNL     1     -40.157  52.981 -52.993  1.00  0.00     0.010 C 
HETATM   29  C   UNL     1     -40.708  53.008 -51.568  1.00  0.00     0.015 C 
HETATM   30  C   UNL     1     -39.869  51.532 -53.421  1.00  0.00     0.015 C 
ENDBRANCH  25  28
ENDBRANCH   7  22
BRANCH  10  31
HETATM   31  C   UNL     1     -42.992  58.482 -54.692  1.00  0.00     0.256 C 
HETATM   32  N   UNL     1     -43.145  58.243 -53.353  1.00  0.00    -0.323 N 
HETATM   33  H   UNL     1     -43.894  57.646 -53.026  1.00  0.00     0.169 HD
HETATM   34  O   UNL     1     -42.059  59.087 -55.223  1.00  0.00    -0.267 OA
BRANCH  32  35
HETATM   35  C   UNL     1     -42.259  58.649 -52.325  1.00  0.00     0.035 A 
HETATM   36  C   UNL     1     -41.093  57.959 -51.985  1.00  0.00     0.029 A 
HETATM   37  C   UNL     1     -40.281  58.414 -50.941  1.00  0.00     0.002 A 
HETATM   38  C   UNL     1     -40.632  59.555 -50.225  1.00  0.00     0.000 A 
HETATM   39  C   UNL     1     -41.786  60.255 -50.563  1.00  0.00     0.002 A 
HETATM   40  C   UNL     1     -42.591  59.811 -51.616  1.00  0.00     0.029 A 
ENDBRANCH  32  35
ENDBRANCH  10  31
TORSDOF 9
ENDMDL
MODEL 5
REMARK VINA RESULT:      -7.2      2.318      4.202
REMARK  9 active torsions:
REMARK  status: ('A' for Active; 'I' for Inactive)
REMARK    1  A    between atoms: C_6  and  C_7 
REMARK    2  A    between atoms: C_7  and  C_8 
REMARK       I    between atoms: C_8  and  N_9 
REMARK    3  A    between atoms: N_9  and  C_10 
REMARK    4  A    between atoms: C_10  and  C_11 
REMARK    5  A    between atoms: C_11  and  N_12 
REMARK    6  A    between atoms: C_17  and  C_18 
REMARK    7  A    between atoms: C_21  and  C_22 
REMARK    8  A    between atoms: C_29  and  C_30 
REMARK       I    between atoms: C_30  and  N_31 
REMARK    9  A    between atoms: N_31  and  C_32 
ROOT
HETATM    1  C   UNL     1     -41.814  59.373 -58.391  1.00  0.00     0.071 C 
HETATM    2  C   UNL     1     -41.884  58.982 -56.935  1.00  0.00     0.047 C 
HETATM    3  N   UNL     1     -41.690  60.058 -56.048  1.00  0.00    -0.229 NA
HETATM    4  C   UNL     1     -42.299  59.992 -54.904  1.00  0.00     0.170 C 
HETATM    5  N   UNL     1     -43.072  58.674 -54.431  1.00  0.00    -0.319 N 
HETATM    6  C   UNL     1     -44.275  59.150 -54.282  1.00  0.00     0.011 C 
HETATM    7  C   UNL     1     -42.278  57.587 -55.025  1.00  0.00     0.165 C 
HETATM    8  S   UNL     1     -42.771  61.346 -53.926  1.00  0.00    -0.086 SA
HETATM    9  C   UNL     1     -44.241  60.371 -53.359  1.00  0.00     0.135 C 
HETATM   10  C   UNL     1     -42.266  57.751 -56.501  1.00  0.00     0.062 C 
ENDROOT
BRANCH   6  11
HETATM   11  C   UNL     1     -45.270  59.081 -55.416  1.00  0.00     0.156 C 
BRANCH  11  12
HETATM   12  C   UNL     1     -45.683  60.335 -56.127  1.00  0.00     0.223 C 
HETATM   13  N   UNL     1     -44.819  60.685 -57.149  1.00  0.00    -0.359 N 
HETATM   14  H   UNL     1     -44.463  59.896 -57.702  1.00  0.00     0.162 HD
HETATM   15  O   UNL     1     -46.605  61.029 -55.730  1.00  0.00    -0.273 OA
BRANCH  13  16
HETATM   16  C   UNL     1     -44.977  61.932 -57.900  1.00  0.00     0.150 C 
BRANCH  16  17
HETATM   17  C   UNL     1     -44.612  61.785 -59.392  1.00  0.00     0.253 C 
BRANCH  17  18
HETATM   18  N   UNL     1     -45.225  60.519 -59.991  1.00  0.00    -0.077 N 
HETATM   19  H   UNL     1     -45.250  59.834 -59.227  1.00  0.00     0.279 HD
HETATM   20  C   UNL     1     -46.638  60.693 -60.479  1.00  0.00     0.269 C 
HETATM   21  C   UNL     1     -44.355  59.943 -61.080  1.00  0.00     0.269 C 
ENDBRANCH  17  18
ENDBRANCH  16  17
ENDBRANCH  13  16
ENDBRANCH  11  12
ENDBRANCH   6  11
BRANCH   7  22
HETATM   22  C   UNL     1     -42.130  56.260 -54.311  1.00  0.00    -0.030 A 
HETATM   23  C   UNL     1     -42.939  55.830 -53.255  1.00  0.00     0.010 A 
HETATM   24  C   UNL     1     -42.517  54.769 -52.432  1.00  0.00     0.008 A 
HETATM   25  C   UNL     1     -41.297  54.105 -52.651  1.00  0.00    -0.055 A 
HETATM   26  C   UNL     1     -40.552  54.454 -53.776  1.00  0.00     0.008 A 
HETATM   27  C   UNL     1     -40.950  55.522 -54.577  1.00  0.00     0.010 A 
BRANCH  25  28
HETATM   28  C   UNL     1     -40.795  53.066 -51.655  1.00  0.00     0.010 C 
HETATM   29  C   UNL     1     -39.864  52.061 -52.330  1.00  0.00     0.015 C 
HETATM   30  C   UNL     1     -40.104  53.686 -50.429  1.00  0.00     0.015 C 
ENDBRANCH  25  28
ENDBRANCH   7  22
BRANCH  10  31
HETATM   31  C   UNL     1     -43.110  56.874 -57.359  1.00  0.00     0.256 C 
HETATM   32  N   UNL     1     -44.145  57.482 -58.016  1.00  0.00    -0.323 N 
HETATM   33  H   UNL     1     -44.343  58.462 -57.853  1.00  0.00     0.169 HD
HETATM   34  O   UNL     1     -42.693  55.731 -57.555  1.00  0.00    -0.267 OA
BRANCH  32  35
HETATM   35  C   UNL     1     -44.934  56.911 -59.043  1.00  0.00     0.035 A 
HETATM   36  C   UNL     1     -44.430  56.060 -60.029  1.00  0.00     0.029 A 
HETATM   37  C   UNL     1     -45.273  55.554 -61.025  1.00  0.00     0.002 A 
HETATM   38  C   UNL     1     -46.621  55.899 -61.045  1.00  0.00     0.000 A 
HETATM   39  C   UNL     1     -47.135  56.737 -60.060  1.00  0.00     0.002 A 
HETATM   40  C   UNL     1     -46.298  57.232 -59.056  1.00  0.00     0.029 A 
ENDBRANCH  32  35
ENDBRANCH  10  31
TORSDOF 9
ENDMDL
MODEL 6
REMARK VINA RESULT:      -7.1     17.535     20.592
REMARK  9 active torsions:
REMARK  status: ('A' for Active; 'I' for Inactive)
REMARK    1  A    between atoms: C_6  and  C_7 
REMARK    2  A    between atoms: C_7  and  C_8 
REMARK       I    between atoms: C_8  and  N_9 
REMARK    3  A    between atoms: N_9  and  C_10 
REMARK    4  A    between atoms: C_10  and  C_11 
REMARK    5  A    between atoms: C_11  and  N_12 
REMARK    6  A    between atoms: C_17  and  C_18 
REMARK    7  A    between atoms: C_21  and  C_22 
REMARK    8  A    between atoms: C_29  and  C_30 
REMARK       I    between atoms: C_30  and  N_31 
REMARK    9  A    between atoms: N_31  and  C_32 
ROOT
HETATM    1  C   UNL     1     -34.564  42.354 -51.234  1.00  0.00     0.071 C 
HETATM    2  C   UNL     1     -33.662  41.150 -51.348  1.00  0.00     0.047 C 
HETATM    3  N   UNL     1     -33.101  40.742 -50.123  1.00  0.00    -0.229 NA
HETATM    4  C   UNL     1     -32.851  39.476 -49.984  1.00  0.00     0.170 C 
HETATM    5  N   UNL     1     -32.982  38.449 -51.204  1.00  0.00    -0.319 N 
HETATM    6  C   UNL     1     -33.881  37.635 -50.728  1.00  0.00     0.011 C 
HETATM    7  C   UNL     1     -32.596  39.260 -52.370  1.00  0.00     0.165 C 
HETATM    8  S   UNL     1     -32.784  38.613 -48.480  1.00  0.00    -0.086 SA
HETATM    9  C   UNL     1     -33.439  37.117 -49.356  1.00  0.00     0.135 C 
HETATM   10  C   UNL     1     -33.526  40.412 -52.483  1.00  0.00     0.062 C 
ENDROOT
BRANCH   6  11
HETATM   11  C   UNL     1     -35.344  37.856 -51.023  1.00  0.00     0.156 C 
BRANCH  11  12
HETATM   12  C   UNL     1     -36.254  38.375 -49.950  1.00  0.00     0.223 C 
HETATM   13  N   UNL     1     -37.038  37.387 -49.382  1.00  0.00    -0.359 N 
HETATM   14  H   UNL     1     -36.560  36.489 -49.236  1.00  0.00     0.162 HD
HETATM   15  O   UNL     1     -36.372  39.569 -49.725  1.00  0.00    -0.273 OA
BRANCH  13  16
HETATM   16  C   UNL     1     -38.071  37.695 -48.392  1.00  0.00     0.150 C 
BRANCH  16  17
HETATM   17  C   UNL     1     -39.501  37.477 -48.928  1.00  0.00     0.253 C 
BRANCH  17  18
HETATM   18  N   UNL     1     -40.385  38.696 -48.661  1.00  0.00    -0.077 N 
HETATM   19  H   UNL     1     -39.855  39.505 -49.007  1.00  0.00     0.279 HD
HETATM   20  C   UNL     1     -41.697  38.676 -49.399  1.00  0.00     0.269 C 
HETATM   21  C   UNL     1     -40.610  38.907 -47.185  1.00  0.00     0.269 C 
ENDBRANCH  17  18
ENDBRANCH  16  17
ENDBRANCH  13  16
ENDBRANCH  11  12
ENDBRANCH   6  11
BRANCH   7  22
HETATM   22  C   UNL     1     -31.864  38.633 -53.538  1.00  0.00    -0.030 A 
HETATM   23  C   UNL     1     -31.308  37.352 -53.533  1.00  0.00     0.010 A 
HETATM   24  C   UNL     1     -30.357  36.993 -54.507  1.00  0.00     0.008 A 
HETATM   25  C   UNL     1     -29.955  37.891 -55.512  1.00  0.00    -0.055 A 
HETATM   26  C   UNL     1     -30.601  39.123 -55.587  1.00  0.00     0.008 A 
HETATM   27  C   UNL     1     -31.521  39.494 -54.610  1.00  0.00     0.010 A 
BRANCH  25  28
HETATM   28  C   UNL     1     -28.814  37.531 -56.456  1.00  0.00     0.010 C 
HETATM   29  C   UNL     1     -28.903  38.328 -57.756  1.00  0.00     0.015 C 
HETATM   30  C   UNL     1     -27.424  37.706 -55.823  1.00  0.00     0.015 C 
ENDBRANCH  25  28
ENDBRANCH   7  22
BRANCH  10  31
HETATM   31  C   UNL     1     -34.596  40.411 -53.518  1.00  0.00     0.256 C 
HETATM   32  N   UNL     1     -34.623  41.487 -54.364  1.00  0.00    -0.323 N 
HETATM   33  H   UNL     1     -33.981  42.257 -54.225  1.00  0.00     0.169 HD
HETATM   34  O   UNL     1     -35.236  39.365 -53.647  1.00  0.00    -0.267 OA
BRANCH  32  35
HETATM   35  C   UNL     1     -35.393  41.601 -55.547  1.00  0.00     0.035 A 
HETATM   36  C   UNL     1     -34.904  41.322 -56.825  1.00  0.00     0.029 A 
HETATM   37  C   UNL     1     -35.723  41.481 -57.947  1.00  0.00     0.002 A 
HETATM   38  C   UNL     1     -37.034  41.926 -57.801  1.00  0.00     0.000 A 
HETATM   39  C   UNL     1     -37.535  42.196 -56.531  1.00  0.00     0.002 A 
HETATM   40  C   UNL     1     -36.722  42.023 -55.407  1.00  0.00     0.029 A 
ENDBRANCH  32  35
ENDBRANCH  10  31
TORSDOF 9
ENDMDL
MODEL 7
REMARK VINA RESULT:      -7.1      2.615      7.499
REMARK  9 active torsions:
REMARK  status: ('A' for Active; 'I' for Inactive)
REMARK    1  A    between atoms: C_6  and  C_7 
REMARK    2  A    between atoms: C_7  and  C_8 
REMARK       I    between atoms: C_8  and  N_9 
REMARK    3  A    between atoms: N_9  and  C_10 
REMARK    4  A    between atoms: C_10  and  C_11 
REMARK    5  A    between atoms: C_11  and  N_12 
REMARK    6  A    between atoms: C_17  and  C_18 
REMARK    7  A    between atoms: C_21  and  C_22 
REMARK    8  A    between atoms: C_29  and  C_30 
REMARK       I    between atoms: C_30  and  N_31 
REMARK    9  A    between atoms: N_31  and  C_32 
ROOT
HETATM    1  C   UNL     1     -40.240  58.915 -52.907  1.00  0.00     0.071 C 
HETATM    2  C   UNL     1     -41.075  58.076 -53.842  1.00  0.00     0.047 C 
HETATM    3  N   UNL     1     -40.607  56.756 -53.992  1.00  0.00    -0.229 NA
HETATM    4  C   UNL     1     -41.497  55.842 -54.231  1.00  0.00     0.170 C 
HETATM    5  N   UNL     1     -43.023  56.208 -54.542  1.00  0.00    -0.319 N 
HETATM    6  C   UNL     1     -43.617  55.576 -53.570  1.00  0.00     0.011 C 
HETATM    7  C   UNL     1     -42.924  57.492 -55.253  1.00  0.00     0.165 C 
HETATM    8  S   UNL     1     -41.352  54.157 -53.841  1.00  0.00    -0.086 SA
HETATM    9  C   UNL     1     -43.184  54.107 -53.562  1.00  0.00     0.135 C 
HETATM   10  C   UNL     1     -42.262  58.483 -54.367  1.00  0.00     0.062 C 
ENDROOT
BRANCH   6  11
HETATM   11  C   UNL     1     -43.923  56.286 -52.273  1.00  0.00     0.156 C 
BRANCH  11  12
HETATM   12  C   UNL     1     -43.220  55.878 -51.013  1.00  0.00     0.223 C 
HETATM   13  N   UNL     1     -42.003  56.513 -50.844  1.00  0.00    -0.359 N 
HETATM   14  H   UNL     1     -41.991  57.502 -51.121  1.00  0.00     0.162 HD
HETATM   15  O   UNL     1     -43.635  54.974 -50.305  1.00  0.00    -0.273 OA
BRANCH  13  16
HETATM   16  C   UNL     1     -41.106  56.180 -49.736  1.00  0.00     0.150 C 
BRANCH  16  17
HETATM   17  C   UNL     1     -40.198  54.970 -50.041  1.00  0.00     0.253 C 
BRANCH  17  18
HETATM   18  N   UNL     1     -40.790  53.676 -49.482  1.00  0.00    -0.077 N 
HETATM   19  H   UNL     1     -41.809  53.780 -49.561  1.00  0.00     0.279 HD
HETATM   20  C   UNL     1     -40.408  52.442 -50.254  1.00  0.00     0.269 C 
HETATM   21  C   UNL     1     -40.471  53.506 -48.018  1.00  0.00     0.269 C 
ENDBRANCH  17  18
ENDBRANCH  16  17
ENDBRANCH  13  16
ENDBRANCH  11  12
ENDBRANCH   6  11
BRANCH   7  22
HETATM   22  C   UNL     1     -43.909  57.847 -56.347  1.00  0.00    -0.030 A 
HETATM   23  C   UNL     1     -45.208  58.310 -56.128  1.00  0.00     0.010 A 
HETATM   24  C   UNL     1     -46.154  58.273 -57.170  1.00  0.00     0.008 A 
HETATM   25  C   UNL     1     -45.824  57.794 -58.450  1.00  0.00    -0.055 A 
HETATM   26  C   UNL     1     -44.498  57.448 -58.699  1.00  0.00     0.008 A 
HETATM   27  C   UNL     1     -43.564  57.455 -57.665  1.00  0.00     0.010 A 
BRANCH  25  28
HETATM   28  C   UNL     1     -46.905  57.621 -59.511  1.00  0.00     0.010 C 
HETATM   29  C   UNL     1     -46.913  58.798 -60.485  1.00  0.00     0.015 C 
HETATM   30  C   UNL     1     -46.790  56.297 -60.283  1.00  0.00     0.015 C 
ENDBRANCH  25  28
ENDBRANCH   7  22
BRANCH  10  31
HETATM   31  C   UNL     1     -43.067  59.537 -53.690  1.00  0.00     0.256 C 
HETATM   32  N   UNL     1     -43.531  59.236 -52.438  1.00  0.00    -0.323 N 
HETATM   33  H   UNL     1     -43.378  58.314 -52.049  1.00  0.00     0.169 HD
HETATM   34  O   UNL     1     -43.081  60.647 -54.226  1.00  0.00    -0.267 OA
BRANCH  32  35
HETATM   35  C   UNL     1     -44.118  60.143 -51.524  1.00  0.00     0.035 A 
HETATM   36  C   UNL     1     -45.496  60.326 -51.385  1.00  0.00     0.029 A 
HETATM   37  C   UNL     1     -45.998  61.260 -50.472  1.00  0.00     0.002 A 
HETATM   38  C   UNL     1     -45.127  62.022 -49.698  1.00  0.00     0.000 A 
HETATM   39  C   UNL     1     -43.753  61.839 -49.822  1.00  0.00     0.002 A 
HETATM   40  C   UNL     1     -43.250  60.896 -50.722  1.00  0.00     0.029 A 
ENDBRANCH  32  35
ENDBRANCH  10  31
TORSDOF 9
ENDMDL
MODEL 8
REMARK VINA RESULT:      -7.0      2.639      6.760
REMARK  9 active torsions:
REMARK  status: ('A' for Active; 'I' for Inactive)
REMARK    1  A    between atoms: C_6  and  C_7 
REMARK    2  A    between atoms: C_7  and  C_8 
REMARK       I    between atoms: C_8  and  N_9 
REMARK    3  A    between atoms: N_9  and  C_10 
REMARK    4  A    between atoms: C_10  and  C_11 
REMARK    5  A    between atoms: C_11  and  N_12 
REMARK    6  A    between atoms: C_17  and  C_18 
REMARK    7  A    between atoms: C_21  and  C_22 
REMARK    8  A    between atoms: C_29  and  C_30 
REMARK       I    between atoms: C_30  and  N_31 
REMARK    9  A    between atoms: N_31  and  C_32 
ROOT
HETATM    1  C   UNL     1     -40.998  58.664 -52.712  1.00  0.00     0.071 C 
HETATM    2  C   UNL     1     -41.244  57.725 -53.866  1.00  0.00     0.047 C 
HETATM    3  N   UNL     1     -40.380  56.613 -53.888  1.00  0.00    -0.229 NA
HETATM    4  C   UNL     1     -40.850  55.515 -54.395  1.00  0.00     0.170 C 
HETATM    5  N   UNL     1     -42.264  55.465 -55.143  1.00  0.00    -0.319 N 
HETATM    6  C   UNL     1     -42.889  54.595 -54.402  1.00  0.00     0.011 C 
HETATM    7  C   UNL     1     -42.358  56.791 -55.774  1.00  0.00     0.165 C 
HETATM    8  S   UNL     1     -40.323  53.908 -54.003  1.00  0.00    -0.086 SA
HETATM    9  C   UNL     1     -42.056  53.315 -54.286  1.00  0.00     0.135 C 
HETATM   10  C   UNL     1     -42.301  57.832 -54.716  1.00  0.00     0.062 C 
ENDROOT
BRANCH   6  11
HETATM   11  C   UNL     1     -43.746  55.053 -53.246  1.00  0.00     0.156 C 
BRANCH  11  12
HETATM   12  C   UNL     1     -43.314  54.773 -51.838  1.00  0.00     0.223 C 
HETATM   13  N   UNL     1     -42.456  55.733 -51.334  1.00  0.00    -0.359 N 
HETATM   14  H   UNL     1     -42.687  56.699 -51.600  1.00  0.00     0.162 HD
HETATM   15  O   UNL     1     -43.592  53.726 -51.273  1.00  0.00    -0.273 OA
BRANCH  13  16
HETATM   16  C   UNL     1     -41.831  55.597 -50.018  1.00  0.00     0.150 C 
BRANCH  16  17
HETATM   17  C   UNL     1     -40.311  55.344 -50.097  1.00  0.00     0.253 C 
BRANCH  17  18
HETATM   18  N   UNL     1     -39.929  54.038 -49.400  1.00  0.00    -0.077 N 
HETATM   19  H   UNL     1     -38.902  54.031 -49.368  1.00  0.00     0.279 HD
HETATM   20  C   UNL     1     -40.418  53.934 -47.980  1.00  0.00     0.269 C 
HETATM   21  C   UNL     1     -40.360  52.834 -50.199  1.00  0.00     0.269 C 
ENDBRANCH  17  18
ENDBRANCH  16  17
ENDBRANCH  13  16
ENDBRANCH  11  12
ENDBRANCH   6  11
BRANCH   7  22
HETATM   22  C   UNL     1     -43.055  56.964 -57.107  1.00  0.00    -0.030 A 
HETATM   23  C   UNL     1     -44.198  57.740 -57.312  1.00  0.00     0.010 A 
HETATM   24  C   UNL     1     -44.970  57.562 -58.476  1.00  0.00     0.008 A 
HETATM   25  C   UNL     1     -44.614  56.626 -59.462  1.00  0.00    -0.055 A 
HETATM   26  C   UNL     1     -43.410  55.941 -59.313  1.00  0.00     0.008 A 
HETATM   27  C   UNL     1     -42.656  56.092 -58.151  1.00  0.00     0.010 A 
BRANCH  25  28
HETATM   28  C   UNL     1     -45.549  56.345 -60.633  1.00  0.00     0.010 C 
HETATM   29  C   UNL     1     -45.159  55.055 -61.352  1.00  0.00     0.015 C 
HETATM   30  C   UNL     1     -47.031  56.298 -60.228  1.00  0.00     0.015 C 
ENDBRANCH  25  28
ENDBRANCH   7  22
BRANCH  10  31
HETATM   31  C   UNL     1     -43.541  58.541 -54.296  1.00  0.00     0.256 C 
HETATM   32  N   UNL     1     -43.627  59.865 -54.634  1.00  0.00    -0.323 N 
HETATM   33  H   UNL     1     -42.845  60.325 -55.083  1.00  0.00     0.169 HD
HETATM   34  O   UNL     1     -44.455  57.839 -53.859  1.00  0.00    -0.267 OA
BRANCH  32  35
HETATM   35  C   UNL     1     -44.782  60.678 -54.541  1.00  0.00     0.035 A 
HETATM   36  C   UNL     1     -45.305  61.153 -53.337  1.00  0.00     0.029 A 
HETATM   37  C   UNL     1     -46.465  61.935 -53.328  1.00  0.00     0.002 A 
HETATM   38  C   UNL     1     -47.114  62.240 -54.521  1.00  0.00     0.000 A 
HETATM   39  C   UNL     1     -46.595  61.780 -55.728  1.00  0.00     0.002 A 
HETATM   40  C   UNL     1     -45.427  61.012 -55.740  1.00  0.00     0.029 A 
ENDBRANCH  32  35
ENDBRANCH  10  31
TORSDOF 9
ENDMDL
MODEL 9
REMARK VINA RESULT:      -6.8      2.182      5.580
REMARK  9 active torsions:
REMARK  status: ('A' for Active; 'I' for Inactive)
REMARK    1  A    between atoms: C_6  and  C_7 
REMARK    2  A    between atoms: C_7  and  C_8 
REMARK       I    between atoms: C_8  and  N_9 
REMARK    3  A    between atoms: N_9  and  C_10 
REMARK    4  A    between atoms: C_10  and  C_11 
REMARK    5  A    between atoms: C_11  and  N_12 
REMARK    6  A    between atoms: C_17  and  C_18 
REMARK    7  A    between atoms: C_21  and  C_22 
REMARK    8  A    between atoms: C_29  and  C_30 
REMARK       I    between atoms: C_30  and  N_31 
REMARK    9  A    between atoms: N_31  and  C_32 
ROOT
HETATM    1  C   UNL     1     -46.005  58.418 -50.698  1.00  0.00     0.071 C 
HETATM    2  C   UNL     1     -45.750  59.090 -52.024  1.00  0.00     0.047 C 
HETATM    3  N   UNL     1     -46.359  60.354 -52.147  1.00  0.00    -0.229 NA
HETATM    4  C   UNL     1     -45.756  61.225 -52.897  1.00  0.00     0.170 C 
HETATM    5  N   UNL     1     -44.494  60.835 -53.800  1.00  0.00    -0.319 N 
HETATM    6  C   UNL     1     -43.597  61.640 -53.307  1.00  0.00     0.011 C 
HETATM    7  C   UNL     1     -44.773  59.443 -54.186  1.00  0.00     0.165 C 
HETATM    8  S   UNL     1     -45.874  62.949 -52.746  1.00  0.00    -0.086 SA
HETATM    9  C   UNL     1     -44.120  63.079 -53.330  1.00  0.00     0.135 C 
HETATM   10  C   UNL     1     -44.881  58.615 -52.957  1.00  0.00     0.062 C 
ENDROOT
BRANCH   6  11
HETATM   11  C   UNL     1     -42.687  61.179 -52.195  1.00  0.00     0.156 C 
BRANCH  11  12
HETATM   12  C   UNL     1     -42.932  61.638 -50.788  1.00  0.00     0.223 C 
HETATM   13  N   UNL     1     -43.697  60.748 -50.056  1.00  0.00    -0.359 N 
HETATM   14  H   UNL     1     -43.485  59.757 -50.225  1.00  0.00     0.162 HD
HETATM   15  O   UNL     1     -42.602  62.748 -50.404  1.00  0.00    -0.273 OA
BRANCH  13  16
HETATM   16  C   UNL     1     -44.144  61.052 -48.695  1.00  0.00     0.150 C 
BRANCH  16  17
HETATM   17  C   UNL     1     -45.585  61.600 -48.644  1.00  0.00     0.253 C 
BRANCH  17  18
HETATM   18  N   UNL     1     -46.211  61.388 -47.265  1.00  0.00    -0.077 N 
HETATM   19  H   UNL     1     -46.820  60.567 -47.360  1.00  0.00     0.279 HD
HETATM   20  C   UNL     1     -45.215  61.081 -46.179  1.00  0.00     0.269 C 
HETATM   21  C   UNL     1     -47.087  62.550 -46.868  1.00  0.00     0.269 C 
ENDBRANCH  17  18
ENDBRANCH  16  17
ENDBRANCH  13  16
ENDBRANCH  11  12
ENDBRANCH   6  11
BRANCH   7  22
HETATM   22  C   UNL     1     -44.340  58.914 -55.537  1.00  0.00    -0.030 A 
HETATM   23  C   UNL     1     -45.202  58.366 -56.490  1.00  0.00     0.010 A 
HETATM   24  C   UNL     1     -44.684  57.590 -57.544  1.00  0.00     0.008 A 
HETATM   25  C   UNL     1     -43.304  57.357 -57.680  1.00  0.00    -0.055 A 
HETATM   26  C   UNL     1     -42.439  58.004 -56.800  1.00  0.00     0.008 A 
HETATM   27  C   UNL     1     -42.947  58.751 -55.739  1.00  0.00     0.010 A 
BRANCH  25  28
HETATM   28  C   UNL     1     -42.786  56.388 -58.736  1.00  0.00     0.010 C 
HETATM   29  C   UNL     1     -43.868  55.392 -59.148  1.00  0.00     0.015 C 
HETATM   30  C   UNL     1     -42.215  57.092 -59.978  1.00  0.00     0.015 C 
ENDBRANCH  25  28
ENDBRANCH   7  22
BRANCH  10  31
HETATM   31  C   UNL     1     -43.765  57.713 -52.562  1.00  0.00     0.256 C 
HETATM   32  N   UNL     1     -43.822  56.432 -53.040  1.00  0.00    -0.323 N 
HETATM   33  H   UNL     1     -44.626  56.125 -53.573  1.00  0.00     0.169 HD
HETATM   34  O   UNL     1     -42.800  58.243 -52.007  1.00  0.00    -0.267 OA
BRANCH  32  35
HETATM   35  C   UNL     1     -42.782  55.472 -52.985  1.00  0.00     0.035 A 
HETATM   36  C   UNL     1     -42.638  54.539 -51.956  1.00  0.00     0.029 A 
HETATM   37  C   UNL     1     -41.568  53.637 -51.964  1.00  0.00     0.002 A 
HETATM   38  C   UNL     1     -40.634  53.665 -52.995  1.00  0.00     0.000 A 
HETATM   39  C   UNL     1     -40.776  54.584 -54.031  1.00  0.00     0.002 A 
HETATM   40  C   UNL     1     -41.852  55.476 -54.033  1.00  0.00     0.029 A 
ENDBRANCH  32  35
ENDBRANCH  10  31
TORSDOF 9
ENDMDL
MODEL 10
REMARK VINA RESULT:      -6.8      3.337      7.283
REMARK  9 active torsions:
REMARK  status: ('A' for Active; 'I' for Inactive)
REMARK    1  A    between atoms: C_6  and  C_7 
REMARK    2  A    between atoms: C_7  and  C_8 
REMARK       I    between atoms: C_8  and  N_9 
REMARK    3  A    between atoms: N_9  and  C_10 
REMARK    4  A    between atoms: C_10  and  C_11 
REMARK    5  A    between atoms: C_11  and  N_12 
REMARK    6  A    between atoms: C_17  and  C_18 
REMARK    7  A    between atoms: C_21  and  C_22 
REMARK    8  A    between atoms: C_29  and  C_30 
REMARK       I    between atoms: C_30  and  N_31 
REMARK    9  A    between atoms: N_31  and  C_32 
ROOT
HETATM    1  C   UNL     1     -46.156  60.225 -56.788  1.00  0.00     0.071 C 
HETATM    2  C   UNL     1     -45.260  59.017 -56.900  1.00  0.00     0.047 C 
HETATM    3  N   UNL     1     -45.290  58.402 -58.167  1.00  0.00    -0.229 NA
HETATM    4  C   UNL     1     -44.203  57.810 -58.557  1.00  0.00     0.170 C 
HETATM    5  N   UNL     1     -42.952  57.606 -57.580  1.00  0.00    -0.319 N 
HETATM    6  C   UNL     1     -42.034  58.253 -58.239  1.00  0.00     0.011 C 
HETATM    7  C   UNL     1     -43.580  57.428 -56.262  1.00  0.00     0.165 C 
HETATM    8  S   UNL     1     -43.725  57.549 -60.205  1.00  0.00    -0.086 SA
HETATM    9  C   UNL     1     -41.957  57.727 -59.676  1.00  0.00     0.135 C 
HETATM   10  C   UNL     1     -44.373  58.642 -55.939  1.00  0.00     0.062 C 
ENDROOT
BRANCH   6  11
HETATM   11  C   UNL     1     -41.766  59.709 -57.947  1.00  0.00     0.156 C 
BRANCH  11  12
HETATM   12  C   UNL     1     -42.246  60.764 -58.898  1.00  0.00     0.223 C 
HETATM   13  N   UNL     1     -41.227  61.307 -59.661  1.00  0.00    -0.359 N 
HETATM   14  H   UNL     1     -40.524  60.631 -59.983  1.00  0.00     0.162 HD
HETATM   15  O   UNL     1     -43.393  61.181 -58.876  1.00  0.00    -0.273 OA
BRANCH  13  16
HETATM   16  C   UNL     1     -41.460  62.426 -60.575  1.00  0.00     0.150 C 
BRANCH  16  17
HETATM   17  C   UNL     1     -41.602  61.982 -62.046  1.00  0.00     0.253 C 
BRANCH  17  18
HETATM   18  N   UNL     1     -43.058  62.044 -62.507  1.00  0.00    -0.077 N 
HETATM   19  H   UNL     1     -43.023  62.294 -63.503  1.00  0.00     0.279 HD
HETATM   20  C   UNL     1     -43.792  60.734 -62.403  1.00  0.00     0.269 C 
HETATM   21  C   UNL     1     -43.819  63.136 -61.799  1.00  0.00     0.269 C 
ENDBRANCH  17  18
ENDBRANCH  16  17
ENDBRANCH  13  16
ENDBRANCH  11  12
ENDBRANCH   6  11
BRANCH   7  22
HETATM   22  C   UNL     1     -42.959  56.512 -55.228  1.00  0.00    -0.030 A 
HETATM   23  C   UNL     1     -41.642  56.605 -54.772  1.00  0.00     0.010 A 
HETATM   24  C   UNL     1     -41.052  55.520 -54.096  1.00  0.00     0.008 A 
HETATM   25  C   UNL     1     -41.763  54.333 -53.845  1.00  0.00    -0.055 A 
HETATM   26  C   UNL     1     -43.112  54.290 -54.192  1.00  0.00     0.008 A 
HETATM   27  C   UNL     1     -43.693  55.349 -54.886  1.00  0.00     0.010 A 
BRANCH  25  28
HETATM   28  C   UNL     1     -41.055  53.121 -53.251  1.00  0.00     0.010 C 
HETATM   29  C   UNL     1     -40.101  52.490 -54.264  1.00  0.00     0.015 C 
HETATM   30  C   UNL     1     -40.307  53.435 -51.945  1.00  0.00     0.015 C 
ENDBRANCH  25  28
ENDBRANCH   7  22
BRANCH  10  31
HETATM   31  C   UNL     1     -43.856  59.635 -54.957  1.00  0.00     0.256 C 
HETATM   32  N   UNL     1     -44.279  59.487 -53.664  1.00  0.00    -0.323 N 
HETATM   33  H   UNL     1     -44.960  58.775 -53.432  1.00  0.00     0.169 HD
HETATM   34  O   UNL     1     -42.952  60.375 -55.349  1.00  0.00    -0.267 OA
BRANCH  32  35
HETATM   35  C   UNL     1     -43.758  60.160 -52.532  1.00  0.00     0.035 A 
HETATM   36  C   UNL     1     -44.256  61.372 -52.050  1.00  0.00     0.029 A 
HETATM   37  C   UNL     1     -43.671  61.985 -50.937  1.00  0.00     0.002 A 
HETATM   38  C   UNL     1     -42.582  61.395 -50.302  1.00  0.00     0.000 A 
HETATM   39  C   UNL     1     -42.086  60.181 -50.769  1.00  0.00     0.002 A 
HETATM   40  C   UNL     1     -42.678  59.559 -51.871  1.00  0.00     0.029 A 
ENDBRANCH  32  35
ENDBRANCH  10  31
TORSDOF 9
ENDMDL
