MODEL 1
REMARK VINA RESULT:      -8.3      0.000      0.000
REMARK  5 active torsions:
REMARK  status: ('A' for Active; 'I' for Inactive)
REMARK    1  A    between atoms: O_2  and  C_3 
REMARK    2  A    between atoms: C_6  and  N_7 
REMARK       I    between atoms: N_7  and  C_8 
REMARK    3  A    between atoms: C_8  and  C_9 
REMARK    4  A    between atoms: C_9  and  N_10 
REMARK    5  A    between atoms: N_10  and  C_11 
ROOT
HETATM    1  C   UNL     1     -42.251  56.030 -51.465  1.00  0.00     0.195 C 
ENDROOT
BRANCH   1   2
HETATM    2  C   UNL     1     -43.427  55.093 -51.732  1.00  0.00     0.235 C 
HETATM    3  N   UNL     1     -43.944  54.893 -52.979  1.00  0.00    -0.326 N 
HETATM    4  H   UNL     1     -44.630  54.147 -52.961  1.00  0.00     0.169 HD
HETATM    5  O   UNL     1     -43.941  54.465 -50.796  1.00  0.00    -0.272 OA
BRANCH   3   6
HETATM    6  C   UNL     1     -43.733  55.497 -54.232  1.00  0.00     0.034 A 
HETATM    7  C   UNL     1     -44.125  56.786 -54.586  1.00  0.00     0.032 A 
HETATM    8  C   UNL     1     -43.852  57.298 -55.865  1.00  0.00     0.039 A 
HETATM    9  C   UNL     1     -43.196  56.517 -56.814  1.00  0.00     0.068 A 
HETATM   10  C   UNL     1     -42.842  55.212 -56.481  1.00  0.00     0.039 A 
HETATM   11  C   UNL     1     -43.111  54.706 -55.205  1.00  0.00     0.032 A 
BRANCH   9  12
HETATM   12  O   UNL     1     -42.867  56.900 -58.083  1.00  0.00    -0.356 OA
HETATM   13  C   UNL     1     -42.973  55.908 -59.097  1.00  0.00     0.210 C 
ENDBRANCH   9  12
ENDBRANCH   3   6
ENDBRANCH   1   2
BRANCH   1  14
HETATM   14  N   UNL     1     -41.079  55.577 -52.218  1.00  0.00    -0.284 NA
HETATM   15  H   UNL     1     -40.324  56.262 -52.185  1.00  0.00     0.128 HD
BRANCH  14  16
HETATM   16  C   UNL     1     -40.605  54.271 -52.081  1.00  0.00     0.009 A 
HETATM   17  C   UNL     1     -40.554  53.462 -53.228  1.00  0.00     0.035 A 
HETATM   18  C   UNL     1     -40.182  52.107 -53.175  1.00  0.00    -0.024 A 
HETATM   19  C   UNL     1     -39.876  51.527 -51.927  1.00  0.00    -0.026 A 
HETATM   20  C   UNL     1     -40.119  51.315 -54.334  1.00  0.00     0.012 A 
HETATM   21  C   UNL     1     -39.956  52.320 -50.774  1.00  0.00     0.014 A 
HETATM   22  C   UNL     1     -39.511  50.172 -51.867  1.00  0.00     0.012 A 
HETATM   23  C   UNL     1     -40.329  53.668 -50.853  1.00  0.00     0.024 A 
HETATM   24  C   UNL     1     -39.451  49.399 -53.028  1.00  0.00     0.001 A 
HETATM   25  C   UNL     1     -39.754  49.969 -54.260  1.00  0.00     0.001 A 
ENDBRANCH  14  16
ENDBRANCH   1  14
TORSDOF 5
ENDMDL
MODEL 2
REMARK VINA RESULT:      -8.2      1.443      1.996
REMARK  5 active torsions:
REMARK  status: ('A' for Active; 'I' for Inactive)
REMARK    1  A    between atoms: O_2  and  C_3 
REMARK    2  A    between atoms: C_6  and  N_7 
REMARK       I    between atoms: N_7  and  C_8 
REMARK    3  A    between atoms: C_8  and  C_9 
REMARK    4  A    between atoms: C_9  and  N_10 
REMARK    5  A    between atoms: N_10  and  C_11 
ROOT
HETATM    1  C   UNL     1     -42.720  57.285 -51.316  1.00  0.00     0.195 C 
ENDROOT
BRANCH   1   2
HETATM    2  C   UNL     1     -44.213  57.132 -51.601  1.00  0.00     0.235 C 
HETATM    3  N   UNL     1     -44.703  56.852 -52.844  1.00  0.00    -0.326 N 
HETATM    4  H   UNL     1     -45.698  56.669 -52.797  1.00  0.00     0.169 HD
HETATM    5  O   UNL     1     -45.032  57.247 -50.680  1.00  0.00    -0.272 OA
BRANCH   3   6
HETATM    6  C   UNL     1     -44.129  56.783 -54.126  1.00  0.00     0.034 A 
HETATM    7  C   UNL     1     -43.567  55.645 -54.702  1.00  0.00     0.032 A 
HETATM    8  C   UNL     1     -43.031  55.683 -55.999  1.00  0.00     0.039 A 
HETATM    9  C   UNL     1     -43.035  56.867 -56.732  1.00  0.00     0.068 A 
HETATM   10  C   UNL     1     -43.554  58.018 -56.145  1.00  0.00     0.039 A 
HETATM   11  C   UNL     1     -44.092  57.978 -54.854  1.00  0.00     0.032 A 
BRANCH   9  12
HETATM   12  O   UNL     1     -42.553  57.030 -58.000  1.00  0.00    -0.356 OA
HETATM   13  C   UNL     1     -42.064  58.323 -58.335  1.00  0.00     0.210 C 
ENDBRANCH   9  12
ENDBRANCH   3   6
ENDBRANCH   1   2
BRANCH   1  14
HETATM   14  N   UNL     1     -42.304  56.292 -50.323  1.00  0.00    -0.284 NA
HETATM   15  H   UNL     1     -43.081  56.007 -49.728  1.00  0.00     0.128 HD
BRANCH  14  16
HETATM   16  C   UNL     1     -41.505  55.207 -50.692  1.00  0.00     0.009 A 
HETATM   17  C   UNL     1     -41.577  54.754 -52.019  1.00  0.00     0.035 A 
HETATM   18  C   UNL     1     -40.885  53.612 -52.461  1.00  0.00    -0.024 A 
HETATM   19  C   UNL     1     -40.112  52.877 -51.538  1.00  0.00    -0.026 A 
HETATM   20  C   UNL     1     -40.954  53.180 -53.796  1.00  0.00     0.012 A 
HETATM   21  C   UNL     1     -40.060  53.306 -50.205  1.00  0.00     0.014 A 
HETATM   22  C   UNL     1     -39.424  51.732 -51.972  1.00  0.00     0.012 A 
HETATM   23  C   UNL     1     -40.760  54.447 -49.789  1.00  0.00     0.024 A 
HETATM   24  C   UNL     1     -39.501  51.317 -53.303  1.00  0.00     0.001 A 
HETATM   25  C   UNL     1     -40.265  52.040 -54.214  1.00  0.00     0.001 A 
ENDBRANCH  14  16
ENDBRANCH   1  14
TORSDOF 5
ENDMDL
MODEL 3
REMARK VINA RESULT:      -8.2      1.933      2.813
REMARK  5 active torsions:
REMARK  status: ('A' for Active; 'I' for Inactive)
REMARK    1  A    between atoms: O_2  and  C_3 
REMARK    2  A    between atoms: C_6  and  N_7 
REMARK       I    between atoms: N_7  and  C_8 
REMARK    3  A    between atoms: C_8  and  C_9 
REMARK    4  A    between atoms: C_9  and  N_10 
REMARK    5  A    between atoms: N_10  and  C_11 
ROOT
HETATM    1  C   UNL     1     -41.560  55.715 -54.917  1.00  0.00     0.195 C 
ENDROOT
BRANCH   1   2
HETATM    2  C   UNL     1     -43.071  55.862 -55.085  1.00  0.00     0.235 C 
HETATM    3  N   UNL     1     -43.650  56.244 -56.261  1.00  0.00    -0.326 N 
HETATM    4  H   UNL     1     -44.658  56.160 -56.200  1.00  0.00     0.169 HD
HETATM    5  O   UNL     1     -43.824  55.615 -54.134  1.00  0.00    -0.272 OA
BRANCH   3   6
HETATM    6  C   UNL     1     -43.149  56.724 -57.485  1.00  0.00     0.034 A 
HETATM    7  C   UNL     1     -43.092  56.002 -58.675  1.00  0.00     0.032 A 
HETATM    8  C   UNL     1     -42.583  56.583 -59.848  1.00  0.00     0.039 A 
HETATM    9  C   UNL     1     -42.107  57.892 -59.839  1.00  0.00     0.068 A 
HETATM   10  C   UNL     1     -42.119  58.603 -58.641  1.00  0.00     0.039 A 
HETATM   11  C   UNL     1     -42.631  58.024 -57.476  1.00  0.00     0.032 A 
BRANCH   9  12
HETATM   12  O   UNL     1     -41.596  58.570 -60.910  1.00  0.00    -0.356 OA
HETATM   13  C   UNL     1     -42.106  59.877 -61.140  1.00  0.00     0.210 C 
ENDBRANCH   9  12
ENDBRANCH   3   6
ENDBRANCH   1   2
BRANCH   1  14
HETATM   14  N   UNL     1     -41.235  55.559 -53.497  1.00  0.00    -0.284 NA
HETATM   15  H   UNL     1     -41.969  55.939 -52.900  1.00  0.00     0.128 HD
BRANCH  14  16
HETATM   16  C   UNL     1     -40.738  54.349 -53.008  1.00  0.00     0.009 A 
HETATM   17  C   UNL     1     -40.623  53.272 -53.903  1.00  0.00     0.035 A 
HETATM   18  C   UNL     1     -40.225  51.990 -53.485  1.00  0.00    -0.024 A 
HETATM   19  C   UNL     1     -39.958  51.764 -52.119  1.00  0.00    -0.026 A 
HETATM   20  C   UNL     1     -40.097  50.926 -54.394  1.00  0.00     0.012 A 
HETATM   21  C   UNL     1     -40.102  52.826 -51.216  1.00  0.00     0.014 A 
HETATM   22  C   UNL     1     -39.567  50.483 -51.695  1.00  0.00     0.012 A 
HETATM   23  C   UNL     1     -40.501  54.095 -51.657  1.00  0.00     0.024 A 
HETATM   24  C   UNL     1     -39.442  49.437 -52.611  1.00  0.00     0.001 A 
HETATM   25  C   UNL     1     -39.707  49.658 -53.960  1.00  0.00     0.001 A 
ENDBRANCH  14  16
ENDBRANCH   1  14
TORSDOF 5
ENDMDL
MODEL 4
REMARK VINA RESULT:      -8.1      2.272      4.343
REMARK  5 active torsions:
REMARK  status: ('A' for Active; 'I' for Inactive)
REMARK    1  A    between atoms: O_2  and  C_3 
REMARK    2  A    between atoms: C_6  and  N_7 
REMARK       I    between atoms: N_7  and  C_8 
REMARK    3  A    between atoms: C_8  and  C_9 
REMARK    4  A    between atoms: C_9  and  N_10 
REMARK    5  A    between atoms: N_10  and  C_11 
ROOT
HETATM    1  C   UNL     1     -42.611  55.120 -55.999  1.00  0.00     0.195 C 
ENDROOT
BRANCH   1   2
HETATM    2  C   UNL     1     -42.828  56.552 -56.482  1.00  0.00     0.235 C 
HETATM    3  N   UNL     1     -42.635  57.640 -55.681  1.00  0.00    -0.326 N 
HETATM    4  H   UNL     1     -42.709  58.494 -56.222  1.00  0.00     0.169 HD
HETATM    5  O   UNL     1     -43.180  56.763 -57.651  1.00  0.00    -0.272 OA
BRANCH   3   6
HETATM    6  C   UNL     1     -42.375  57.807 -54.309  1.00  0.00     0.034 A 
HETATM    7  C   UNL     1     -43.236  57.454 -53.272  1.00  0.00     0.032 A 
HETATM    8  C   UNL     1     -42.871  57.654 -51.931  1.00  0.00     0.039 A 
HETATM    9  C   UNL     1     -41.642  58.226 -51.610  1.00  0.00     0.068 A 
HETATM   10  C   UNL     1     -40.796  58.622 -52.643  1.00  0.00     0.039 A 
HETATM   11  C   UNL     1     -41.160  58.419 -53.978  1.00  0.00     0.032 A 
BRANCH   9  12
HETATM   12  O   UNL     1     -41.170  58.464 -50.351  1.00  0.00    -0.356 OA
HETATM   13  C   UNL     1     -40.342  59.609 -50.186  1.00  0.00     0.210 C 
ENDBRANCH   9  12
ENDBRANCH   3   6
ENDBRANCH   1   2
BRANCH   1  14
HETATM   14  N   UNL     1     -41.189  54.902 -55.726  1.00  0.00    -0.284 NA
HETATM   15  H   UNL     1     -40.651  55.762 -55.829  1.00  0.00     0.128 HD
BRANCH  14  16
HETATM   16  C   UNL     1     -40.782  54.162 -54.613  1.00  0.00     0.009 A 
HETATM   17  C   UNL     1     -40.492  52.800 -54.796  1.00  0.00     0.035 A 
HETATM   18  C   UNL     1     -40.168  51.952 -53.721  1.00  0.00    -0.024 A 
HETATM   19  C   UNL     1     -40.158  52.474 -52.412  1.00  0.00    -0.026 A 
HETATM   20  C   UNL     1     -39.862  50.595 -53.921  1.00  0.00     0.012 A 
HETATM   21  C   UNL     1     -40.478  53.825 -52.220  1.00  0.00     0.014 A 
HETATM   22  C   UNL     1     -39.842  51.631 -51.334  1.00  0.00     0.012 A 
HETATM   23  C   UNL     1     -40.798  54.650 -53.306  1.00  0.00     0.024 A 
HETATM   24  C   UNL     1     -39.539  50.284 -51.549  1.00  0.00     0.001 A 
HETATM   25  C   UNL     1     -39.549  49.767 -52.841  1.00  0.00     0.001 A 
ENDBRANCH  14  16
ENDBRANCH   1  14
TORSDOF 5
ENDMDL
MODEL 5
REMARK VINA RESULT:      -8.1      2.264      3.974
REMARK  5 active torsions:
REMARK  status: ('A' for Active; 'I' for Inactive)
REMARK    1  A    between atoms: O_2  and  C_3 
REMARK    2  A    between atoms: C_6  and  N_7 
REMARK       I    between atoms: N_7  and  C_8 
REMARK    3  A    between atoms: C_8  and  C_9 
REMARK    4  A    between atoms: C_9  and  N_10 
REMARK    5  A    between atoms: N_10  and  C_11 
ROOT
HETATM    1  C   UNL     1     -41.799  55.568 -55.504  1.00  0.00     0.195 C 
ENDROOT
BRANCH   1   2
HETATM    2  C   UNL     1     -43.159  54.901 -55.311  1.00  0.00     0.235 C 
HETATM    3  N   UNL     1     -44.098  55.373 -54.439  1.00  0.00    -0.326 N 
HETATM    4  H   UNL     1     -44.969  54.868 -54.552  1.00  0.00     0.169 HD
HETATM    5  O   UNL     1     -43.453  53.896 -55.973  1.00  0.00    -0.272 OA
BRANCH   3   6
HETATM    6  C   UNL     1     -44.094  56.372 -53.449  1.00  0.00     0.034 A 
HETATM    7  C   UNL     1     -43.570  56.238 -52.165  1.00  0.00     0.032 A 
HETATM    8  C   UNL     1     -43.608  57.307 -51.255  1.00  0.00     0.039 A 
HETATM    9  C   UNL     1     -44.188  58.521 -51.614  1.00  0.00     0.068 A 
HETATM   10  C   UNL     1     -44.755  58.646 -52.880  1.00  0.00     0.039 A 
HETATM   11  C   UNL     1     -44.712  57.582 -53.787  1.00  0.00     0.032 A 
BRANCH   9  12
HETATM   12  O   UNL     1     -44.280  59.633 -50.826  1.00  0.00    -0.356 OA
HETATM   13  C   UNL     1     -45.591  60.074 -50.494  1.00  0.00     0.210 C 
ENDBRANCH   9  12
ENDBRANCH   3   6
ENDBRANCH   1   2
BRANCH   1  14
HETATM   14  N   UNL     1     -40.747  54.549 -55.517  1.00  0.00    -0.284 NA
HETATM   15  H   UNL     1     -39.903  54.887 -55.978  1.00  0.00     0.128 HD
BRANCH  14  16
HETATM   16  C   UNL     1     -40.455  53.811 -54.368  1.00  0.00     0.009 A 
HETATM   17  C   UNL     1     -40.203  52.436 -54.511  1.00  0.00     0.035 A 
HETATM   18  C   UNL     1     -39.994  51.593 -53.405  1.00  0.00    -0.024 A 
HETATM   19  C   UNL     1     -40.065  52.134 -52.106  1.00  0.00    -0.026 A 
HETATM   20  C   UNL     1     -39.726  50.223 -53.565  1.00  0.00     0.012 A 
HETATM   21  C   UNL     1     -40.347  53.498 -51.954  1.00  0.00     0.014 A 
HETATM   22  C   UNL     1     -39.864  51.295 -50.997  1.00  0.00     0.012 A 
HETATM   23  C   UNL     1     -40.553  54.318 -53.072  1.00  0.00     0.024 A 
HETATM   24  C   UNL     1     -39.597  49.936 -51.172  1.00  0.00     0.001 A 
HETATM   25  C   UNL     1     -39.528  49.400 -52.454  1.00  0.00     0.001 A 
ENDBRANCH  14  16
ENDBRANCH   1  14
TORSDOF 5
ENDMDL
MODEL 6
REMARK VINA RESULT:      -8.1      0.683      1.532
REMARK  5 active torsions:
REMARK  status: ('A' for Active; 'I' for Inactive)
REMARK    1  A    between atoms: O_2  and  C_3 
REMARK    2  A    between atoms: C_6  and  N_7 
REMARK       I    between atoms: N_7  and  C_8 
REMARK    3  A    between atoms: C_8  and  C_9 
REMARK    4  A    between atoms: C_9  and  N_10 
REMARK    5  A    between atoms: N_10  and  C_11 
ROOT
HETATM    1  C   UNL     1     -41.884  56.461 -51.832  1.00  0.00     0.195 C 
ENDROOT
BRANCH   1   2
HETATM    2  C   UNL     1     -43.301  55.893 -51.868  1.00  0.00     0.235 C 
HETATM    3  N   UNL     1     -43.970  55.649 -53.033  1.00  0.00    -0.326 N 
HETATM    4  H   UNL     1     -44.838  55.160 -52.845  1.00  0.00     0.169 HD
HETATM    5  O   UNL     1     -43.884  55.619 -50.810  1.00  0.00    -0.272 OA
BRANCH   3   6
HETATM    6  C   UNL     1     -43.712  55.938 -54.385  1.00  0.00     0.034 A 
HETATM    7  C   UNL     1     -43.913  57.170 -55.003  1.00  0.00     0.032 A 
HETATM    8  C   UNL     1     -43.610  57.354 -56.361  1.00  0.00     0.039 A 
HETATM    9  C   UNL     1     -43.116  56.300 -57.125  1.00  0.00     0.068 A 
HETATM   10  C   UNL     1     -42.957  55.053 -56.525  1.00  0.00     0.039 A 
HETATM   11  C   UNL     1     -43.255  54.872 -55.170  1.00  0.00     0.032 A 
BRANCH   9  12
HETATM   12  O   UNL     1     -42.778  56.353 -58.448  1.00  0.00    -0.356 OA
HETATM   13  C   UNL     1     -43.527  55.528 -59.332  1.00  0.00     0.210 C 
ENDBRANCH   9  12
ENDBRANCH   3   6
ENDBRANCH   1   2
BRANCH   1  14
HETATM   14  N   UNL     1     -40.968  55.465 -51.269  1.00  0.00    -0.284 NA
HETATM   15  H   UNL     1     -41.133  55.325 -50.272  1.00  0.00     0.128 HD
BRANCH  14  16
HETATM   16  C   UNL     1     -40.729  54.260 -51.934  1.00  0.00     0.009 A 
HETATM   17  C   UNL     1     -40.465  53.119 -51.159  1.00  0.00     0.035 A 
HETATM   18  C   UNL     1     -40.119  51.884 -51.736  1.00  0.00    -0.024 A 
HETATM   19  C   UNL     1     -40.004  51.789 -53.138  1.00  0.00    -0.026 A 
HETATM   20  C   UNL     1     -39.875  50.746 -50.949  1.00  0.00     0.012 A 
HETATM   21  C   UNL     1     -40.235  52.932 -53.915  1.00  0.00     0.014 A 
HETATM   22  C   UNL     1     -39.652  50.560 -53.720  1.00  0.00     0.012 A 
HETATM   23  C   UNL     1     -40.578  54.152 -53.317  1.00  0.00     0.024 A 
HETATM   24  C   UNL     1     -39.415  49.438 -52.924  1.00  0.00     0.001 A 
HETATM   25  C   UNL     1     -39.526  49.530 -51.540  1.00  0.00     0.001 A 
ENDBRANCH  14  16
ENDBRANCH   1  14
TORSDOF 5
ENDMDL
MODEL 7
REMARK VINA RESULT:      -8.0      1.920      3.232
REMARK  5 active torsions:
REMARK  status: ('A' for Active; 'I' for Inactive)
REMARK    1  A    between atoms: O_2  and  C_3 
REMARK    2  A    between atoms: C_6  and  N_7 
REMARK       I    between atoms: N_7  and  C_8 
REMARK    3  A    between atoms: C_8  and  C_9 
REMARK    4  A    between atoms: C_9  and  N_10 
REMARK    5  A    between atoms: N_10  and  C_11 
ROOT
HETATM    1  C   UNL     1     -44.545  56.772 -54.316  1.00  0.00     0.195 C 
ENDROOT
BRANCH   1   2
HETATM    2  C   UNL     1     -43.226  57.501 -54.561  1.00  0.00     0.235 C 
HETATM    3  N   UNL     1     -42.688  57.658 -55.806  1.00  0.00    -0.326 N 
HETATM    4  H   UNL     1     -41.883  58.273 -55.767  1.00  0.00     0.169 HD
HETATM    5  O   UNL     1     -42.607  57.994 -53.609  1.00  0.00    -0.272 OA
BRANCH   3   6
HETATM    6  C   UNL     1     -43.006  57.148 -57.078  1.00  0.00     0.034 A 
HETATM    7  C   UNL     1     -42.875  55.819 -57.474  1.00  0.00     0.032 A 
HETATM    8  C   UNL     1     -43.235  55.413 -58.769  1.00  0.00     0.039 A 
HETATM    9  C   UNL     1     -43.716  56.338 -59.692  1.00  0.00     0.068 A 
HETATM   10  C   UNL     1     -43.806  57.677 -59.317  1.00  0.00     0.039 A 
HETATM   11  C   UNL     1     -43.451  58.078 -58.025  1.00  0.00     0.032 A 
BRANCH   9  12
HETATM   12  O   UNL     1     -44.105  56.069 -60.974  1.00  0.00    -0.356 OA
HETATM   13  C   UNL     1     -45.127  55.095 -61.140  1.00  0.00     0.210 C 
ENDBRANCH   9  12
ENDBRANCH   3   6
ENDBRANCH   1   2
BRANCH   1  14
HETATM   14  N   UNL     1     -44.323  55.324 -54.357  1.00  0.00    -0.284 NA
HETATM   15  H   UNL     1     -44.353  54.967 -55.312  1.00  0.00     0.128 HD
BRANCH  14  16
HETATM   16  C   UNL     1     -43.296  54.740 -53.613  1.00  0.00     0.009 A 
HETATM   17  C   UNL     1     -42.397  53.890 -54.280  1.00  0.00     0.035 A 
HETATM   18  C   UNL     1     -41.390  53.182 -53.600  1.00  0.00    -0.024 A 
HETATM   19  C   UNL     1     -41.292  53.302 -52.199  1.00  0.00    -0.026 A 
HETATM   20  C   UNL     1     -40.488  52.349 -54.282  1.00  0.00     0.012 A 
HETATM   21  C   UNL     1     -42.205  54.123 -51.523  1.00  0.00     0.014 A 
HETATM   22  C   UNL     1     -40.292  52.591 -51.514  1.00  0.00     0.012 A 
HETATM   23  C   UNL     1     -43.200  54.819 -52.223  1.00  0.00     0.024 A 
HETATM   24  C   UNL     1     -39.402  51.769 -52.207  1.00  0.00     0.001 A 
HETATM   25  C   UNL     1     -39.499  51.648 -53.590  1.00  0.00     0.001 A 
ENDBRANCH  14  16
ENDBRANCH   1  14
TORSDOF 5
ENDMDL
MODEL 8
REMARK VINA RESULT:      -7.8      2.574      5.038
REMARK  5 active torsions:
REMARK  status: ('A' for Active; 'I' for Inactive)
REMARK    1  A    between atoms: O_2  and  C_3 
REMARK    2  A    between atoms: C_6  and  N_7 
REMARK       I    between atoms: N_7  and  C_8 
REMARK    3  A    between atoms: C_8  and  C_9 
REMARK    4  A    between atoms: C_9  and  N_10 
REMARK    5  A    between atoms: N_10  and  C_11 
ROOT
HETATM    1  C   UNL     1     -42.884  56.004 -57.506  1.00  0.00     0.195 C 
ENDROOT
BRANCH   1   2
HETATM    2  C   UNL     1     -43.915  57.127 -57.426  1.00  0.00     0.235 C 
HETATM    3  N   UNL     1     -44.034  57.945 -56.340  1.00  0.00    -0.326 N 
HETATM    4  H   UNL     1     -44.685  58.697 -56.535  1.00  0.00     0.169 HD
HETATM    5  O   UNL     1     -44.676  57.336 -58.381  1.00  0.00    -0.272 OA
BRANCH   3   6
HETATM    6  C   UNL     1     -43.467  57.946 -55.052  1.00  0.00     0.034 A 
HETATM    7  C   UNL     1     -42.107  58.031 -54.766  1.00  0.00     0.032 A 
HETATM    8  C   UNL     1     -41.647  58.036 -53.439  1.00  0.00     0.039 A 
HETATM    9  C   UNL     1     -42.545  57.940 -52.379  1.00  0.00     0.068 A 
HETATM   10  C   UNL     1     -43.904  57.809 -52.660  1.00  0.00     0.039 A 
HETATM   11  C   UNL     1     -44.360  57.809 -53.982  1.00  0.00     0.032 A 
BRANCH   9  12
HETATM   12  O   UNL     1     -42.226  57.942 -51.051  1.00  0.00    -0.356 OA
HETATM   13  C   UNL     1     -40.938  57.450 -50.703  1.00  0.00     0.210 C 
ENDBRANCH   9  12
ENDBRANCH   3   6
ENDBRANCH   1   2
BRANCH   1  14
HETATM   14  N   UNL     1     -43.307  54.885 -56.660  1.00  0.00    -0.284 NA
HETATM   15  H   UNL     1     -43.549  54.065 -57.216  1.00  0.00     0.128 HD
BRANCH  14  16
HETATM   16  C   UNL     1     -42.585  54.545 -55.514  1.00  0.00     0.009 A 
HETATM   17  C   UNL     1     -43.272  54.495 -54.290  1.00  0.00     0.035 A 
HETATM   18  C   UNL     1     -42.614  54.256 -53.070  1.00  0.00    -0.024 A 
HETATM   19  C   UNL     1     -41.214  54.088 -53.065  1.00  0.00    -0.026 A 
HETATM   20  C   UNL     1     -43.317  54.192 -51.855  1.00  0.00     0.012 A 
HETATM   21  C   UNL     1     -40.519  54.168 -54.279  1.00  0.00     0.014 A 
HETATM   22  C   UNL     1     -40.551  53.856 -51.849  1.00  0.00     0.012 A 
HETATM   23  C   UNL     1     -41.196  54.408 -55.482  1.00  0.00     0.024 A 
HETATM   24  C   UNL     1     -41.265  53.793 -50.650  1.00  0.00     0.001 A 
HETATM   25  C   UNL     1     -42.646  53.961 -50.653  1.00  0.00     0.001 A 
ENDBRANCH  14  16
ENDBRANCH   1  14
TORSDOF 5
ENDMDL
MODEL 9
REMARK VINA RESULT:      -7.7      2.442      4.907
REMARK  5 active torsions:
REMARK  status: ('A' for Active; 'I' for Inactive)
REMARK    1  A    between atoms: O_2  and  C_3 
REMARK    2  A    between atoms: C_6  and  N_7 
REMARK       I    between atoms: N_7  and  C_8 
REMARK    3  A    between atoms: C_8  and  C_9 
REMARK    4  A    between atoms: C_9  and  N_10 
REMARK    5  A    between atoms: N_10  and  C_11 
ROOT
HETATM    1  C   UNL     1     -39.182  51.302 -51.968  1.00  0.00     0.195 C 
ENDROOT
BRANCH   1   2
HETATM    2  C   UNL     1     -39.765  50.553 -53.164  1.00  0.00     0.235 C 
HETATM    3  N   UNL     1     -40.349  51.189 -54.221  1.00  0.00    -0.326 N 
HETATM    4  H   UNL     1     -40.556  50.527 -54.960  1.00  0.00     0.169 HD
HETATM    5  O   UNL     1     -39.703  49.317 -53.209  1.00  0.00    -0.272 OA
BRANCH   3   6
HETATM    6  C   UNL     1     -40.718  52.523 -54.475  1.00  0.00     0.034 A 
HETATM    7  C   UNL     1     -39.849  53.612 -54.505  1.00  0.00     0.032 A 
HETATM    8  C   UNL     1     -40.322  54.905 -54.782  1.00  0.00     0.039 A 
HETATM    9  C   UNL     1     -41.677  55.128 -55.015  1.00  0.00     0.068 A 
HETATM   10  C   UNL     1     -42.557  54.050 -54.941  1.00  0.00     0.039 A 
HETATM   11  C   UNL     1     -42.083  52.762 -54.670  1.00  0.00     0.032 A 
BRANCH   9  12
HETATM   12  O   UNL     1     -42.258  56.331 -55.301  1.00  0.00    -0.356 OA
HETATM   13  C   UNL     1     -42.568  56.582 -56.666  1.00  0.00     0.210 C 
ENDBRANCH   9  12
ENDBRANCH   3   6
ENDBRANCH   1   2
BRANCH   1  14
HETATM   14  N   UNL     1     -40.256  51.658 -51.038  1.00  0.00    -0.284 NA
HETATM   15  H   UNL     1     -40.198  51.120 -50.173  1.00  0.00     0.128 HD
BRANCH  14  16
HETATM   16  C   UNL     1     -40.578  52.996 -50.800  1.00  0.00     0.009 A 
HETATM   17  C   UNL     1     -41.787  53.487 -51.320  1.00  0.00     0.035 A 
HETATM   18  C   UNL     1     -42.153  54.841 -51.215  1.00  0.00    -0.024 A 
HETATM   19  C   UNL     1     -41.269  55.746 -50.593  1.00  0.00    -0.026 A 
HETATM   20  C   UNL     1     -43.374  55.315 -51.724  1.00  0.00     0.012 A 
HETATM   21  C   UNL     1     -40.047  55.268 -50.100  1.00  0.00     0.014 A 
HETATM   22  C   UNL     1     -41.626  57.101 -50.492  1.00  0.00     0.012 A 
HETATM   23  C   UNL     1     -39.705  53.915 -50.217  1.00  0.00     0.024 A 
HETATM   24  C   UNL     1     -42.844  57.556 -51.001  1.00  0.00     0.001 A 
HETATM   25  C   UNL     1     -43.717  56.664 -51.617  1.00  0.00     0.001 A 
ENDBRANCH  14  16
ENDBRANCH   1  14
TORSDOF 5
ENDMDL
MODEL 10
REMARK VINA RESULT:      -7.7      2.053      2.872
REMARK  5 active torsions:
REMARK  status: ('A' for Active; 'I' for Inactive)
REMARK    1  A    between atoms: O_2  and  C_3 
REMARK    2  A    between atoms: C_6  and  N_7 
REMARK       I    between atoms: N_7  and  C_8 
REMARK    3  A    between atoms: C_8  and  C_9 
REMARK    4  A    between atoms: C_9  and  N_10 
REMARK    5  A    between atoms: N_10  and  C_11 
ROOT
HETATM    1  C   UNL     1     -40.733  57.230 -53.782  1.00  0.00     0.195 C 
ENDROOT
BRANCH   1   2
HETATM    2  C   UNL     1     -41.794  58.323 -53.887  1.00  0.00     0.235 C 
HETATM    3  N   UNL     1     -42.600  58.469 -54.979  1.00  0.00    -0.326 N 
HETATM    4  H   UNL     1     -43.313  59.166 -54.800  1.00  0.00     0.169 HD
HETATM    5  O   UNL     1     -41.961  59.113 -52.948  1.00  0.00    -0.272 OA
BRANCH   3   6
HETATM    6  C   UNL     1     -42.630  57.878 -56.255  1.00  0.00     0.034 A 
HETATM    7  C   UNL     1     -42.356  58.529 -57.456  1.00  0.00     0.032 A 
HETATM    8  C   UNL     1     -42.403  57.839 -58.678  1.00  0.00     0.039 A 
HETATM    9  C   UNL     1     -42.742  56.489 -58.716  1.00  0.00     0.068 A 
HETATM   10  C   UNL     1     -43.062  55.844 -57.523  1.00  0.00     0.039 A 
HETATM   11  C   UNL     1     -43.010  56.532 -56.306  1.00  0.00     0.032 A 
BRANCH   9  12
HETATM   12  O   UNL     1     -42.815  55.708 -59.834  1.00  0.00    -0.356 OA
HETATM   13  C   UNL     1     -44.117  55.333 -60.266  1.00  0.00     0.210 C 
ENDBRANCH   9  12
ENDBRANCH   3   6
ENDBRANCH   1   2
BRANCH   1  14
HETATM   14  N   UNL     1     -41.213  56.160 -52.904  1.00  0.00    -0.284 NA
HETATM   15  H   UNL     1     -42.186  56.304 -52.634  1.00  0.00     0.128 HD
BRANCH  14  16
HETATM   16  C   UNL     1     -40.945  54.821 -53.200  1.00  0.00     0.009 A 
HETATM   17  C   UNL     1     -40.620  53.962 -52.138  1.00  0.00     0.035 A 
HETATM   18  C   UNL     1     -40.242  52.623 -52.345  1.00  0.00    -0.024 A 
HETATM   19  C   UNL     1     -40.160  52.128 -53.663  1.00  0.00    -0.026 A 
HETATM   20  C   UNL     1     -39.936  51.770 -51.272  1.00  0.00     0.012 A 
HETATM   21  C   UNL     1     -40.453  52.990 -54.729  1.00  0.00     0.014 A 
HETATM   22  C   UNL     1     -39.777  50.794 -53.877  1.00  0.00     0.012 A 
HETATM   23  C   UNL     1     -40.826  54.320 -54.497  1.00  0.00     0.024 A 
HETATM   24  C   UNL     1     -39.477  49.958 -52.799  1.00  0.00     0.001 A 
HETATM   25  C   UNL     1     -39.557  50.445 -51.498  1.00  0.00     0.001 A 
ENDBRANCH  14  16
ENDBRANCH   1  14
TORSDOF 5
ENDMDL
