MODEL 1
REMARK VINA RESULT:      -9.0      0.000      0.000
REMARK  2 active torsions:
REMARK  status: ('A' for Active; 'I' for Inactive)
REMARK    1  A    between atoms: C_3  and  C_4 
REMARK       I    between atoms: C_4  and  N_5 
REMARK    2  A    between atoms: N_5  and  N_6 
ROOT
HETATM    1  N   UNL     1     -41.300  55.439 -51.510  1.00  0.00    -0.282 N 
HETATM    2  C   UNL     1     -41.942  56.459 -52.070  1.00  0.00     0.127 C 
HETATM    3  C   UNL     1     -41.856  57.801 -51.440  1.00  0.00     0.015 A 
HETATM    4  C   UNL     1     -42.854  58.753 -51.731  1.00  0.00    -0.042 A 
HETATM    5  C   UNL     1     -42.833  60.015 -51.124  1.00  0.00     0.008 A 
HETATM    6  C   UNL     1     -41.796  60.355 -50.260  1.00  0.00     0.001 A 
HETATM    7  C   UNL     1     -40.780  59.441 -49.997  1.00  0.00     0.001 A 
HETATM    8  C   UNL     1     -40.806  58.174 -50.583  1.00  0.00     0.016 A 
HETATM    9  C   UNL     1     -43.963  58.378 -52.680  1.00  0.00     0.069 C 
HETATM   10  C   UNL     1     -43.460  57.420 -53.780  1.00  0.00     0.028 C 
HETATM   11  C   UNL     1     -44.658  56.793 -54.503  1.00  0.00     0.038 C 
HETATM   12  C   UNL     1     -42.554  58.120 -54.799  1.00  0.00     0.038 C 
HETATM   13  N   UNL     1     -42.686  56.307 -53.164  1.00  0.00    -0.366 N 
HETATM   14  H   UNL     1     -42.759  55.389 -53.569  1.00  0.00     0.162 HD
HETATM   15  H   UNL     1     -40.867  55.607 -50.593  1.00  0.00     0.188 HD
ENDROOT
BRANCH   1  16
HETATM   16  N   UNL     1     -41.192  54.193 -51.963  1.00  0.00    -0.264 N 
HETATM   17  C   UNL     1     -40.159  53.450 -51.409  1.00  0.00     0.270 C 
HETATM   18  O   UNL     1     -39.406  53.945 -50.573  1.00  0.00    -0.266 OA
HETATM   19  H   UNL     1     -41.730  53.847 -52.747  1.00  0.00     0.190 HD
BRANCH  17  20
HETATM   20  C   UNL     1     -39.971  52.072 -51.923  1.00  0.00     0.039 A 
HETATM   21  C   UNL     1     -39.933  51.746 -53.294  1.00  0.00    -0.046 A 
HETATM   22  C   UNL     1     -40.147  52.743 -54.398  1.00  0.00     0.049 C 
HETATM   23  C   UNL     1     -39.702  50.407 -53.653  1.00  0.00     0.007 A 
HETATM   24  C   UNL     1     -39.561  49.414 -52.680  1.00  0.00     0.001 A 
HETATM   25  C   UNL     1     -39.647  49.741 -51.330  1.00  0.00     0.001 A 
HETATM   26  C   UNL     1     -39.853  51.066 -50.951  1.00  0.00     0.017 A 
ENDBRANCH  17  20
ENDBRANCH   1  16
TORSDOF 2
ENDMDL
MODEL 2
REMARK VINA RESULT:      -8.8      2.994      5.376
REMARK  2 active torsions:
REMARK  status: ('A' for Active; 'I' for Inactive)
REMARK    1  A    between atoms: C_3  and  C_4 
REMARK       I    between atoms: C_4  and  N_5 
REMARK    2  A    between atoms: N_5  and  N_6 
ROOT
HETATM    1  N   UNL     1     -42.400  54.749 -56.029  1.00  0.00    -0.282 N 
HETATM    2  C   UNL     1     -42.638  56.020 -56.338  1.00  0.00     0.127 C 
HETATM    3  C   UNL     1     -42.980  56.372 -57.739  1.00  0.00     0.015 A 
HETATM    4  C   UNL     1     -42.788  57.699 -58.172  1.00  0.00    -0.042 A 
HETATM    5  C   UNL     1     -43.057  58.062 -59.497  1.00  0.00     0.008 A 
HETATM    6  C   UNL     1     -43.562  57.120 -60.389  1.00  0.00     0.001 A 
HETATM    7  C   UNL     1     -43.798  55.815 -59.964  1.00  0.00     0.001 A 
HETATM    8  C   UNL     1     -43.513  55.442 -58.649  1.00  0.00     0.016 A 
HETATM    9  C   UNL     1     -42.255  58.714 -57.193  1.00  0.00     0.069 C 
HETATM   10  C   UNL     1     -42.757  58.430 -55.762  1.00  0.00     0.028 C 
HETATM   11  C   UNL     1     -41.935  59.247 -54.758  1.00  0.00     0.038 C 
HETATM   12  C   UNL     1     -44.246  58.746 -55.587  1.00  0.00     0.038 C 
HETATM   13  N   UNL     1     -42.550  56.992 -55.432  1.00  0.00    -0.366 N 
HETATM   14  H   UNL     1     -42.293  56.747 -54.490  1.00  0.00     0.162 HD
HETATM   15  H   UNL     1     -42.349  54.082 -56.808  1.00  0.00     0.188 HD
ENDROOT
BRANCH   1  16
HETATM   16  N   UNL     1     -42.160  54.230 -54.828  1.00  0.00    -0.264 N 
HETATM   17  C   UNL     1     -40.832  53.922 -54.572  1.00  0.00     0.270 C 
HETATM   18  O   UNL     1     -39.966  54.114 -55.422  1.00  0.00    -0.266 OA
HETATM   19  H   UNL     1     -42.899  53.951 -54.194  1.00  0.00     0.190 HD
BRANCH  17  20
HETATM   20  C   UNL     1     -40.528  53.294 -53.263  1.00  0.00     0.039 A 
HETATM   21  C   UNL     1     -40.078  51.965 -53.118  1.00  0.00    -0.046 A 
HETATM   22  C   UNL     1     -39.920  51.005 -54.263  1.00  0.00     0.049 C 
HETATM   23  C   UNL     1     -39.780  51.502 -51.825  1.00  0.00     0.007 A 
HETATM   24  C   UNL     1     -39.966  52.317 -50.707  1.00  0.00     0.001 A 
HETATM   25  C   UNL     1     -40.455  53.611 -50.858  1.00  0.00     0.001 A 
HETATM   26  C   UNL     1     -40.737  54.099 -52.133  1.00  0.00     0.017 A 
ENDBRANCH  17  20
ENDBRANCH   1  16
TORSDOF 2
ENDMDL
MODEL 3
REMARK VINA RESULT:      -8.8      2.100      4.218
REMARK  2 active torsions:
REMARK  status: ('A' for Active; 'I' for Inactive)
REMARK    1  A    between atoms: C_3  and  C_4 
REMARK       I    between atoms: C_4  and  N_5 
REMARK    2  A    between atoms: N_5  and  N_6 
ROOT
HETATM    1  N   UNL     1     -41.977  54.086 -55.098  1.00  0.00    -0.282 N 
HETATM    2  C   UNL     1     -42.328  55.359 -54.954  1.00  0.00     0.127 C 
HETATM    3  C   UNL     1     -42.608  56.174 -56.163  1.00  0.00     0.015 A 
HETATM    4  C   UNL     1     -42.531  57.578 -56.068  1.00  0.00    -0.042 A 
HETATM    5  C   UNL     1     -42.745  58.381 -57.195  1.00  0.00     0.008 A 
HETATM    6  C   UNL     1     -43.081  57.797 -58.413  1.00  0.00     0.001 A 
HETATM    7  C   UNL     1     -43.204  56.414 -58.512  1.00  0.00     0.001 A 
HETATM    8  C   UNL     1     -42.972  55.606 -57.396  1.00  0.00     0.016 A 
HETATM    9  C   UNL     1     -42.179  58.200 -54.741  1.00  0.00     0.069 C 
HETATM   10  C   UNL     1     -42.746  57.374 -53.567  1.00  0.00     0.028 C 
HETATM   11  C   UNL     1     -42.089  57.825 -52.257  1.00  0.00     0.038 C 
HETATM   12  C   UNL     1     -44.269  57.491 -53.446  1.00  0.00     0.038 C 
HETATM   13  N   UNL     1     -42.409  55.935 -53.755  1.00  0.00    -0.366 N 
HETATM   14  H   UNL     1     -42.192  55.382 -52.943  1.00  0.00     0.162 HD
HETATM   15  H   UNL     1     -41.799  53.757 -56.056  1.00  0.00     0.188 HD
ENDROOT
BRANCH   1  16
HETATM   16  N   UNL     1     -41.766  53.182 -54.146  1.00  0.00    -0.264 N 
HETATM   17  C   UNL     1     -40.440  52.821 -53.955  1.00  0.00     0.270 C 
HETATM   18  O   UNL     1     -39.549  53.311 -54.646  1.00  0.00    -0.266 OA
HETATM   19  H   UNL     1     -42.519  52.689 -53.683  1.00  0.00     0.190 HD
BRANCH  17  20
HETATM   20  C   UNL     1     -40.166  51.778 -52.937  1.00  0.00     0.039 A 
HETATM   21  C   UNL     1     -39.842  50.443 -53.252  1.00  0.00    -0.046 A 
HETATM   22  C   UNL     1     -39.802  49.898 -54.653  1.00  0.00     0.049 C 
HETATM   23  C   UNL     1     -39.558  49.560 -52.195  1.00  0.00     0.007 A 
HETATM   24  C   UNL     1     -39.640  49.979 -50.866  1.00  0.00     0.001 A 
HETATM   25  C   UNL     1     -40.007  51.287 -50.566  1.00  0.00     0.001 A 
HETATM   26  C   UNL     1     -40.271  52.185 -51.598  1.00  0.00     0.017 A 
ENDBRANCH  17  20
ENDBRANCH   1  16
TORSDOF 2
ENDMDL
MODEL 4
REMARK VINA RESULT:      -8.6      1.763      3.894
REMARK  2 active torsions:
REMARK  status: ('A' for Active; 'I' for Inactive)
REMARK    1  A    between atoms: C_3  and  C_4 
REMARK       I    between atoms: C_4  and  N_5 
REMARK    2  A    between atoms: N_5  and  N_6 
ROOT
HETATM    1  N   UNL     1     -42.116  54.946 -54.912  1.00  0.00    -0.282 N 
HETATM    2  C   UNL     1     -42.185  56.203 -54.487  1.00  0.00     0.127 C 
HETATM    3  C   UNL     1     -42.622  57.263 -55.431  1.00  0.00     0.015 A 
HETATM    4  C   UNL     1     -42.273  58.601 -55.158  1.00  0.00    -0.042 A 
HETATM    5  C   UNL     1     -42.628  59.625 -56.045  1.00  0.00     0.008 A 
HETATM    6  C   UNL     1     -43.370  59.333 -57.186  1.00  0.00     0.001 A 
HETATM    7  C   UNL     1     -43.759  58.022 -57.446  1.00  0.00     0.001 A 
HETATM    8  C   UNL     1     -43.391  56.993 -56.576  1.00  0.00     0.016 A 
HETATM    9  C   UNL     1     -41.482  58.908 -53.912  1.00  0.00     0.069 C 
HETATM   10  C   UNL     1     -41.860  57.953 -52.759  1.00  0.00     0.028 C 
HETATM   11  C   UNL     1     -40.814  58.057 -51.643  1.00  0.00     0.038 C 
HETATM   12  C   UNL     1     -43.252  58.243 -52.188  1.00  0.00     0.038 C 
HETATM   13  N   UNL     1     -41.845  56.546 -53.246  1.00  0.00    -0.366 N 
HETATM   14  H   UNL     1     -41.526  55.824 -52.621  1.00  0.00     0.162 HD
HETATM   15  H   UNL     1     -42.257  54.786 -55.918  1.00  0.00     0.188 HD
ENDROOT
BRANCH   1  16
HETATM   16  N   UNL     1     -41.828  53.857 -54.205  1.00  0.00    -0.264 N 
HETATM   17  C   UNL     1     -40.523  53.402 -54.325  1.00  0.00     0.270 C 
HETATM   18  O   UNL     1     -39.720  53.979 -55.054  1.00  0.00    -0.266 OA
HETATM   19  H   UNL     1     -42.534  53.317 -53.720  1.00  0.00     0.190 HD
BRANCH  17  20
HETATM   20  C   UNL     1     -40.174  52.161 -53.591  1.00  0.00     0.039 A 
HETATM   21  C   UNL     1     -39.916  52.117 -52.206  1.00  0.00    -0.046 A 
HETATM   22  C   UNL     1     -39.894  53.330 -51.319  1.00  0.00     0.049 C 
HETATM   23  C   UNL     1     -39.641  50.869 -51.620  1.00  0.00     0.007 A 
HETATM   24  C   UNL     1     -39.579  49.708 -52.394  1.00  0.00     0.001 A 
HETATM   25  C   UNL     1     -39.790  49.772 -53.768  1.00  0.00     0.001 A 
HETATM   26  C   UNL     1     -40.086  50.995 -54.366  1.00  0.00     0.017 A 
ENDBRANCH  17  20
ENDBRANCH   1  16
TORSDOF 2
ENDMDL
MODEL 5
REMARK VINA RESULT:      -8.6      3.310      5.184
REMARK  2 active torsions:
REMARK  status: ('A' for Active; 'I' for Inactive)
REMARK    1  A    between atoms: C_3  and  C_4 
REMARK       I    between atoms: C_4  and  N_5 
REMARK    2  A    between atoms: N_5  and  N_6 
ROOT
HETATM    1  N   UNL     1     -42.923  56.323 -55.444  1.00  0.00    -0.282 N 
HETATM    2  C   UNL     1     -43.272  56.541 -56.708  1.00  0.00     0.127 C 
HETATM    3  C   UNL     1     -43.636  57.917 -57.131  1.00  0.00     0.015 A 
HETATM    4  C   UNL     1     -44.421  58.086 -58.289  1.00  0.00    -0.042 A 
HETATM    5  C   UNL     1     -44.823  59.364 -58.697  1.00  0.00     0.008 A 
HETATM    6  C   UNL     1     -44.410  60.485 -57.983  1.00  0.00     0.001 A 
HETATM    7  C   UNL     1     -43.599  60.337 -56.862  1.00  0.00     0.001 A 
HETATM    8  C   UNL     1     -43.211  59.064 -56.438  1.00  0.00     0.016 A 
HETATM    9  C   UNL     1     -44.850  56.865 -59.062  1.00  0.00     0.069 C 
HETATM   10  C   UNL     1     -43.773  55.761 -59.009  1.00  0.00     0.028 C 
HETATM   11  C   UNL     1     -44.372  54.435 -59.494  1.00  0.00     0.038 C 
HETATM   12  C   UNL     1     -42.537  56.103 -59.847  1.00  0.00     0.038 C 
HETATM   13  N   UNL     1     -43.332  55.555 -57.601  1.00  0.00    -0.366 N 
HETATM   14  H   UNL     1     -43.108  54.621 -57.299  1.00  0.00     0.162 HD
HETATM   15  H   UNL     1     -43.038  57.105 -54.787  1.00  0.00     0.188 HD
ENDROOT
BRANCH   1  16
HETATM   16  N   UNL     1     -42.491  55.190 -54.898  1.00  0.00    -0.264 N 
HETATM   17  C   UNL     1     -41.291  55.285 -54.208  1.00  0.00     0.270 C 
HETATM   18  O   UNL     1     -40.688  56.354 -54.140  1.00  0.00    -0.266 OA
HETATM   19  H   UNL     1     -42.927  54.294 -55.079  1.00  0.00     0.190 HD
BRANCH  17  20
HETATM   20  C   UNL     1     -40.749  54.033 -53.626  1.00  0.00     0.039 A 
HETATM   21  C   UNL     1     -40.668  53.785 -52.241  1.00  0.00    -0.046 A 
HETATM   22  C   UNL     1     -41.057  54.784 -51.187  1.00  0.00     0.049 C 
HETATM   23  C   UNL     1     -40.177  52.539 -51.816  1.00  0.00     0.007 A 
HETATM   24  C   UNL     1     -39.735  51.587 -52.738  1.00  0.00     0.001 A 
HETATM   25  C   UNL     1     -39.775  51.862 -54.101  1.00  0.00     0.001 A 
HETATM   26  C   UNL     1     -40.280  53.083 -54.545  1.00  0.00     0.017 A 
ENDBRANCH  17  20
ENDBRANCH   1  16
TORSDOF 2
ENDMDL
MODEL 6
REMARK VINA RESULT:      -8.4      2.037      7.304
REMARK  2 active torsions:
REMARK  status: ('A' for Active; 'I' for Inactive)
REMARK    1  A    between atoms: C_3  and  C_4 
REMARK       I    between atoms: C_4  and  N_5 
REMARK    2  A    between atoms: N_5  and  N_6 
ROOT
HETATM    1  N   UNL     1     -41.634  56.313 -51.944  1.00  0.00    -0.282 N 
HETATM    2  C   UNL     1     -41.632  55.459 -52.962  1.00  0.00     0.127 C 
HETATM    3  C   UNL     1     -40.942  54.153 -52.809  1.00  0.00     0.015 A 
HETATM    4  C   UNL     1     -40.542  53.458 -53.968  1.00  0.00    -0.042 A 
HETATM    5  C   UNL     1     -39.850  52.244 -53.867  1.00  0.00     0.008 A 
HETATM    6  C   UNL     1     -39.591  51.692 -52.616  1.00  0.00     0.001 A 
HETATM    7  C   UNL     1     -40.019  52.346 -51.464  1.00  0.00     0.001 A 
HETATM    8  C   UNL     1     -40.691  53.566 -51.557  1.00  0.00     0.016 A 
HETATM    9  C   UNL     1     -40.841  54.059 -55.318  1.00  0.00     0.069 C 
HETATM   10  C   UNL     1     -42.173  54.838 -55.302  1.00  0.00     0.028 C 
HETATM   11  C   UNL     1     -42.272  55.712 -56.558  1.00  0.00     0.038 C 
HETATM   12  C   UNL     1     -43.393  53.915 -55.220  1.00  0.00     0.038 C 
HETATM   13  N   UNL     1     -42.207  55.752 -54.127  1.00  0.00    -0.366 N 
HETATM   14  H   UNL     1     -42.650  56.650 -54.229  1.00  0.00     0.162 HD
HETATM   15  H   UNL     1     -41.050  56.073 -51.133  1.00  0.00     0.188 HD
ENDROOT
BRANCH   1  16
HETATM   16  N   UNL     1     -42.259  57.484 -51.858  1.00  0.00    -0.264 N 
HETATM   17  C   UNL     1     -41.447  58.600 -52.008  1.00  0.00     0.270 C 
HETATM   18  O   UNL     1     -40.238  58.478 -52.190  1.00  0.00    -0.266 OA
HETATM   19  H   UNL     1     -43.226  57.569 -51.572  1.00  0.00     0.190 HD
BRANCH  17  20
HETATM   20  C   UNL     1     -42.096  59.926 -51.870  1.00  0.00     0.039 A 
HETATM   21  C   UNL     1     -42.530  60.703 -52.963  1.00  0.00    -0.046 A 
HETATM   22  C   UNL     1     -42.326  60.313 -54.401  1.00  0.00     0.049 C 
HETATM   23  C   UNL     1     -43.174  61.924 -52.698  1.00  0.00     0.007 A 
HETATM   24  C   UNL     1     -43.338  62.381 -51.389  1.00  0.00     0.001 A 
HETATM   25  C   UNL     1     -42.863  61.628 -50.320  1.00  0.00     0.001 A 
HETATM   26  C   UNL     1     -42.242  60.404 -50.559  1.00  0.00     0.017 A 
ENDBRANCH  17  20
ENDBRANCH   1  16
TORSDOF 2
ENDMDL
MODEL 7
REMARK VINA RESULT:      -8.4      2.065      7.813
REMARK  2 active torsions:
REMARK  status: ('A' for Active; 'I' for Inactive)
REMARK    1  A    between atoms: C_3  and  C_4 
REMARK       I    between atoms: C_4  and  N_5 
REMARK    2  A    between atoms: N_5  and  N_6 
ROOT
HETATM    1  N   UNL     1     -42.484  55.856 -51.996  1.00  0.00    -0.282 N 
HETATM    2  C   UNL     1     -41.609  54.964 -51.544  1.00  0.00     0.127 C 
HETATM    3  C   UNL     1     -41.011  53.992 -52.494  1.00  0.00     0.015 A 
HETATM    4  C   UNL     1     -40.465  52.796 -51.987  1.00  0.00    -0.042 A 
HETATM    5  C   UNL     1     -39.931  51.834 -52.853  1.00  0.00     0.008 A 
HETATM    6  C   UNL     1     -39.895  52.073 -54.224  1.00  0.00     0.001 A 
HETATM    7  C   UNL     1     -40.391  53.269 -54.735  1.00  0.00     0.001 A 
HETATM    8  C   UNL     1     -40.944  54.224 -53.879  1.00  0.00     0.016 A 
HETATM    9  C   UNL     1     -40.497  52.554 -50.499  1.00  0.00     0.069 C 
HETATM   10  C   UNL     1     -40.339  53.873 -49.714  1.00  0.00     0.028 C 
HETATM   11  C   UNL     1     -40.720  53.645 -48.246  1.00  0.00     0.038 C 
HETATM   12  C   UNL     1     -38.918  54.439 -49.794  1.00  0.00     0.038 C 
HETATM   13  N   UNL     1     -41.274  54.897 -50.257  1.00  0.00    -0.366 N 
HETATM   14  H   UNL     1     -41.704  55.544 -49.616  1.00  0.00     0.162 HD
HETATM   15  H   UNL     1     -42.796  55.752 -52.969  1.00  0.00     0.188 HD
ENDROOT
BRANCH   1  16
HETATM   16  N   UNL     1     -43.062  56.849 -51.325  1.00  0.00    -0.264 N 
HETATM   17  C   UNL     1     -43.073  58.075 -51.975  1.00  0.00     0.270 C 
HETATM   18  O   UNL     1     -42.562  58.203 -53.086  1.00  0.00    -0.266 OA
HETATM   19  H   UNL     1     -43.353  56.760 -50.359  1.00  0.00     0.190 HD
BRANCH  17  20
HETATM   20  C   UNL     1     -43.663  59.220 -51.240  1.00  0.00     0.039 A 
HETATM   21  C   UNL     1     -42.900  60.180 -50.544  1.00  0.00    -0.046 A 
HETATM   22  C   UNL     1     -41.404  60.120 -50.404  1.00  0.00     0.049 C 
HETATM   23  C   UNL     1     -43.576  61.246 -49.927  1.00  0.00     0.007 A 
HETATM   24  C   UNL     1     -44.970  61.330 -49.959  1.00  0.00     0.001 A 
HETATM   25  C   UNL     1     -45.714  60.351 -50.609  1.00  0.00     0.001 A 
HETATM   26  C   UNL     1     -45.064  59.298 -51.248  1.00  0.00     0.017 A 
ENDBRANCH  17  20
ENDBRANCH   1  16
TORSDOF 2
ENDMDL
MODEL 8
REMARK VINA RESULT:      -8.4      4.108      8.069
REMARK  2 active torsions:
REMARK  status: ('A' for Active; 'I' for Inactive)
REMARK    1  A    between atoms: C_3  and  C_4 
REMARK       I    between atoms: C_4  and  N_5 
REMARK    2  A    between atoms: N_5  and  N_6 
ROOT
HETATM    1  N   UNL     1     -41.879  56.107 -56.563  1.00  0.00    -0.282 N 
HETATM    2  C   UNL     1     -41.887  56.058 -55.235  1.00  0.00     0.127 C 
HETATM    3  C   UNL     1     -41.366  54.846 -54.553  1.00  0.00     0.015 A 
HETATM    4  C   UNL     1     -41.772  54.585 -53.229  1.00  0.00    -0.042 A 
HETATM    5  C   UNL     1     -41.338  53.430 -52.565  1.00  0.00     0.008 A 
HETATM    6  C   UNL     1     -40.462  52.552 -53.197  1.00  0.00     0.001 A 
HETATM    7  C   UNL     1     -40.018  52.819 -54.488  1.00  0.00     0.001 A 
HETATM    8  C   UNL     1     -40.463  53.958 -55.163  1.00  0.00     0.016 A 
HETATM    9  C   UNL     1     -42.709  55.551 -52.551  1.00  0.00     0.069 C 
HETATM   10  C   UNL     1     -42.448  57.001 -53.010  1.00  0.00     0.028 C 
HETATM   11  C   UNL     1     -43.619  57.894 -52.583  1.00  0.00     0.038 C 
HETATM   12  C   UNL     1     -41.139  57.568 -52.452  1.00  0.00     0.038 C 
HETATM   13  N   UNL     1     -42.376  57.053 -54.497  1.00  0.00    -0.366 N 
HETATM   14  H   UNL     1     -42.751  57.859 -54.969  1.00  0.00     0.162 HD
HETATM   15  H   UNL     1     -41.619  55.246 -57.060  1.00  0.00     0.188 HD
ENDROOT
BRANCH   1  16
HETATM   16  N   UNL     1     -42.225  57.125 -57.346  1.00  0.00    -0.264 N 
HETATM   17  C   UNL     1     -42.845  56.772 -58.536  1.00  0.00     0.270 C 
HETATM   18  O   UNL     1     -43.033  55.591 -58.822  1.00  0.00    -0.266 OA
HETATM   19  H   UNL     1     -41.941  58.079 -57.161  1.00  0.00     0.190 HD
BRANCH  17  20
HETATM   20  C   UNL     1     -43.201  57.875 -59.462  1.00  0.00     0.039 A 
HETATM   21  C   UNL     1     -44.528  58.250 -59.758  1.00  0.00    -0.046 A 
HETATM   22  C   UNL     1     -45.739  57.534 -59.228  1.00  0.00     0.049 C 
HETATM   23  C   UNL     1     -44.733  59.344 -60.616  1.00  0.00     0.007 A 
HETATM   24  C   UNL     1     -43.656  60.014 -61.199  1.00  0.00     0.001 A 
HETATM   25  C   UNL     1     -42.353  59.605 -60.936  1.00  0.00     0.001 A 
HETATM   26  C   UNL     1     -42.125  58.537 -60.070  1.00  0.00     0.017 A 
ENDBRANCH  17  20
ENDBRANCH   1  16
TORSDOF 2
ENDMDL
MODEL 9
REMARK VINA RESULT:      -8.4      3.041      7.078
REMARK  2 active torsions:
REMARK  status: ('A' for Active; 'I' for Inactive)
REMARK    1  A    between atoms: C_3  and  C_4 
REMARK       I    between atoms: C_4  and  N_5 
REMARK    2  A    between atoms: N_5  and  N_6 
ROOT
HETATM    1  N   UNL     1     -42.734  53.989 -55.076  1.00  0.00    -0.282 N 
HETATM    2  C   UNL     1     -42.454  54.364 -53.832  1.00  0.00     0.127 C 
HETATM    3  C   UNL     1     -41.535  53.532 -53.015  1.00  0.00     0.015 A 
HETATM    4  C   UNL     1     -41.585  53.644 -51.612  1.00  0.00    -0.042 A 
HETATM    5  C   UNL     1     -40.765  52.846 -50.804  1.00  0.00     0.008 A 
HETATM    6  C   UNL     1     -39.860  51.963 -51.386  1.00  0.00     0.001 A 
HETATM    7  C   UNL     1     -39.769  51.873 -52.772  1.00  0.00     0.001 A 
HETATM    8  C   UNL     1     -40.597  52.652 -53.583  1.00  0.00     0.016 A 
HETATM    9  C   UNL     1     -42.559  54.613 -50.992  1.00  0.00     0.069 C 
HETATM   10  C   UNL     1     -42.745  55.864 -51.877  1.00  0.00     0.028 C 
HETATM   11  C   UNL     1     -43.976  56.648 -51.408  1.00  0.00     0.038 C 
HETATM   12  C   UNL     1     -41.517  56.780 -51.866  1.00  0.00     0.038 C 
HETATM   13  N   UNL     1     -42.997  55.451 -53.286  1.00  0.00    -0.366 N 
HETATM   14  H   UNL     1     -43.639  55.994 -53.839  1.00  0.00     0.162 HD
HETATM   15  H   UNL     1     -42.390  53.068 -55.374  1.00  0.00     0.188 HD
ENDROOT
BRANCH   1  16
HETATM   16  N   UNL     1     -43.463  54.636 -55.982  1.00  0.00    -0.264 N 
HETATM   17  C   UNL     1     -42.857  55.751 -56.542  1.00  0.00     0.270 C 
HETATM   18  O   UNL     1     -41.731  56.099 -56.191  1.00  0.00    -0.266 OA
HETATM   19  H   UNL     1     -44.436  54.419 -56.157  1.00  0.00     0.190 HD
BRANCH  17  20
HETATM   20  C   UNL     1     -43.655  56.530 -57.520  1.00  0.00     0.039 A 
HETATM   21  C   UNL     1     -44.431  57.656 -57.177  1.00  0.00    -0.046 A 
HETATM   22  C   UNL     1     -44.599  58.161 -55.771  1.00  0.00     0.049 C 
HETATM   23  C   UNL     1     -45.105  58.337 -58.205  1.00  0.00     0.007 A 
HETATM   24  C   UNL     1     -45.049  57.885 -59.525  1.00  0.00     0.001 A 
HETATM   25  C   UNL     1     -44.318  56.745 -59.844  1.00  0.00     0.001 A 
HETATM   26  C   UNL     1     -43.623  56.068 -58.844  1.00  0.00     0.017 A 
ENDBRANCH  17  20
ENDBRANCH   1  16
TORSDOF 2
ENDMDL
MODEL 10
REMARK VINA RESULT:      -8.4      2.430      3.630
REMARK  2 active torsions:
REMARK  status: ('A' for Active; 'I' for Inactive)
REMARK    1  A    between atoms: C_3  and  C_4 
REMARK       I    between atoms: C_4  and  N_5 
REMARK    2  A    between atoms: N_5  and  N_6 
ROOT
HETATM    1  N   UNL     1     -43.480  55.623 -53.728  1.00  0.00    -0.282 N 
HETATM    2  C   UNL     1     -43.620  56.396 -54.800  1.00  0.00     0.127 C 
HETATM    3  C   UNL     1     -44.241  57.737 -54.649  1.00  0.00     0.015 A 
HETATM    4  C   UNL     1     -44.800  58.357 -55.783  1.00  0.00    -0.042 A 
HETATM    5  C   UNL     1     -45.434  59.602 -55.675  1.00  0.00     0.008 A 
HETATM    6  C   UNL     1     -45.475  60.258 -54.448  1.00  0.00     0.001 A 
HETATM    7  C   UNL     1     -44.888  59.677 -53.328  1.00  0.00     0.001 A 
HETATM    8  C   UNL     1     -44.273  58.427 -53.425  1.00  0.00     0.016 A 
HETATM    9  C   UNL     1     -44.737  57.643 -57.110  1.00  0.00     0.069 C 
HETATM   10  C   UNL     1     -43.441  56.815 -57.238  1.00  0.00     0.028 C 
HETATM   11  C   UNL     1     -43.567  55.844 -58.419  1.00  0.00     0.038 C 
HETATM   12  C   UNL     1     -42.198  57.691 -57.424  1.00  0.00     0.038 C 
HETATM   13  N   UNL     1     -43.246  55.992 -56.012  1.00  0.00    -0.366 N 
HETATM   14  H   UNL     1     -42.850  55.072 -56.109  1.00  0.00     0.162 HD
HETATM   15  H   UNL     1     -43.921  55.948 -52.858  1.00  0.00     0.188 HD
ENDROOT
BRANCH   1  16
HETATM   16  N   UNL     1     -42.883  54.437 -53.646  1.00  0.00    -0.264 N 
HETATM   17  C   UNL     1     -41.582  54.462 -53.164  1.00  0.00     0.270 C 
HETATM   18  O   UNL     1     -41.044  55.524 -52.859  1.00  0.00    -0.266 OA
HETATM   19  H   UNL     1     -43.289  53.593 -54.030  1.00  0.00     0.190 HD
BRANCH  17  20
HETATM   20  C   UNL     1     -40.863  53.166 -53.104  1.00  0.00     0.039 A 
HETATM   21  C   UNL     1     -40.187  52.698 -51.959  1.00  0.00    -0.046 A 
HETATM   22  C   UNL     1     -40.056  53.485 -50.685  1.00  0.00     0.049 C 
HETATM   23  C   UNL     1     -39.583  51.431 -52.014  1.00  0.00     0.007 A 
HETATM   24  C   UNL     1     -39.608  50.672 -53.187  1.00  0.00     0.001 A 
HETATM   25  C   UNL     1     -40.237  51.165 -54.325  1.00  0.00     0.001 A 
HETATM   26  C   UNL     1     -40.863  52.410 -54.286  1.00  0.00     0.017 A 
ENDBRANCH  17  20
ENDBRANCH   1  16
TORSDOF 2
ENDMDL
