MODEL 1
REMARK VINA RESULT:      -7.4      0.000      0.000
REMARK  9 active torsions:
REMARK  status: ('A' for Active; 'I' for Inactive)
REMARK       I    between atoms: C_2  and  N_3 
REMARK    1  A    between atoms: N_3  and  C_4 
REMARK    2  A    between atoms: C_6  and  O_7 
REMARK    3  A    between atoms: O_7  and  C_8 
REMARK    4  A    between atoms: C_8  and  C_9 
REMARK    5  A    between atoms: C_9  and  C_10 
REMARK    6  A    between atoms: C_10  and  C_11 
REMARK    7  A    between atoms: C_11  and  N_12 
REMARK       I    between atoms: N_12  and  C_13 
REMARK    8  A    between atoms: C_13  and  C_14 
REMARK    9  A    between atoms: C_18  and  C_19 
ROOT
HETATM    1  C   UNL     1     -34.620  42.119 -51.282  1.00  0.00     0.217 C 
ENDROOT
BRANCH   1   2
HETATM    2  C   UNL     1     -33.654  41.092 -50.715  1.00  0.00    -0.085 C 
BRANCH   2   3
HETATM    3  C   UNL     1     -32.825  40.210 -50.228  1.00  0.00    -0.078 C 
BRANCH   3   4
HETATM    4  C   UNL     1     -31.858  39.184 -49.660  1.00  0.00     0.269 C 
BRANCH   4   5
HETATM    5  O   UNL     1     -30.950  39.813 -48.760  1.00  0.00    -0.339 OA
BRANCH   5   6
HETATM    6  C   UNL     1     -31.075  39.453 -47.441  1.00  0.00     0.072 A 
HETATM    7  C   UNL     1     -30.330  39.974 -46.376  1.00  0.00     0.066 A 
HETATM    8  C   UNL     1     -30.553  39.542 -45.064  1.00  0.00     0.037 A 
HETATM    9  C   UNL     1     -31.529  38.567 -44.830  1.00  0.00     0.029 A 
HETATM   10  C   UNL     1     -32.272  38.039 -45.886  1.00  0.00     0.005 A 
HETATM   11  C   UNL     1     -32.045  38.484 -47.187  1.00  0.00     0.037 A 
BRANCH   8  12
HETATM   12  N   UNL     1     -29.848  40.036 -43.944  1.00  0.00    -0.327 N 
HETATM   13  C   UNL     1     -28.481  40.011 -43.728  1.00  0.00     0.218 C 
HETATM   14  C   UNL     1     -28.088  40.646 -42.418  1.00  0.00     0.117 C 
HETATM   15  O   UNL     1     -27.624  39.568 -44.486  1.00  0.00    -0.274 OA
HETATM   16  H   UNL     1     -30.414  40.473 -43.227  1.00  0.00     0.169 HD
ENDBRANCH   8  12
ENDBRANCH   5   6
ENDBRANCH   4   5
ENDBRANCH   3   4
ENDBRANCH   2   3
ENDBRANCH   1   2
BRANCH   1  17
HETATM   17  N   UNL     1     -34.708  41.944 -52.707  1.00  0.00    -0.345 N 
HETATM   18  C   UNL     1     -35.894  42.136 -53.367  1.00  0.00     0.270 C 
HETATM   19  O   UNL     1     -36.938  42.408 -52.783  1.00  0.00    -0.266 OA
HETATM   20  H   UNL     1     -33.852  41.827 -53.228  1.00  0.00     0.163 HD
BRANCH  18  21
HETATM   21  C   UNL     1     -35.828  42.011 -54.798  1.00  0.00     0.120 A 
HETATM   22  N   UNL     1     -34.697  42.345 -55.493  1.00  0.00    -0.272 N 
HETATM   23  H   UNL     1     -33.828  42.700 -55.103  1.00  0.00     0.189 HD
HETATM   24  N   UNL     1     -34.789  42.157 -56.819  1.00  0.00    -0.173 NA
HETATM   25  C   UNL     1     -36.035  41.699 -56.995  1.00  0.00     0.096 A 
HETATM   26  C   UNL     1     -36.725  41.595 -55.763  1.00  0.00     0.071 A 
BRANCH  25  27
HETATM   27  C   UNL     1     -36.573  41.354 -58.353  1.00  0.00     0.035 A 
HETATM   28  S   UNL     1     -36.554  39.785 -59.032  1.00  0.00    -0.100 SA
HETATM   29  C   UNL     1     -37.306  40.327 -60.470  1.00  0.00     0.050 A 
HETATM   30  C   UNL     1     -37.567  41.679 -60.436  1.00  0.00     0.008 A 
HETATM   31  C   UNL     1     -37.143  42.273 -59.210  1.00  0.00     0.022 A 
ENDBRANCH  25  27
ENDBRANCH  18  21
ENDBRANCH   1  17
TORSDOF 9
ENDMDL
MODEL 2
REMARK VINA RESULT:      -7.4     15.246     20.192
REMARK  9 active torsions:
REMARK  status: ('A' for Active; 'I' for Inactive)
REMARK       I    between atoms: C_2  and  N_3 
REMARK    1  A    between atoms: N_3  and  C_4 
REMARK    2  A    between atoms: C_6  and  O_7 
REMARK    3  A    between atoms: O_7  and  C_8 
REMARK    4  A    between atoms: C_8  and  C_9 
REMARK    5  A    between atoms: C_9  and  C_10 
REMARK    6  A    between atoms: C_10  and  C_11 
REMARK    7  A    between atoms: C_11  and  N_12 
REMARK       I    between atoms: N_12  and  C_13 
REMARK    8  A    between atoms: C_13  and  C_14 
REMARK    9  A    between atoms: C_18  and  C_19 
ROOT
HETATM    1  C   UNL     1     -44.420  57.278 -51.086  1.00  0.00     0.217 C 
ENDROOT
BRANCH   1   2
HETATM    2  C   UNL     1     -44.606  58.055 -52.379  1.00  0.00    -0.085 C 
BRANCH   2   3
HETATM    3  C   UNL     1     -44.765  58.722 -53.488  1.00  0.00    -0.078 C 
BRANCH   3   4
HETATM    4  C   UNL     1     -44.949  59.499 -54.781  1.00  0.00     0.269 C 
BRANCH   4   5
HETATM    5  O   UNL     1     -43.771  59.411 -55.577  1.00  0.00    -0.339 OA
BRANCH   5   6
HETATM    6  C   UNL     1     -43.504  58.176 -56.113  1.00  0.00     0.072 A 
HETATM    7  C   UNL     1     -44.158  57.600 -57.209  1.00  0.00     0.066 A 
HETATM    8  C   UNL     1     -43.792  56.334 -57.680  1.00  0.00     0.037 A 
HETATM    9  C   UNL     1     -42.764  55.642 -57.030  1.00  0.00     0.029 A 
HETATM   10  C   UNL     1     -42.112  56.206 -55.934  1.00  0.00     0.005 A 
HETATM   11  C   UNL     1     -42.481  57.471 -55.480  1.00  0.00     0.037 A 
BRANCH   8  12
HETATM   12  N   UNL     1     -44.400  55.703 -58.788  1.00  0.00    -0.327 N 
HETATM   13  C   UNL     1     -44.037  55.801 -60.120  1.00  0.00     0.218 C 
HETATM   14  C   UNL     1     -44.912  54.970 -61.024  1.00  0.00     0.117 C 
HETATM   15  O   UNL     1     -43.101  56.445 -60.583  1.00  0.00    -0.274 OA
HETATM   16  H   UNL     1     -45.181  55.096 -58.573  1.00  0.00     0.169 HD
ENDBRANCH   8  12
ENDBRANCH   5   6
ENDBRANCH   4   5
ENDBRANCH   3   4
ENDBRANCH   2   3
ENDBRANCH   1   2
BRANCH   1  17
HETATM   17  N   UNL     1     -43.543  56.164 -51.329  1.00  0.00    -0.345 N 
HETATM   18  C   UNL     1     -42.198  56.261 -51.083  1.00  0.00     0.270 C 
HETATM   19  O   UNL     1     -41.671  57.300 -50.701  1.00  0.00    -0.266 OA
HETATM   20  H   UNL     1     -43.956  55.267 -51.539  1.00  0.00     0.163 HD
BRANCH  18  21
HETATM   21  C   UNL     1     -41.447  55.052 -51.288  1.00  0.00     0.120 A 
HETATM   22  N   UNL     1     -40.445  54.679 -50.433  1.00  0.00    -0.272 N 
HETATM   23  H   UNL     1     -40.133  55.183 -49.608  1.00  0.00     0.189 HD
HETATM   24  N   UNL     1     -39.851  53.519 -50.754  1.00  0.00    -0.173 NA
HETATM   25  C   UNL     1     -40.481  53.130 -51.870  1.00  0.00     0.096 A 
HETATM   26  C   UNL     1     -41.482  54.057 -52.245  1.00  0.00     0.071 A 
BRANCH  25  27
HETATM   27  C   UNL     1     -40.124  51.859 -52.584  1.00  0.00     0.035 A 
HETATM   28  S   UNL     1     -39.512  50.458 -51.819  1.00  0.00    -0.100 SA
HETATM   29  C   UNL     1     -39.413  49.612 -53.303  1.00  0.00     0.050 A 
HETATM   30  C   UNL     1     -39.836  50.381 -54.364  1.00  0.00     0.008 A 
HETATM   31  C   UNL     1     -40.249  51.682 -53.946  1.00  0.00     0.022 A 
ENDBRANCH  25  27
ENDBRANCH  18  21
ENDBRANCH   1  17
TORSDOF 9
ENDMDL
MODEL 3
REMARK VINA RESULT:      -7.3     15.523     20.782
REMARK  9 active torsions:
REMARK  status: ('A' for Active; 'I' for Inactive)
REMARK       I    between atoms: C_2  and  N_3 
REMARK    1  A    between atoms: N_3  and  C_4 
REMARK    2  A    between atoms: C_6  and  O_7 
REMARK    3  A    between atoms: O_7  and  C_8 
REMARK    4  A    between atoms: C_8  and  C_9 
REMARK    5  A    between atoms: C_9  and  C_10 
REMARK    6  A    between atoms: C_10  and  C_11 
REMARK    7  A    between atoms: C_11  and  N_12 
REMARK       I    between atoms: N_12  and  C_13 
REMARK    8  A    between atoms: C_13  and  C_14 
REMARK    9  A    between atoms: C_18  and  C_19 
ROOT
HETATM    1  C   UNL     1     -41.378  59.277 -53.150  1.00  0.00     0.217 C 
ENDROOT
BRANCH   1   2
HETATM    2  C   UNL     1     -41.761  59.867 -54.498  1.00  0.00    -0.085 C 
BRANCH   2   3
HETATM    3  C   UNL     1     -42.089  60.373 -55.654  1.00  0.00    -0.078 C 
BRANCH   3   4
HETATM    4  C   UNL     1     -42.471  60.964 -57.002  1.00  0.00     0.269 C 
BRANCH   4   5
HETATM    5  O   UNL     1     -43.591  60.268 -57.542  1.00  0.00    -0.339 OA
BRANCH   5   6
HETATM    6  C   UNL     1     -43.295  59.185 -58.331  1.00  0.00     0.072 A 
HETATM    7  C   UNL     1     -43.806  57.891 -58.172  1.00  0.00     0.066 A 
HETATM    8  C   UNL     1     -43.445  56.863 -59.049  1.00  0.00     0.037 A 
HETATM    9  C   UNL     1     -42.550  57.143 -60.089  1.00  0.00     0.029 A 
HETATM   10  C   UNL     1     -42.032  58.429 -60.250  1.00  0.00     0.005 A 
HETATM   11  C   UNL     1     -42.407  59.445 -59.374  1.00  0.00     0.037 A 
BRANCH   8  12
HETATM   12  N   UNL     1     -43.934  55.541 -58.954  1.00  0.00    -0.327 N 
HETATM   13  C   UNL     1     -44.438  54.752 -59.973  1.00  0.00     0.218 C 
HETATM   14  C   UNL     1     -44.855  53.383 -59.496  1.00  0.00     0.117 C 
HETATM   15  O   UNL     1     -44.535  55.052 -61.158  1.00  0.00    -0.274 OA
HETATM   16  H   UNL     1     -43.893  55.123 -58.032  1.00  0.00     0.169 HD
ENDBRANCH   8  12
ENDBRANCH   5   6
ENDBRANCH   4   5
ENDBRANCH   3   4
ENDBRANCH   2   3
ENDBRANCH   1   2
BRANCH   1  17
HETATM   17  N   UNL     1     -40.929  57.923 -53.341  1.00  0.00    -0.345 N 
HETATM   18  C   UNL     1     -41.828  56.895 -53.457  1.00  0.00     0.270 C 
HETATM   19  O   UNL     1     -43.038  57.060 -53.351  1.00  0.00    -0.266 OA
HETATM   20  H   UNL     1     -39.952  57.768 -53.539  1.00  0.00     0.163 HD
BRANCH  18  21
HETATM   21  C   UNL     1     -41.253  55.605 -53.728  1.00  0.00     0.120 A 
HETATM   22  N   UNL     1     -40.599  55.346 -54.902  1.00  0.00    -0.272 N 
HETATM   23  H   UNL     1     -40.456  55.993 -55.672  1.00  0.00     0.189 HD
HETATM   24  N   UNL     1     -40.106  54.101 -54.996  1.00  0.00    -0.173 NA
HETATM   25  C   UNL     1     -40.467  53.522 -53.844  1.00  0.00     0.096 A 
HETATM   26  C   UNL     1     -41.189  54.420 -53.021  1.00  0.00     0.071 A 
BRANCH  25  27
HETATM   27  C   UNL     1     -40.118  52.098 -53.523  1.00  0.00     0.035 A 
HETATM   28  S   UNL     1     -39.606  51.550 -51.986  1.00  0.00    -0.100 SA
HETATM   29  C   UNL     1     -39.452  49.938 -52.541  1.00  0.00     0.050 A 
HETATM   30  C   UNL     1     -39.783  49.818 -53.873  1.00  0.00     0.008 A 
HETATM   31  C   UNL     1     -40.169  51.069 -54.440  1.00  0.00     0.022 A 
ENDBRANCH  25  27
ENDBRANCH  18  21
ENDBRANCH   1  17
TORSDOF 9
ENDMDL
MODEL 4
REMARK VINA RESULT:      -7.3     15.639     18.972
REMARK  9 active torsions:
REMARK  status: ('A' for Active; 'I' for Inactive)
REMARK       I    between atoms: C_2  and  N_3 
REMARK    1  A    between atoms: N_3  and  C_4 
REMARK    2  A    between atoms: C_6  and  O_7 
REMARK    3  A    between atoms: O_7  and  C_8 
REMARK    4  A    between atoms: C_8  and  C_9 
REMARK    5  A    between atoms: C_9  and  C_10 
REMARK    6  A    between atoms: C_10  and  C_11 
REMARK    7  A    between atoms: C_11  and  N_12 
REMARK       I    between atoms: N_12  and  C_13 
REMARK    8  A    between atoms: C_13  and  C_14 
REMARK    9  A    between atoms: C_18  and  C_19 
ROOT
HETATM    1  C   UNL     1     -45.188  57.209 -54.899  1.00  0.00     0.217 C 
ENDROOT
BRANCH   1   2
HETATM    2  C   UNL     1     -44.938  58.415 -54.008  1.00  0.00    -0.085 C 
BRANCH   2   3
HETATM    3  C   UNL     1     -44.725  59.449 -53.243  1.00  0.00    -0.078 C 
BRANCH   3   4
HETATM    4  C   UNL     1     -44.475  60.655 -52.352  1.00  0.00     0.269 C 
BRANCH   4   5
HETATM    5  O   UNL     1     -43.077  60.913 -52.258  1.00  0.00    -0.339 OA
BRANCH   5   6
HETATM    6  C   UNL     1     -42.266  59.805 -52.255  1.00  0.00     0.072 A 
HETATM    7  C   UNL     1     -42.104  58.911 -51.189  1.00  0.00     0.066 A 
HETATM    8  C   UNL     1     -41.258  57.803 -51.304  1.00  0.00     0.037 A 
HETATM    9  C   UNL     1     -40.562  57.604 -52.502  1.00  0.00     0.029 A 
HETATM   10  C   UNL     1     -40.713  58.494 -53.566  1.00  0.00     0.005 A 
HETATM   11  C   UNL     1     -41.566  59.590 -53.441  1.00  0.00     0.037 A 
BRANCH   8  12
HETATM   12  N   UNL     1     -41.060  56.856 -50.275  1.00  0.00    -0.327 N 
HETATM   13  C   UNL     1     -41.579  55.576 -50.195  1.00  0.00     0.218 C 
HETATM   14  C   UNL     1     -41.139  54.847 -48.950  1.00  0.00     0.117 C 
HETATM   15  O   UNL     1     -42.296  55.018 -51.020  1.00  0.00    -0.274 OA
HETATM   16  H   UNL     1     -40.454  57.149 -49.519  1.00  0.00     0.169 HD
ENDBRANCH   8  12
ENDBRANCH   5   6
ENDBRANCH   4   5
ENDBRANCH   3   4
ENDBRANCH   2   3
ENDBRANCH   1   2
BRANCH   1  17
HETATM   17  N   UNL     1     -44.167  56.225 -54.654  1.00  0.00    -0.345 N 
HETATM   18  C   UNL     1     -43.159  56.017 -55.559  1.00  0.00     0.270 C 
HETATM   19  O   UNL     1     -43.102  56.608 -56.632  1.00  0.00    -0.266 OA
HETATM   20  H   UNL     1     -44.123  55.800 -53.740  1.00  0.00     0.163 HD
BRANCH  18  21
HETATM   21  C   UNL     1     -42.158  55.067 -55.156  1.00  0.00     0.120 A 
HETATM   22  N   UNL     1     -40.848  55.207 -55.527  1.00  0.00    -0.272 N 
HETATM   23  H   UNL     1     -40.455  55.950 -56.097  1.00  0.00     0.189 HD
HETATM   24  N   UNL     1     -40.036  54.246 -55.058  1.00  0.00    -0.173 NA
HETATM   25  C   UNL     1     -40.853  53.440 -54.368  1.00  0.00     0.096 A 
HETATM   26  C   UNL     1     -42.189  53.908 -54.403  1.00  0.00     0.071 A 
BRANCH  25  27
HETATM   27  C   UNL     1     -40.354  52.212 -53.665  1.00  0.00     0.035 A 
HETATM   28  S   UNL     1     -39.864  52.166 -52.028  1.00  0.00    -0.100 SA
HETATM   29  C   UNL     1     -39.489  50.499 -52.119  1.00  0.00     0.050 A 
HETATM   30  C   UNL     1     -39.730  49.985 -53.374  1.00  0.00     0.008 A 
HETATM   31  C   UNL     1     -40.232  50.977 -54.268  1.00  0.00     0.022 A 
ENDBRANCH  25  27
ENDBRANCH  18  21
ENDBRANCH   1  17
TORSDOF 9
ENDMDL
MODEL 5
REMARK VINA RESULT:      -7.2     15.772     20.733
REMARK  9 active torsions:
REMARK  status: ('A' for Active; 'I' for Inactive)
REMARK       I    between atoms: C_2  and  N_3 
REMARK    1  A    between atoms: N_3  and  C_4 
REMARK    2  A    between atoms: C_6  and  O_7 
REMARK    3  A    between atoms: O_7  and  C_8 
REMARK    4  A    between atoms: C_8  and  C_9 
REMARK    5  A    between atoms: C_9  and  C_10 
REMARK    6  A    between atoms: C_10  and  C_11 
REMARK    7  A    between atoms: C_11  and  N_12 
REMARK       I    between atoms: N_12  and  C_13 
REMARK    8  A    between atoms: C_13  and  C_14 
REMARK    9  A    between atoms: C_18  and  C_19 
ROOT
HETATM    1  C   UNL     1     -41.045  59.030 -50.817  1.00  0.00     0.217 C 
ENDROOT
BRANCH   1   2
HETATM    2  C   UNL     1     -41.516  59.516 -52.178  1.00  0.00    -0.085 C 
BRANCH   2   3
HETATM    3  C   UNL     1     -41.920  59.933 -53.346  1.00  0.00    -0.078 C 
BRANCH   3   4
HETATM    4  C   UNL     1     -42.390  60.420 -54.707  1.00  0.00     0.269 C 
BRANCH   4   5
HETATM    5  O   UNL     1     -41.468  60.018 -55.716  1.00  0.00    -0.339 OA
BRANCH   5   6
HETATM    6  C   UNL     1     -42.017  59.711 -56.936  1.00  0.00     0.072 A 
HETATM    7  C   UNL     1     -42.637  58.502 -57.274  1.00  0.00     0.066 A 
HETATM    8  C   UNL     1     -43.177  58.304 -58.550  1.00  0.00     0.037 A 
HETATM    9  C   UNL     1     -43.077  59.332 -59.494  1.00  0.00     0.029 A 
HETATM   10  C   UNL     1     -42.455  60.537 -59.166  1.00  0.00     0.005 A 
HETATM   11  C   UNL     1     -41.929  60.725 -57.890  1.00  0.00     0.037 A 
BRANCH   8  12
HETATM   12  N   UNL     1     -43.828  57.116 -58.951  1.00  0.00    -0.327 N 
HETATM   13  C   UNL     1     -43.311  56.089 -59.721  1.00  0.00     0.218 C 
HETATM   14  C   UNL     1     -44.300  54.970 -59.936  1.00  0.00     0.117 C 
HETATM   15  O   UNL     1     -42.178  56.014 -60.184  1.00  0.00    -0.274 OA
HETATM   16  H   UNL     1     -44.778  57.002 -58.619  1.00  0.00     0.169 HD
ENDBRANCH   8  12
ENDBRANCH   5   6
ENDBRANCH   4   5
ENDBRANCH   3   4
ENDBRANCH   2   3
ENDBRANCH   1   2
BRANCH   1  17
HETATM   17  N   UNL     1     -40.630  57.657 -50.926  1.00  0.00    -0.345 N 
HETATM   18  C   UNL     1     -41.548  56.640 -50.885  1.00  0.00     0.270 C 
HETATM   19  O   UNL     1     -42.744  56.837 -50.700  1.00  0.00    -0.266 OA
HETATM   20  H   UNL     1     -39.674  57.466 -51.185  1.00  0.00     0.163 HD
BRANCH  18  21
HETATM   21  C   UNL     1     -41.012  55.321 -51.089  1.00  0.00     0.120 A 
HETATM   22  N   UNL     1     -40.296  54.682 -50.113  1.00  0.00    -0.272 N 
HETATM   23  H   UNL     1     -40.070  55.043 -49.191  1.00  0.00     0.189 HD
HETATM   24  N   UNL     1     -39.878  53.452 -50.452  1.00  0.00    -0.173 NA
HETATM   25  C   UNL     1     -40.327  53.290 -51.703  1.00  0.00     0.096 A 
HETATM   26  C   UNL     1     -41.037  54.432 -52.146  1.00  0.00     0.071 A 
BRANCH  25  27
HETATM   27  C   UNL     1     -40.078  52.034 -52.483  1.00  0.00     0.035 A 
HETATM   28  S   UNL     1     -39.528  50.564 -51.802  1.00  0.00    -0.100 SA
HETATM   29  C   UNL     1     -39.536  49.781 -53.323  1.00  0.00     0.050 A 
HETATM   30  C   UNL     1     -39.948  50.621 -54.333  1.00  0.00     0.008 A 
HETATM   31  C   UNL     1     -40.262  51.925 -53.846  1.00  0.00     0.022 A 
ENDBRANCH  25  27
ENDBRANCH  18  21
ENDBRANCH   1  17
TORSDOF 9
ENDMDL
MODEL 6
REMARK VINA RESULT:      -7.2     15.541     21.299
REMARK  9 active torsions:
REMARK  status: ('A' for Active; 'I' for Inactive)
REMARK       I    between atoms: C_2  and  N_3 
REMARK    1  A    between atoms: N_3  and  C_4 
REMARK    2  A    between atoms: C_6  and  O_7 
REMARK    3  A    between atoms: O_7  and  C_8 
REMARK    4  A    between atoms: C_8  and  C_9 
REMARK    5  A    between atoms: C_9  and  C_10 
REMARK    6  A    between atoms: C_10  and  C_11 
REMARK    7  A    between atoms: C_11  and  N_12 
REMARK       I    between atoms: N_12  and  C_13 
REMARK    8  A    between atoms: C_13  and  C_14 
REMARK    9  A    between atoms: C_18  and  C_19 
ROOT
HETATM    1  C   UNL     1     -42.650  58.809 -54.680  1.00  0.00     0.217 C 
ENDROOT
BRANCH   1   2
HETATM    2  C   UNL     1     -42.624  58.931 -56.194  1.00  0.00    -0.085 C 
BRANCH   2   3
HETATM    3  C   UNL     1     -42.602  59.035 -57.494  1.00  0.00    -0.078 C 
BRANCH   3   4
HETATM    4  C   UNL     1     -42.578  59.157 -59.009  1.00  0.00     0.269 C 
BRANCH   4   5
HETATM    5  O   UNL     1     -42.154  57.928 -59.593  1.00  0.00    -0.339 OA
BRANCH   5   6
HETATM    6  C   UNL     1     -43.128  56.974 -59.746  1.00  0.00     0.072 A 
HETATM    7  C   UNL     1     -44.306  57.118 -60.491  1.00  0.00     0.066 A 
HETATM    8  C   UNL     1     -45.225  56.068 -60.589  1.00  0.00     0.037 A 
HETATM    9  C   UNL     1     -44.958  54.868 -59.921  1.00  0.00     0.029 A 
HETATM   10  C   UNL     1     -43.790  54.720 -59.172  1.00  0.00     0.005 A 
HETATM   11  C   UNL     1     -42.878  55.770 -59.088  1.00  0.00     0.037 A 
BRANCH   8  12
HETATM   12  N   UNL     1     -46.423  56.142 -61.334  1.00  0.00    -0.327 N 
HETATM   13  C   UNL     1     -47.420  57.097 -61.238  1.00  0.00     0.218 C 
HETATM   14  C   UNL     1     -48.550  56.858 -62.209  1.00  0.00     0.117 C 
HETATM   15  O   UNL     1     -47.436  58.073 -60.496  1.00  0.00    -0.274 OA
HETATM   16  H   UNL     1     -46.554  55.417 -62.030  1.00  0.00     0.169 HD
ENDBRANCH   8  12
ENDBRANCH   5   6
ENDBRANCH   4   5
ENDBRANCH   3   4
ENDBRANCH   2   3
ENDBRANCH   1   2
BRANCH   1  17
HETATM   17  N   UNL     1     -42.392  57.442 -54.314  1.00  0.00    -0.345 N 
HETATM   18  C   UNL     1     -41.193  57.077 -53.760  1.00  0.00     0.270 C 
HETATM   19  O   UNL     1     -40.271  57.870 -53.600  1.00  0.00    -0.266 OA
HETATM   20  H   UNL     1     -43.161  56.790 -54.332  1.00  0.00     0.163 HD
BRANCH  18  21
HETATM   21  C   UNL     1     -41.094  55.698 -53.364  1.00  0.00     0.120 A 
HETATM   22  N   UNL     1     -41.675  55.243 -52.211  1.00  0.00    -0.272 N 
HETATM   23  H   UNL     1     -42.208  55.791 -51.543  1.00  0.00     0.189 HD
HETATM   24  N   UNL     1     -41.505  53.929 -51.991  1.00  0.00    -0.173 NA
HETATM   25  C   UNL     1     -40.771  53.518 -53.032  1.00  0.00     0.096 A 
HETATM   26  C   UNL     1     -40.485  54.587 -53.915  1.00  0.00     0.071 A 
BRANCH  25  27
HETATM   27  C   UNL     1     -40.340  52.089 -53.188  1.00  0.00     0.035 A 
HETATM   28  S   UNL     1     -39.540  51.182 -51.979  1.00  0.00    -0.100 SA
HETATM   29  C   UNL     1     -39.459  49.797 -52.980  1.00  0.00     0.050 A 
HETATM   30  C   UNL     1     -40.029  50.019 -54.214  1.00  0.00     0.008 A 
HETATM   31  C   UNL     1     -40.539  51.346 -54.333  1.00  0.00     0.022 A 
ENDBRANCH  25  27
ENDBRANCH  18  21
ENDBRANCH   1  17
TORSDOF 9
ENDMDL
MODEL 7
REMARK VINA RESULT:      -7.1     15.647     18.841
REMARK  9 active torsions:
REMARK  status: ('A' for Active; 'I' for Inactive)
REMARK       I    between atoms: C_2  and  N_3 
REMARK    1  A    between atoms: N_3  and  C_4 
REMARK    2  A    between atoms: C_6  and  O_7 
REMARK    3  A    between atoms: O_7  and  C_8 
REMARK    4  A    between atoms: C_8  and  C_9 
REMARK    5  A    between atoms: C_9  and  C_10 
REMARK    6  A    between atoms: C_10  and  C_11 
REMARK    7  A    between atoms: C_11  and  N_12 
REMARK       I    between atoms: N_12  and  C_13 
REMARK    8  A    between atoms: C_13  and  C_14 
REMARK    9  A    between atoms: C_18  and  C_19 
ROOT
HETATM    1  C   UNL     1     -41.037  58.469 -50.718  1.00  0.00     0.217 C 
ENDROOT
BRANCH   1   2
HETATM    2  C   UNL     1     -41.011  56.985 -50.392  1.00  0.00    -0.085 C 
BRANCH   2   3
HETATM    3  C   UNL     1     -40.989  55.712 -50.110  1.00  0.00    -0.078 C 
BRANCH   3   4
HETATM    4  C   UNL     1     -40.964  54.228 -49.783  1.00  0.00     0.269 C 
BRANCH   4   5
HETATM    5  O   UNL     1     -39.825  53.614 -50.380  1.00  0.00    -0.339 OA
BRANCH   5   6
HETATM    6  C   UNL     1     -40.007  53.133 -51.653  1.00  0.00     0.072 A 
HETATM    7  C   UNL     1     -40.612  53.823 -52.710  1.00  0.00     0.066 A 
HETATM    8  C   UNL     1     -40.730  53.237 -53.975  1.00  0.00     0.037 A 
HETATM    9  C   UNL     1     -40.243  51.939 -54.169  1.00  0.00     0.029 A 
HETATM   10  C   UNL     1     -39.644  51.243 -53.118  1.00  0.00     0.005 A 
HETATM   11  C   UNL     1     -39.525  51.841 -51.865  1.00  0.00     0.037 A 
BRANCH   8  12
HETATM   12  N   UNL     1     -41.316  53.882 -55.087  1.00  0.00    -0.327 N 
HETATM   13  C   UNL     1     -42.591  54.412 -55.181  1.00  0.00     0.218 C 
HETATM   14  C   UNL     1     -42.862  55.038 -56.527  1.00  0.00     0.117 C 
HETATM   15  O   UNL     1     -43.446  54.435 -54.302  1.00  0.00    -0.274 OA
HETATM   16  H   UNL     1     -40.722  53.979 -55.902  1.00  0.00     0.169 HD
ENDBRANCH   8  12
ENDBRANCH   5   6
ENDBRANCH   4   5
ENDBRANCH   3   4
ENDBRANCH   2   3
ENDBRANCH   1   2
BRANCH   1  17
HETATM   17  N   UNL     1     -41.719  58.662 -51.971  1.00  0.00    -0.345 N 
HETATM   18  C   UNL     1     -41.023  58.973 -53.109  1.00  0.00     0.270 C 
HETATM   19  O   UNL     1     -39.810  59.155 -53.113  1.00  0.00    -0.266 OA
HETATM   20  H   UNL     1     -42.696  58.416 -52.025  1.00  0.00     0.163 HD
BRANCH  18  21
HETATM   21  C   UNL     1     -41.813  59.057 -54.308  1.00  0.00     0.120 A 
HETATM   22  N   UNL     1     -42.913  59.868 -54.384  1.00  0.00    -0.272 N 
HETATM   23  H   UNL     1     -43.278  60.465 -53.648  1.00  0.00     0.189 HD
HETATM   24  N   UNL     1     -43.533  59.846 -55.574  1.00  0.00    -0.173 NA
HETATM   25  C   UNL     1     -42.817  58.974 -56.296  1.00  0.00     0.096 A 
HETATM   26  C   UNL     1     -41.736  58.451 -55.547  1.00  0.00     0.071 A 
BRANCH  25  27
HETATM   27  C   UNL     1     -43.168  58.638 -57.716  1.00  0.00     0.035 A 
HETATM   28  S   UNL     1     -44.719  58.848 -58.406  1.00  0.00    -0.100 SA
HETATM   29  C   UNL     1     -44.199  58.243 -59.919  1.00  0.00     0.050 A 
HETATM   30  C   UNL     1     -42.869  57.885 -59.902  1.00  0.00     0.008 A 
HETATM   31  C   UNL     1     -42.273  58.115 -58.626  1.00  0.00     0.022 A 
ENDBRANCH  25  27
ENDBRANCH  18  21
ENDBRANCH   1  17
TORSDOF 9
ENDMDL
MODEL 8
REMARK VINA RESULT:      -7.1     16.024     20.759
REMARK  9 active torsions:
REMARK  status: ('A' for Active; 'I' for Inactive)
REMARK       I    between atoms: C_2  and  N_3 
REMARK    1  A    between atoms: N_3  and  C_4 
REMARK    2  A    between atoms: C_6  and  O_7 
REMARK    3  A    between atoms: O_7  and  C_8 
REMARK    4  A    between atoms: C_8  and  C_9 
REMARK    5  A    between atoms: C_9  and  C_10 
REMARK    6  A    between atoms: C_10  and  C_11 
REMARK    7  A    between atoms: C_11  and  N_12 
REMARK       I    between atoms: N_12  and  C_13 
REMARK    8  A    between atoms: C_13  and  C_14 
REMARK    9  A    between atoms: C_18  and  C_19 
ROOT
HETATM    1  C   UNL     1     -42.508  60.046 -53.203  1.00  0.00     0.217 C 
ENDROOT
BRANCH   1   2
HETATM    2  C   UNL     1     -42.387  60.399 -54.676  1.00  0.00    -0.085 C 
BRANCH   2   3
HETATM    3  C   UNL     1     -42.283  60.702 -55.940  1.00  0.00    -0.078 C 
BRANCH   3   4
HETATM    4  C   UNL     1     -42.161  61.056 -57.413  1.00  0.00     0.269 C 
BRANCH   4   5
HETATM    5  O   UNL     1     -43.209  60.437 -58.154  1.00  0.00    -0.339 OA
BRANCH   5   6
HETATM    6  C   UNL     1     -43.012  59.117 -58.477  1.00  0.00     0.072 A 
HETATM    7  C   UNL     1     -43.313  58.020 -57.661  1.00  0.00     0.066 A 
HETATM    8  C   UNL     1     -43.082  56.713 -58.101  1.00  0.00     0.037 A 
HETATM    9  C   UNL     1     -42.531  56.514 -59.372  1.00  0.00     0.029 A 
HETATM   10  C   UNL     1     -42.222  57.602 -60.189  1.00  0.00     0.005 A 
HETATM   11  C   UNL     1     -42.465  58.899 -59.741  1.00  0.00     0.037 A 
BRANCH   8  12
HETATM   12  N   UNL     1     -43.376  55.563 -57.335  1.00  0.00    -0.327 N 
HETATM   13  C   UNL     1     -42.711  55.103 -56.212  1.00  0.00     0.218 C 
HETATM   14  C   UNL     1     -43.321  53.844 -55.650  1.00  0.00     0.117 C 
HETATM   15  O   UNL     1     -41.747  55.625 -55.662  1.00  0.00    -0.274 OA
HETATM   16  H   UNL     1     -44.180  55.026 -57.639  1.00  0.00     0.169 HD
ENDBRANCH   8  12
ENDBRANCH   5   6
ENDBRANCH   4   5
ENDBRANCH   3   4
ENDBRANCH   2   3
ENDBRANCH   1   2
BRANCH   1  17
HETATM   17  N   UNL     1     -42.227  58.646 -53.030  1.00  0.00    -0.345 N 
HETATM   18  C   UNL     1     -43.031  57.859 -52.247  1.00  0.00     0.270 C 
HETATM   19  O   UNL     1     -43.983  58.308 -51.618  1.00  0.00    -0.266 OA
HETATM   20  H   UNL     1     -41.520  58.225 -53.615  1.00  0.00     0.163 HD
BRANCH  18  21
HETATM   21  C   UNL     1     -42.689  56.462 -52.226  1.00  0.00     0.120 A 
HETATM   22  N   UNL     1     -43.639  55.497 -52.022  1.00  0.00    -0.272 N 
HETATM   23  H   UNL     1     -44.632  55.647 -51.869  1.00  0.00     0.189 HD
HETATM   24  N   UNL     1     -43.163  54.243 -52.045  1.00  0.00    -0.173 NA
HETATM   25  C   UNL     1     -41.850  54.398 -52.257  1.00  0.00     0.096 A 
HETATM   26  C   UNL     1     -41.505  55.766 -52.371  1.00  0.00     0.071 A 
BRANCH  25  27
HETATM   27  C   UNL     1     -40.914  53.229 -52.352  1.00  0.00     0.035 A 
HETATM   28  S   UNL     1     -40.193  52.454 -51.008  1.00  0.00    -0.100 SA
HETATM   29  C   UNL     1     -39.365  51.343 -52.011  1.00  0.00     0.050 A 
HETATM   30  C   UNL     1     -39.630  51.557 -53.345  1.00  0.00     0.008 A 
HETATM   31  C   UNL     1     -40.528  52.647 -53.542  1.00  0.00     0.022 A 
ENDBRANCH  25  27
ENDBRANCH  18  21
ENDBRANCH   1  17
TORSDOF 9
ENDMDL
MODEL 9
REMARK VINA RESULT:      -7.0     16.223     20.450
REMARK  9 active torsions:
REMARK  status: ('A' for Active; 'I' for Inactive)
REMARK       I    between atoms: C_2  and  N_3 
REMARK    1  A    between atoms: N_3  and  C_4 
REMARK    2  A    between atoms: C_6  and  O_7 
REMARK    3  A    between atoms: O_7  and  C_8 
REMARK    4  A    between atoms: C_8  and  C_9 
REMARK    5  A    between atoms: C_9  and  C_10 
REMARK    6  A    between atoms: C_10  and  C_11 
REMARK    7  A    between atoms: C_11  and  N_12 
REMARK       I    between atoms: N_12  and  C_13 
REMARK    8  A    between atoms: C_13  and  C_14 
REMARK    9  A    between atoms: C_18  and  C_19 
ROOT
HETATM    1  C   UNL     1     -41.190  58.852 -50.329  1.00  0.00     0.217 C 
ENDROOT
BRANCH   1   2
HETATM    2  C   UNL     1     -42.326  59.643 -50.957  1.00  0.00    -0.085 C 
BRANCH   2   3
HETATM    3  C   UNL     1     -43.300  60.322 -51.496  1.00  0.00    -0.078 C 
BRANCH   3   4
HETATM    4  C   UNL     1     -44.436  61.114 -52.124  1.00  0.00     0.269 C 
BRANCH   4   5
HETATM    5  O   UNL     1     -45.449  60.229 -52.594  1.00  0.00    -0.339 OA
BRANCH   5   6
HETATM    6  C   UNL     1     -45.288  59.767 -53.877  1.00  0.00     0.072 A 
HETATM    7  C   UNL     1     -44.822  58.497 -54.238  1.00  0.00     0.066 A 
HETATM    8  C   UNL     1     -44.712  58.128 -55.583  1.00  0.00     0.037 A 
HETATM    9  C   UNL     1     -45.066  59.056 -56.570  1.00  0.00     0.029 A 
HETATM   10  C   UNL     1     -45.526  60.325 -56.218  1.00  0.00     0.005 A 
HETATM   11  C   UNL     1     -45.638  60.677 -54.875  1.00  0.00     0.037 A 
BRANCH   8  12
HETATM   12  N   UNL     1     -44.264  56.861 -56.016  1.00  0.00    -0.327 N 
HETATM   13  C   UNL     1     -42.976  56.358 -55.962  1.00  0.00     0.218 C 
HETATM   14  C   UNL     1     -42.877  54.954 -56.506  1.00  0.00     0.117 C 
HETATM   15  O   UNL     1     -41.984  56.918 -55.508  1.00  0.00    -0.274 OA
HETATM   16  H   UNL     1     -44.976  56.248 -56.393  1.00  0.00     0.169 HD
ENDBRANCH   8  12
ENDBRANCH   5   6
ENDBRANCH   4   5
ENDBRANCH   3   4
ENDBRANCH   2   3
ENDBRANCH   1   2
BRANCH   1  17
HETATM   17  N   UNL     1     -40.937  57.682 -51.126  1.00  0.00    -0.345 N 
HETATM   18  C   UNL     1     -41.111  56.426 -50.606  1.00  0.00     0.270 C 
HETATM   19  O   UNL     1     -41.433  56.233 -49.438  1.00  0.00    -0.266 OA
HETATM   20  H   UNL     1     -40.776  57.803 -52.115  1.00  0.00     0.163 HD
BRANCH  18  21
HETATM   21  C   UNL     1     -40.905  55.344 -51.531  1.00  0.00     0.120 A 
HETATM   22  N   UNL     1     -40.960  55.541 -52.884  1.00  0.00    -0.272 N 
HETATM   23  H   UNL     1     -41.145  56.417 -53.363  1.00  0.00     0.189 HD
HETATM   24  N   UNL     1     -40.731  54.436 -53.611  1.00  0.00    -0.173 NA
HETATM   25  C   UNL     1     -40.534  53.480 -52.695  1.00  0.00     0.096 A 
HETATM   26  C   UNL     1     -40.637  53.997 -51.381  1.00  0.00     0.071 A 
BRANCH  25  27
HETATM   27  C   UNL     1     -40.242  52.058 -53.076  1.00  0.00     0.035 A 
HETATM   28  S   UNL     1     -39.507  50.911 -52.043  1.00  0.00    -0.100 SA
HETATM   29  C   UNL     1     -39.578  49.691 -53.240  1.00  0.00     0.050 A 
HETATM   30  C   UNL     1     -40.149  50.147 -54.407  1.00  0.00     0.008 A 
HETATM   31  C   UNL     1     -40.535  51.517 -54.311  1.00  0.00     0.022 A 
ENDBRANCH  25  27
ENDBRANCH  18  21
ENDBRANCH   1  17
TORSDOF 9
ENDMDL
MODEL 10
REMARK VINA RESULT:      -6.8     16.462     19.433
REMARK  9 active torsions:
REMARK  status: ('A' for Active; 'I' for Inactive)
REMARK       I    between atoms: C_2  and  N_3 
REMARK    1  A    between atoms: N_3  and  C_4 
REMARK    2  A    between atoms: C_6  and  O_7 
REMARK    3  A    between atoms: O_7  and  C_8 
REMARK    4  A    between atoms: C_8  and  C_9 
REMARK    5  A    between atoms: C_9  and  C_10 
REMARK    6  A    between atoms: C_10  and  C_11 
REMARK    7  A    between atoms: C_11  and  N_12 
REMARK       I    between atoms: N_12  and  C_13 
REMARK    8  A    between atoms: C_13  and  C_14 
REMARK    9  A    between atoms: C_18  and  C_19 
ROOT
HETATM    1  C   UNL     1     -43.661  55.979 -58.754  1.00  0.00     0.217 C 
ENDROOT
BRANCH   1   2
HETATM    2  C   UNL     1     -43.056  55.586 -57.416  1.00  0.00    -0.085 C 
BRANCH   2   3
HETATM    3  C   UNL     1     -42.538  55.247 -56.268  1.00  0.00    -0.078 C 
BRANCH   3   4
HETATM    4  C   UNL     1     -41.934  54.852 -54.930  1.00  0.00     0.269 C 
BRANCH   4   5
HETATM    5  O   UNL     1     -41.998  53.438 -54.762  1.00  0.00    -0.339 OA
BRANCH   5   6
HETATM    6  C   UNL     1     -41.208  52.921 -53.767  1.00  0.00     0.072 A 
HETATM    7  C   UNL     1     -41.303  53.225 -52.403  1.00  0.00     0.066 A 
HETATM    8  C   UNL     1     -40.450  52.623 -51.472  1.00  0.00     0.037 A 
HETATM    9  C   UNL     1     -39.486  51.715 -51.925  1.00  0.00     0.029 A 
HETATM   10  C   UNL     1     -39.381  51.411 -53.282  1.00  0.00     0.005 A 
HETATM   11  C   UNL     1     -40.242  52.012 -54.199  1.00  0.00     0.037 A 
BRANCH   8  12
HETATM   12  N   UNL     1     -40.502  52.874 -50.083  1.00  0.00    -0.327 N 
HETATM   13  C   UNL     1     -40.081  54.010 -49.414  1.00  0.00     0.218 C 
HETATM   14  C   UNL     1     -40.308  53.925 -47.925  1.00  0.00     0.117 C 
HETATM   15  O   UNL     1     -39.600  55.022 -49.911  1.00  0.00    -0.274 OA
HETATM   16  H   UNL     1     -40.912  52.139 -49.518  1.00  0.00     0.169 HD
ENDBRANCH   8  12
ENDBRANCH   5   6
ENDBRANCH   4   5
ENDBRANCH   3   4
ENDBRANCH   2   3
ENDBRANCH   1   2
BRANCH   1  17
HETATM   17  N   UNL     1     -43.301  57.341 -59.049  1.00  0.00    -0.345 N 
HETATM   18  C   UNL     1     -42.300  57.625 -59.942  1.00  0.00     0.270 C 
HETATM   19  O   UNL     1     -41.632  56.751 -60.485  1.00  0.00    -0.266 OA
HETATM   20  H   UNL     1     -43.897  58.078 -58.705  1.00  0.00     0.163 HD
BRANCH  18  21
HETATM   21  C   UNL     1     -42.096  59.022 -60.210  1.00  0.00     0.120 A 
HETATM   22  N   UNL     1     -42.196  59.963 -59.220  1.00  0.00    -0.272 N 
HETATM   23  H   UNL     1     -42.417  59.793 -58.243  1.00  0.00     0.189 HD
HETATM   24  N   UNL     1     -41.963  61.220 -59.629  1.00  0.00    -0.173 NA
HETATM   25  C   UNL     1     -41.716  61.095 -60.939  1.00  0.00     0.096 A 
HETATM   26  C   UNL     1     -41.792  59.742 -61.350  1.00  0.00     0.071 A 
BRANCH  25  27
HETATM   27  C   UNL     1     -41.402  62.277 -61.808  1.00  0.00     0.035 A 
HETATM   28  S   UNL     1     -42.566  63.161 -62.696  1.00  0.00    -0.100 SA
HETATM   29  C   UNL     1     -41.378  64.220 -63.324  1.00  0.00     0.050 A 
HETATM   30  C   UNL     1     -40.117  63.907 -62.868  1.00  0.00     0.008 A 
HETATM   31  C   UNL     1     -40.132  62.784 -61.989  1.00  0.00     0.022 A 
ENDBRANCH  25  27
ENDBRANCH  18  21
ENDBRANCH   1  17
TORSDOF 9
ENDMDL
