MODEL 1
REMARK VINA RESULT:      -8.7      0.000      0.000
REMARK  8 active torsions:
REMARK  status: ('A' for Active; 'I' for Inactive)
REMARK    1  A    between atoms: O_2  and  C_3 
REMARK    2  A    between atoms: C_10  and  C_11 
REMARK    3  A    between atoms: N_12  and  N_13 
REMARK       I    between atoms: N_13  and  C_14 
REMARK    4  A    between atoms: C_14  and  C_15 
REMARK    5  A    between atoms: N_16  and  C_17 
REMARK    6  A    between atoms: C_21  and  N_22 
REMARK    7  A    between atoms: C_25  and  C_26 
REMARK    8  A    between atoms: C_26  and  N_27 
ROOT
HETATM    1  C   UNL     1     -42.391  58.412 -56.319  1.00  0.00     0.154 A 
HETATM    2  N   UNL     1     -41.955  59.416 -55.447  1.00  0.00    -0.184 N 
HETATM    3  N   UNL     1     -41.540  60.483 -56.193  1.00  0.00    -0.058 NA
HETATM    4  N   UNL     1     -41.617  60.189 -57.474  1.00  0.00    -0.132 NA
HETATM    5  C   UNL     1     -42.110  58.925 -57.582  1.00  0.00     0.118 A 
ENDROOT
BRANCH   1   6
HETATM    6  C   UNL     1     -42.897  57.082 -56.064  1.00  0.00     0.271 C 
HETATM    7  N   UNL     1     -41.977  56.037 -55.987  1.00  0.00    -0.145 NA
HETATM    8  H   UNL     1     -41.116  56.193 -56.511  1.00  0.00     0.158 HD
HETATM    9  O   UNL     1     -44.089  56.938 -55.795  1.00  0.00    -0.271 OA
BRANCH   7  10
HETATM   10  N   UNL     1     -42.418  54.766 -56.206  1.00  0.00    -0.205 NA
HETATM   11  C   UNL     1     -42.592  53.895 -55.251  1.00  0.00     0.147 C 
BRANCH  11  12
HETATM   12  C   UNL     1     -42.337  53.911 -53.787  1.00  0.00     0.019 A 
HETATM   13  C   UNL     1     -41.130  53.352 -53.322  1.00  0.00     0.101 A 
HETATM   14  C   UNL     1     -40.874  53.261 -51.943  1.00  0.00     0.069 A 
HETATM   15 CL   UNL     1     -39.442  52.511 -51.333  1.00  0.00    -0.081 Cl
HETATM   16  C   UNL     1     -41.791  53.763 -51.024  1.00  0.00     0.050 A 
HETATM   17  C   UNL     1     -42.957  54.360 -51.487  1.00  0.00     0.036 A 
HETATM   18 CL   UNL     1     -44.113  54.969 -50.364  1.00  0.00    -0.084 Cl
HETATM   19  C   UNL     1     -43.226  54.448 -52.855  1.00  0.00     0.039 A 
BRANCH  13  20
HETATM   20  O   UNL     1     -40.227  52.839 -54.222  1.00  0.00    -0.353 OA
HETATM   21  C   UNL     1     -40.321  51.412 -54.307  1.00  0.00     0.210 C 
ENDBRANCH  13  20
ENDBRANCH  11  12
ENDBRANCH   7  10
ENDBRANCH   1   6
BRANCH   2  22
HETATM   22  C   UNL     1     -41.854  59.438 -54.035  1.00  0.00     0.230 A 
HETATM   23  N   UNL     1     -40.674  59.613 -53.446  1.00  0.00    -0.081 NA
HETATM   24  O   UNL     1     -40.968  59.592 -52.082  1.00  0.00    -0.103 OA
HETATM   25  N   UNL     1     -42.324  59.390 -51.866  1.00  0.00    -0.083 NA
HETATM   26  C   UNL     1     -42.875  59.301 -53.075  1.00  0.00     0.201 A 
BRANCH  26  27
HETATM   27  N   UNL     1     -44.186  59.121 -53.297  1.00  0.00    -0.379 N 
HETATM   28  H   UNL     1     -44.503  58.754 -54.190  1.00  0.00     0.158 HD
HETATM   29  H   UNL     1     -44.920  59.494 -52.699  1.00  0.00     0.158 HD
ENDBRANCH  26  27
ENDBRANCH   2  22
BRANCH   5  30
HETATM   30  C   UNL     1     -42.238  58.328 -58.948  1.00  0.00     0.298 C 
BRANCH  30  31
HETATM   31  N   UNL     1     -43.430  57.367 -59.031  1.00  0.00    -0.066 N 
HETATM   32  H   UNL     1     -43.541  57.033 -58.060  1.00  0.00     0.280 HD
HETATM   33  C   UNL     1     -44.691  58.116 -59.388  1.00  0.00     0.235 C 
HETATM   34  C   UNL     1     -45.939  57.256 -59.233  1.00  0.00     0.028 C 
HETATM   35  C   UNL     1     -46.103  56.237 -60.355  1.00  0.00     0.002 C 
HETATM   36  C   UNL     1     -45.368  54.920 -60.141  1.00  0.00     0.002 C 
HETATM   37  C   UNL     1     -43.988  54.987 -59.495  1.00  0.00     0.028 C 
HETATM   38  C   UNL     1     -43.127  56.175 -59.905  1.00  0.00     0.235 C 
ENDBRANCH  30  31
ENDBRANCH   5  30
TORSDOF 8
ENDMDL
MODEL 2
REMARK VINA RESULT:      -8.6      2.417      5.687
REMARK  8 active torsions:
REMARK  status: ('A' for Active; 'I' for Inactive)
REMARK    1  A    between atoms: O_2  and  C_3 
REMARK    2  A    between atoms: C_10  and  C_11 
REMARK    3  A    between atoms: N_12  and  N_13 
REMARK       I    between atoms: N_13  and  C_14 
REMARK    4  A    between atoms: C_14  and  C_15 
REMARK    5  A    between atoms: N_16  and  C_17 
REMARK    6  A    between atoms: C_21  and  N_22 
REMARK    7  A    between atoms: C_25  and  C_26 
REMARK    8  A    between atoms: C_26  and  N_27 
ROOT
HETATM    1  C   UNL     1     -42.917  56.530 -55.937  1.00  0.00     0.154 A 
HETATM    2  N   UNL     1     -43.289  57.221 -57.096  1.00  0.00    -0.184 N 
HETATM    3  N   UNL     1     -43.855  58.409 -56.726  1.00  0.00    -0.058 NA
HETATM    4  N   UNL     1     -43.931  58.476 -55.413  1.00  0.00    -0.132 NA
HETATM    5  C   UNL     1     -43.388  57.337 -54.905  1.00  0.00     0.118 A 
ENDROOT
BRANCH   1   6
HETATM    6  C   UNL     1     -42.311  55.230 -55.757  1.00  0.00     0.271 C 
HETATM    7  N   UNL     1     -40.975  55.183 -55.362  1.00  0.00    -0.145 NA
HETATM    8  H   UNL     1     -40.426  55.999 -55.631  1.00  0.00     0.158 HD
HETATM    9  O   UNL     1     -43.019  54.226 -55.825  1.00  0.00    -0.271 OA
BRANCH   7  10
HETATM   10  N   UNL     1     -40.261  54.051 -55.621  1.00  0.00    -0.205 NA
HETATM   11  C   UNL     1     -39.991  53.153 -54.714  1.00  0.00     0.147 C 
BRANCH  11  12
HETATM   12  C   UNL     1     -40.240  53.063 -53.252  1.00  0.00     0.019 A 
HETATM   13  C   UNL     1     -39.858  51.879 -52.589  1.00  0.00     0.101 A 
HETATM   14  C   UNL     1     -40.148  51.703 -51.225  1.00  0.00     0.069 A 
HETATM   15 CL   UNL     1     -39.766  50.235 -50.398  1.00  0.00    -0.081 Cl
HETATM   16  C   UNL     1     -40.774  52.715 -50.504  1.00  0.00     0.050 A 
HETATM   17  C   UNL     1     -41.104  53.902 -51.148  1.00  0.00     0.036 A 
HETATM   18 CL   UNL     1     -41.898  55.158 -50.277  1.00  0.00    -0.084 Cl
HETATM   19  C   UNL     1     -40.829  54.084 -52.505  1.00  0.00     0.039 A 
BRANCH  13  20
HETATM   20  O   UNL     1     -39.254  50.868 -53.298  1.00  0.00    -0.353 OA
HETATM   21  C   UNL     1     -40.219  50.004 -53.909  1.00  0.00     0.210 C 
ENDBRANCH  13  20
ENDBRANCH  11  12
ENDBRANCH   7  10
ENDBRANCH   1   6
BRANCH   2  22
HETATM   22  C   UNL     1     -43.205  56.855 -58.461  1.00  0.00     0.230 A 
HETATM   23  N   UNL     1     -43.697  55.691 -58.879  1.00  0.00    -0.081 NA
HETATM   24  O   UNL     1     -43.449  55.690 -60.252  1.00  0.00    -0.103 OA
HETATM   25  N   UNL     1     -42.797  56.851 -60.643  1.00  0.00    -0.083 NA
HETATM   26  C   UNL     1     -42.652  57.576 -59.536  1.00  0.00     0.201 A 
BRANCH  26  27
HETATM   27  N   UNL     1     -42.078  58.788 -59.497  1.00  0.00    -0.379 N 
HETATM   28  H   UNL     1     -41.544  59.070 -58.679  1.00  0.00     0.158 HD
HETATM   29  H   UNL     1     -42.280  59.534 -60.157  1.00  0.00     0.158 HD
ENDBRANCH  26  27
ENDBRANCH   2  22
BRANCH   5  30
HETATM   30  C   UNL     1     -43.407  57.141 -53.422  1.00  0.00     0.298 C 
BRANCH  30  31
HETATM   31  N   UNL     1     -42.460  58.118 -52.715  1.00  0.00    -0.066 N 
HETATM   32  H   UNL     1     -42.524  58.975 -53.287  1.00  0.00     0.280 HD
HETATM   33  C   UNL     1     -42.983  58.462 -51.341  1.00  0.00     0.235 C 
HETATM   34  C   UNL     1     -42.220  59.616 -50.704  1.00  0.00     0.028 C 
HETATM   35  C   UNL     1     -40.844  59.209 -50.191  1.00  0.00     0.002 C 
HETATM   36  C   UNL     1     -39.728  59.260 -51.228  1.00  0.00     0.002 C 
HETATM   37  C   UNL     1     -40.073  58.816 -52.646  1.00  0.00     0.028 C 
HETATM   38  C   UNL     1     -41.030  57.636 -52.751  1.00  0.00     0.235 C 
ENDBRANCH  30  31
ENDBRANCH   5  30
TORSDOF 8
ENDMDL
MODEL 3
REMARK VINA RESULT:      -8.3      1.901      2.591
REMARK  8 active torsions:
REMARK  status: ('A' for Active; 'I' for Inactive)
REMARK    1  A    between atoms: O_2  and  C_3 
REMARK    2  A    between atoms: C_10  and  C_11 
REMARK    3  A    between atoms: N_12  and  N_13 
REMARK       I    between atoms: N_13  and  C_14 
REMARK    4  A    between atoms: C_14  and  C_15 
REMARK    5  A    between atoms: N_16  and  C_17 
REMARK    6  A    between atoms: C_21  and  N_22 
REMARK    7  A    between atoms: C_25  and  C_26 
REMARK    8  A    between atoms: C_26  and  N_27 
ROOT
HETATM    1  C   UNL     1     -43.052  58.866 -53.798  1.00  0.00     0.154 A 
HETATM    2  N   UNL     1     -42.138  59.737 -53.195  1.00  0.00    -0.184 N 
HETATM    3  N   UNL     1     -42.006  60.840 -53.992  1.00  0.00    -0.058 NA
HETATM    4  N   UNL     1     -42.719  60.687 -55.088  1.00  0.00    -0.132 NA
HETATM    5  C   UNL     1     -43.350  59.483 -55.009  1.00  0.00     0.118 A 
ENDROOT
BRANCH   1   6
HETATM    6  C   UNL     1     -43.528  57.560 -53.399  1.00  0.00     0.271 C 
HETATM    7  N   UNL     1     -42.924  56.442 -53.972  1.00  0.00    -0.145 NA
HETATM    8  H   UNL     1     -42.517  56.608 -54.893  1.00  0.00     0.158 HD
HETATM    9  O   UNL     1     -44.345  57.477 -52.483  1.00  0.00    -0.271 OA
BRANCH   7  10
HETATM   10  N   UNL     1     -43.614  55.267 -53.986  1.00  0.00    -0.205 NA
HETATM   11  C   UNL     1     -43.302  54.246 -53.237  1.00  0.00     0.147 C 
BRANCH  11  12
HETATM   12  C   UNL     1     -42.194  53.970 -52.286  1.00  0.00     0.019 A 
HETATM   13  C   UNL     1     -41.166  53.102 -52.705  1.00  0.00     0.101 A 
HETATM   14  C   UNL     1     -40.139  52.737 -51.817  1.00  0.00     0.069 A 
HETATM   15 CL   UNL     1     -38.906  51.614 -52.268  1.00  0.00    -0.081 Cl
HETATM   16  C   UNL     1     -40.103  53.265 -50.530  1.00  0.00     0.050 A 
HETATM   17  C   UNL     1     -41.090  54.160 -50.136  1.00  0.00     0.036 A 
HETATM   18 CL   UNL     1     -41.074  54.808 -48.540  1.00  0.00    -0.084 Cl
HETATM   19  C   UNL     1     -42.121  54.524 -51.007  1.00  0.00     0.039 A 
BRANCH  13  20
HETATM   20  O   UNL     1     -41.203  52.564 -53.968  1.00  0.00    -0.353 OA
HETATM   21  C   UNL     1     -40.380  53.302 -54.880  1.00  0.00     0.210 C 
ENDBRANCH  13  20
ENDBRANCH  11  12
ENDBRANCH   7  10
ENDBRANCH   1   6
BRANCH   2  22
HETATM   22  C   UNL     1     -41.373  59.606 -52.011  1.00  0.00     0.230 A 
HETATM   23  N   UNL     1     -40.074  59.325 -52.075  1.00  0.00    -0.081 NA
HETATM   24  O   UNL     1     -39.668  59.289 -50.740  1.00  0.00    -0.103 OA
HETATM   25  N   UNL     1     -40.734  59.537 -49.887  1.00  0.00    -0.083 NA
HETATM   26  C   UNL     1     -41.789  59.740 -50.673  1.00  0.00     0.201 A 
BRANCH  26  27
HETATM   27  N   UNL     1     -43.021  60.030 -50.225  1.00  0.00    -0.379 N 
HETATM   28  H   UNL     1     -43.652  59.279 -49.959  1.00  0.00     0.158 HD
HETATM   29  H   UNL     1     -43.449  60.949 -50.296  1.00  0.00     0.158 HD
ENDBRANCH  26  27
ENDBRANCH   2  22
BRANCH   5  30
HETATM   30  C   UNL     1     -44.184  59.043 -56.170  1.00  0.00     0.298 C 
BRANCH  30  31
HETATM   31  N   UNL     1     -43.361  58.231 -57.177  1.00  0.00    -0.066 N 
HETATM   32  H   UNL     1     -42.447  58.119 -56.710  1.00  0.00     0.280 HD
HETATM   33  C   UNL     1     -43.944  56.849 -57.347  1.00  0.00     0.235 C 
HETATM   34  C   UNL     1     -43.023  55.925 -58.134  1.00  0.00     0.028 C 
HETATM   35  C   UNL     1     -43.022  56.220 -59.630  1.00  0.00     0.002 C 
HETATM   36  C   UNL     1     -42.044  57.302 -60.072  1.00  0.00     0.002 C 
HETATM   37  C   UNL     1     -41.872  58.506 -59.152  1.00  0.00     0.028 C 
HETATM   38  C   UNL     1     -43.140  58.992 -58.462  1.00  0.00     0.235 C 
ENDBRANCH  30  31
ENDBRANCH   5  30
TORSDOF 8
ENDMDL
MODEL 4
REMARK VINA RESULT:      -8.3      1.192      2.160
REMARK  8 active torsions:
REMARK  status: ('A' for Active; 'I' for Inactive)
REMARK    1  A    between atoms: O_2  and  C_3 
REMARK    2  A    between atoms: C_10  and  C_11 
REMARK    3  A    between atoms: N_12  and  N_13 
REMARK       I    between atoms: N_13  and  C_14 
REMARK    4  A    between atoms: C_14  and  C_15 
REMARK    5  A    between atoms: N_16  and  C_17 
REMARK    6  A    between atoms: C_21  and  N_22 
REMARK    7  A    between atoms: C_25  and  C_26 
REMARK    8  A    between atoms: C_26  and  N_27 
ROOT
HETATM    1  C   UNL     1     -42.528  58.618 -56.711  1.00  0.00     0.154 A 
HETATM    2  N   UNL     1     -41.995  59.647 -55.927  1.00  0.00    -0.184 N 
HETATM    3  N   UNL     1     -41.348  60.524 -56.752  1.00  0.00    -0.058 NA
HETATM    4  N   UNL     1     -41.377  60.076 -57.990  1.00  0.00    -0.132 NA
HETATM    5  C   UNL     1     -42.069  58.904 -57.993  1.00  0.00     0.118 A 
ENDROOT
BRANCH   1   6
HETATM    6  C   UNL     1     -43.272  57.432 -56.348  1.00  0.00     0.271 C 
HETATM    7  N   UNL     1     -42.567  56.238 -56.203  1.00  0.00    -0.145 NA
HETATM    8  H   UNL     1     -41.707  56.187 -56.749  1.00  0.00     0.158 HD
HETATM    9  O   UNL     1     -44.462  57.540 -56.052  1.00  0.00    -0.271 OA
BRANCH   7  10
HETATM   10  N   UNL     1     -43.249  55.063 -56.318  1.00  0.00    -0.205 NA
HETATM   11  C   UNL     1     -43.130  54.082 -55.468  1.00  0.00     0.147 C 
BRANCH  11  12
HETATM   12  C   UNL     1     -42.277  53.855 -54.273  1.00  0.00     0.019 A 
HETATM   13  C   UNL     1     -42.569  54.587 -53.104  1.00  0.00     0.101 A 
HETATM   14  C   UNL     1     -41.744  54.478 -51.972  1.00  0.00     0.069 A 
HETATM   15 CL   UNL     1     -42.025  55.417 -50.550  1.00  0.00    -0.081 Cl
HETATM   16  C   UNL     1     -40.653  53.612 -51.979  1.00  0.00     0.050 A 
HETATM   17  C   UNL     1     -40.396  52.855 -53.115  1.00  0.00     0.036 A 
HETATM   18 CL   UNL     1     -39.040  51.793 -53.149  1.00  0.00    -0.084 Cl
HETATM   19  C   UNL     1     -41.205  52.961 -54.249  1.00  0.00     0.039 A 
BRANCH  13  20
HETATM   20  O   UNL     1     -43.634  55.455 -53.095  1.00  0.00    -0.353 OA
HETATM   21  C   UNL     1     -43.216  56.798 -52.823  1.00  0.00     0.210 C 
ENDBRANCH  13  20
ENDBRANCH  11  12
ENDBRANCH   7  10
ENDBRANCH   1   6
BRANCH   2  22
HETATM   22  C   UNL     1     -41.999  59.842 -54.525  1.00  0.00     0.230 A 
HETATM   23  N   UNL     1     -40.936  59.513 -53.795  1.00  0.00    -0.081 NA
HETATM   24  O   UNL     1     -41.299  59.856 -52.492  1.00  0.00    -0.103 OA
HETATM   25  N   UNL     1     -42.585  60.377 -52.452  1.00  0.00    -0.083 NA
HETATM   26  C   UNL     1     -43.016  60.375 -53.712  1.00  0.00     0.201 A 
BRANCH  26  27
HETATM   27  N   UNL     1     -44.221  60.824 -54.098  1.00  0.00    -0.379 N 
HETATM   28  H   UNL     1     -44.899  60.178 -54.494  1.00  0.00     0.158 HD
HETATM   29  H   UNL     1     -44.457  61.808 -54.193  1.00  0.00     0.158 HD
ENDBRANCH  26  27
ENDBRANCH   2  22
BRANCH   5  30
HETATM   30  C   UNL     1     -42.194  58.158 -59.283  1.00  0.00     0.298 C 
BRANCH  30  31
HETATM   31  N   UNL     1     -43.432  57.254 -59.290  1.00  0.00    -0.066 N 
HETATM   32  H   UNL     1     -43.568  57.019 -58.295  1.00  0.00     0.280 HD
HETATM   33  C   UNL     1     -44.650  58.028 -59.734  1.00  0.00     0.235 C 
HETATM   34  C   UNL     1     -45.942  57.249 -59.515  1.00  0.00     0.028 C 
HETATM   35  C   UNL     1     -46.148  56.139 -60.538  1.00  0.00     0.002 C 
HETATM   36  C   UNL     1     -45.483  54.812 -60.192  1.00  0.00     0.002 C 
HETATM   37  C   UNL     1     -44.107  54.871 -59.536  1.00  0.00     0.028 C 
HETATM   38  C   UNL     1     -43.184  55.970 -60.045  1.00  0.00     0.235 C 
ENDBRANCH  30  31
ENDBRANCH   5  30
TORSDOF 8
ENDMDL
MODEL 5
REMARK VINA RESULT:      -8.1      1.941      2.946
REMARK  8 active torsions:
REMARK  status: ('A' for Active; 'I' for Inactive)
REMARK    1  A    between atoms: O_2  and  C_3 
REMARK    2  A    between atoms: C_10  and  C_11 
REMARK    3  A    between atoms: N_12  and  N_13 
REMARK       I    between atoms: N_13  and  C_14 
REMARK    4  A    between atoms: C_14  and  C_15 
REMARK    5  A    between atoms: N_16  and  C_17 
REMARK    6  A    between atoms: C_21  and  N_22 
REMARK    7  A    between atoms: C_25  and  C_26 
REMARK    8  A    between atoms: C_26  and  N_27 
ROOT
HETATM    1  C   UNL     1     -43.040  58.794 -54.171  1.00  0.00     0.154 A 
HETATM    2  N   UNL     1     -42.095  59.493 -53.412  1.00  0.00    -0.184 N 
HETATM    3  N   UNL     1     -41.855  60.692 -54.023  1.00  0.00    -0.058 NA
HETATM    4  N   UNL     1     -42.530  60.760 -55.151  1.00  0.00    -0.132 NA
HETATM    5  C   UNL     1     -43.245  59.609 -55.281  1.00  0.00     0.118 A 
ENDROOT
BRANCH   1   6
HETATM    6  C   UNL     1     -43.621  57.481 -53.995  1.00  0.00     0.271 C 
HETATM    7  N   UNL     1     -42.900  56.381 -54.456  1.00  0.00    -0.145 NA
HETATM    8  H   UNL     1     -42.260  56.588 -55.224  1.00  0.00     0.158 HD
HETATM    9  O   UNL     1     -44.653  57.368 -53.335  1.00  0.00    -0.271 OA
BRANCH   7  10
HETATM   10  N   UNL     1     -43.575  55.228 -54.726  1.00  0.00    -0.205 NA
HETATM   11  C   UNL     1     -43.220  54.065 -54.254  1.00  0.00     0.147 C 
BRANCH  11  12
HETATM   12  C   UNL     1     -42.071  53.595 -53.437  1.00  0.00     0.019 A 
HETATM   13  C   UNL     1     -41.874  54.187 -52.174  1.00  0.00     0.101 A 
HETATM   14  C   UNL     1     -40.755  53.845 -51.395  1.00  0.00     0.069 A 
HETATM   15 CL   UNL     1     -40.438  54.606 -49.878  1.00  0.00    -0.081 Cl
HETATM   16  C   UNL     1     -39.855  52.883 -51.845  1.00  0.00     0.050 A 
HETATM   17  C   UNL     1     -40.079  52.264 -53.068  1.00  0.00     0.036 A 
HETATM   18 CL   UNL     1     -38.964  51.087 -53.651  1.00  0.00    -0.084 Cl
HETATM   19  C   UNL     1     -41.183  52.603 -53.855  1.00  0.00     0.039 A 
BRANCH  13  20
HETATM   20  O   UNL     1     -42.750  55.149 -51.730  1.00  0.00    -0.353 OA
HETATM   21  C   UNL     1     -43.711  54.605 -50.818  1.00  0.00     0.210 C 
ENDBRANCH  13  20
ENDBRANCH  11  12
ENDBRANCH   7  10
ENDBRANCH   1   6
BRANCH   2  22
HETATM   22  C   UNL     1     -41.392  59.125 -52.240  1.00  0.00     0.230 A 
HETATM   23  N   UNL     1     -40.076  59.307 -52.158  1.00  0.00    -0.081 NA
HETATM   24  O   UNL     1     -39.749  58.851 -50.881  1.00  0.00    -0.103 OA
HETATM   25  N   UNL     1     -40.873  58.387 -50.212  1.00  0.00    -0.083 NA
HETATM   26  C   UNL     1     -41.892  58.563 -51.051  1.00  0.00     0.201 A 
BRANCH  26  27
HETATM   27  N   UNL     1     -43.166  58.251 -50.767  1.00  0.00    -0.379 N 
HETATM   28  H   UNL     1     -43.833  58.108 -51.522  1.00  0.00     0.158 HD
HETATM   29  H   UNL     1     -43.574  58.318 -49.839  1.00  0.00     0.158 HD
ENDBRANCH  26  27
ENDBRANCH   2  22
BRANCH   5  30
HETATM   30  C   UNL     1     -44.057  59.414 -56.521  1.00  0.00     0.298 C 
BRANCH  30  31
HETATM   31  N   UNL     1     -43.392  58.416 -57.476  1.00  0.00    -0.066 N 
HETATM   32  H   UNL     1     -42.572  58.082 -56.946  1.00  0.00     0.280 HD
HETATM   33  C   UNL     1     -44.289  57.224 -57.705  1.00  0.00     0.235 C 
HETATM   34  C   UNL     1     -43.573  56.094 -58.437  1.00  0.00     0.028 C 
HETATM   35  C   UNL     1     -43.389  56.371 -59.924  1.00  0.00     0.002 C 
HETATM   36  C   UNL     1     -42.142  57.171 -60.281  1.00  0.00     0.002 C 
HETATM   37  C   UNL     1     -41.742  58.299 -59.336  1.00  0.00     0.028 C 
HETATM   38  C   UNL     1     -42.895  59.090 -58.732  1.00  0.00     0.235 C 
ENDBRANCH  30  31
ENDBRANCH   5  30
TORSDOF 8
ENDMDL
MODEL 6
REMARK VINA RESULT:      -8.1      2.040      5.433
REMARK  8 active torsions:
REMARK  status: ('A' for Active; 'I' for Inactive)
REMARK    1  A    between atoms: O_2  and  C_3 
REMARK    2  A    between atoms: C_10  and  C_11 
REMARK    3  A    between atoms: N_12  and  N_13 
REMARK       I    between atoms: N_13  and  C_14 
REMARK    4  A    between atoms: C_14  and  C_15 
REMARK    5  A    between atoms: N_16  and  C_17 
REMARK    6  A    between atoms: C_21  and  N_22 
REMARK    7  A    between atoms: C_25  and  C_26 
REMARK    8  A    between atoms: C_26  and  N_27 
ROOT
HETATM    1  C   UNL     1     -42.876  58.630 -56.210  1.00  0.00     0.154 A 
HETATM    2  N   UNL     1     -42.316  58.622 -57.492  1.00  0.00    -0.184 N 
HETATM    3  N   UNL     1     -41.561  59.752 -57.639  1.00  0.00    -0.058 NA
HETATM    4  N   UNL     1     -41.669  60.502 -56.562  1.00  0.00    -0.132 NA
HETATM    5  C   UNL     1     -42.482  59.856 -55.683  1.00  0.00     0.118 A 
ENDROOT
BRANCH   1   6
HETATM    6  C   UNL     1     -43.768  57.699 -55.555  1.00  0.00     0.271 C 
HETATM    7  N   UNL     1     -43.202  56.639 -54.849  1.00  0.00    -0.145 NA
HETATM    8  H   UNL     1     -42.279  56.357 -55.179  1.00  0.00     0.158 HD
HETATM    9  O   UNL     1     -44.973  57.945 -55.530  1.00  0.00    -0.271 OA
BRANCH   7  10
HETATM   10  N   UNL     1     -43.962  55.530 -54.622  1.00  0.00    -0.205 NA
HETATM   11  C   UNL     1     -43.680  54.645 -53.707  1.00  0.00     0.147 C 
BRANCH  11  12
HETATM   12  C   UNL     1     -42.550  54.475 -52.757  1.00  0.00     0.019 A 
HETATM   13  C   UNL     1     -41.545  53.543 -53.086  1.00  0.00     0.101 A 
HETATM   14  C   UNL     1     -40.500  53.276 -52.186  1.00  0.00     0.069 A 
HETATM   15 CL   UNL     1     -39.295  52.084 -52.521  1.00  0.00    -0.081 Cl
HETATM   16  C   UNL     1     -40.421  53.964 -50.978  1.00  0.00     0.050 A 
HETATM   17  C   UNL     1     -41.384  54.919 -50.678  1.00  0.00     0.036 A 
HETATM   18 CL   UNL     1     -41.315  55.765 -49.179  1.00  0.00    -0.084 Cl
HETATM   19  C   UNL     1     -42.433  55.186 -51.561  1.00  0.00     0.039 A 
BRANCH  13  20
HETATM   20  O   UNL     1     -41.625  52.848 -54.269  1.00  0.00    -0.353 OA
HETATM   21  C   UNL     1     -40.659  53.314 -55.220  1.00  0.00     0.210 C 
ENDBRANCH  13  20
ENDBRANCH  11  12
ENDBRANCH   7  10
ENDBRANCH   1   6
BRANCH   2  22
HETATM   22  C   UNL     1     -42.462  57.707 -58.563  1.00  0.00     0.230 A 
HETATM   23  N   UNL     1     -42.567  58.146 -59.815  1.00  0.00    -0.081 NA
HETATM   24  O   UNL     1     -42.680  56.981 -60.575  1.00  0.00    -0.103 OA
HETATM   25  N   UNL     1     -42.654  55.853 -59.768  1.00  0.00    -0.083 NA
HETATM   26  C   UNL     1     -42.512  56.301 -58.522  1.00  0.00     0.201 A 
BRANCH  26  27
HETATM   27  N   UNL     1     -42.427  55.512 -57.440  1.00  0.00    -0.379 N 
HETATM   28  H   UNL     1     -43.092  55.622 -56.679  1.00  0.00     0.158 HD
HETATM   29  H   UNL     1     -41.629  54.917 -57.233  1.00  0.00     0.158 HD
ENDBRANCH  26  27
ENDBRANCH   2  22
BRANCH   5  30
HETATM   30  C   UNL     1     -42.815  60.536 -54.393  1.00  0.00     0.298 C 
BRANCH  30  31
HETATM   31  N   UNL     1     -42.250  59.768 -53.192  1.00  0.00    -0.066 N 
HETATM   32  H   UNL     1     -42.886  58.960 -53.099  1.00  0.00     0.280 HD
HETATM   33  C   UNL     1     -40.881  59.219 -53.512  1.00  0.00     0.235 C 
HETATM   34  C   UNL     1     -40.389  58.239 -52.453  1.00  0.00     0.028 C 
HETATM   35  C   UNL     1     -39.928  58.927 -51.174  1.00  0.00     0.002 C 
HETATM   36  C   UNL     1     -41.031  59.213 -50.162  1.00  0.00     0.002 C 
HETATM   37  C   UNL     1     -42.383  59.656 -50.710  1.00  0.00     0.028 C 
HETATM   38  C   UNL     1     -42.332  60.577 -51.921  1.00  0.00     0.235 C 
ENDBRANCH  30  31
ENDBRANCH   5  30
TORSDOF 8
ENDMDL
MODEL 7
REMARK VINA RESULT:      -7.7      3.283      7.391
REMARK  8 active torsions:
REMARK  status: ('A' for Active; 'I' for Inactive)
REMARK    1  A    between atoms: O_2  and  C_3 
REMARK    2  A    between atoms: C_10  and  C_11 
REMARK    3  A    between atoms: N_12  and  N_13 
REMARK       I    between atoms: N_13  and  C_14 
REMARK    4  A    between atoms: C_14  and  C_15 
REMARK    5  A    between atoms: N_16  and  C_17 
REMARK    6  A    between atoms: C_21  and  N_22 
REMARK    7  A    between atoms: C_25  and  C_26 
REMARK    8  A    between atoms: C_26  and  N_27 
ROOT
HETATM    1  C   UNL     1     -42.587  57.417 -52.197  1.00  0.00     0.154 A 
HETATM    2  N   UNL     1     -43.702  57.278 -51.364  1.00  0.00    -0.184 N 
HETATM    3  N   UNL     1     -43.810  55.964 -51.005  1.00  0.00    -0.058 NA
HETATM    4  N   UNL     1     -42.881  55.258 -51.617  1.00  0.00    -0.132 NA
HETATM    5  C   UNL     1     -42.135  56.112 -52.368  1.00  0.00     0.118 A 
ENDROOT
BRANCH   1   6
HETATM    6  C   UNL     1     -42.041  58.574 -52.873  1.00  0.00     0.271 C 
HETATM    7  N   UNL     1     -42.655  58.990 -54.053  1.00  0.00    -0.145 NA
HETATM    8  H   UNL     1     -43.140  58.250 -54.561  1.00  0.00     0.158 HD
HETATM    9  O   UNL     1     -41.151  59.221 -52.324  1.00  0.00    -0.271 OA
BRANCH   7  10
HETATM   10  N   UNL     1     -41.933  59.744 -54.930  1.00  0.00    -0.205 NA
HETATM   11  C   UNL     1     -42.095  59.688 -56.223  1.00  0.00     0.147 C 
BRANCH  11  12
HETATM   12  C   UNL     1     -42.936  58.850 -57.117  1.00  0.00     0.019 A 
HETATM   13  C   UNL     1     -44.333  59.031 -57.070  1.00  0.00     0.101 A 
HETATM   14  C   UNL     1     -45.182  58.207 -57.829  1.00  0.00     0.069 A 
HETATM   15 CL   UNL     1     -46.901  58.347 -57.738  1.00  0.00    -0.081 Cl
HETATM   16  C   UNL     1     -44.649  57.234 -58.670  1.00  0.00     0.050 A 
HETATM   17  C   UNL     1     -43.269  57.092 -58.752  1.00  0.00     0.036 A 
HETATM   18 CL   UNL     1     -42.592  55.879 -59.771  1.00  0.00    -0.084 Cl
HETATM   19  C   UNL     1     -42.416  57.898 -57.996  1.00  0.00     0.039 A 
BRANCH  13  20
HETATM   20  O   UNL     1     -44.867  59.978 -56.231  1.00  0.00    -0.353 OA
HETATM   21  C   UNL     1     -45.142  61.202 -56.924  1.00  0.00     0.210 C 
ENDBRANCH  13  20
ENDBRANCH  11  12
ENDBRANCH   7  10
ENDBRANCH   1   6
BRANCH   2  22
HETATM   22  C   UNL     1     -44.662  58.225 -50.934  1.00  0.00     0.230 A 
HETATM   23  N   UNL     1     -45.960  57.933 -50.967  1.00  0.00    -0.081 NA
HETATM   24  O   UNL     1     -46.580  59.078 -50.466  1.00  0.00    -0.103 OA
HETATM   25  N   UNL     1     -45.646  60.053 -50.148  1.00  0.00    -0.083 NA
HETATM   26  C   UNL     1     -44.457  59.524 -50.431  1.00  0.00     0.201 A 
BRANCH  26  27
HETATM   27  N   UNL     1     -43.286  60.153 -50.246  1.00  0.00    -0.379 N 
HETATM   28  H   UNL     1     -42.520  60.000 -50.896  1.00  0.00     0.158 HD
HETATM   29  H   UNL     1     -43.035  60.645 -49.393  1.00  0.00     0.158 HD
ENDBRANCH  26  27
ENDBRANCH   2  22
BRANCH   5  30
HETATM   30  C   UNL     1     -41.041  55.542 -53.214  1.00  0.00     0.298 C 
BRANCH  30  31
HETATM   31  N   UNL     1     -40.871  54.038 -52.973  1.00  0.00    -0.066 N 
HETATM   32  H   UNL     1     -41.826  53.718 -52.748  1.00  0.00     0.280 HD
HETATM   33  C   UNL     1     -40.460  53.341 -54.248  1.00  0.00     0.235 C 
HETATM   34  C   UNL     1     -40.527  51.824 -54.125  1.00  0.00     0.028 C 
HETATM   35  C   UNL     1     -39.377  51.240 -53.314  1.00  0.00     0.002 C 
HETATM   36  C   UNL     1     -39.602  51.208 -51.807  1.00  0.00     0.002 C 
HETATM   37  C   UNL     1     -40.326  52.397 -51.184  1.00  0.00     0.028 C 
HETATM   38  C   UNL     1     -39.989  53.757 -51.781  1.00  0.00     0.235 C 
ENDBRANCH  30  31
ENDBRANCH   5  30
TORSDOF 8
ENDMDL
MODEL 8
REMARK VINA RESULT:      -7.7      2.545      4.202
REMARK  8 active torsions:
REMARK  status: ('A' for Active; 'I' for Inactive)
REMARK    1  A    between atoms: O_2  and  C_3 
REMARK    2  A    between atoms: C_10  and  C_11 
REMARK    3  A    between atoms: N_12  and  N_13 
REMARK       I    between atoms: N_13  and  C_14 
REMARK    4  A    between atoms: C_14  and  C_15 
REMARK    5  A    between atoms: N_16  and  C_17 
REMARK    6  A    between atoms: C_21  and  N_22 
REMARK    7  A    between atoms: C_25  and  C_26 
REMARK    8  A    between atoms: C_26  and  N_27 
ROOT
HETATM    1  C   UNL     1     -43.315  59.276 -52.418  1.00  0.00     0.154 A 
HETATM    2  N   UNL     1     -44.417  59.979 -51.921  1.00  0.00    -0.184 N 
HETATM    3  N   UNL     1     -44.827  60.867 -52.876  1.00  0.00    -0.058 NA
HETATM    4  N   UNL     1     -44.011  60.819 -53.908  1.00  0.00    -0.132 NA
HETATM    5  C   UNL     1     -43.066  59.875 -53.650  1.00  0.00     0.118 A 
ENDROOT
BRANCH   1   6
HETATM    6  C   UNL     1     -42.487  58.253 -51.817  1.00  0.00     0.271 C 
HETATM    7  N   UNL     1     -43.085  57.036 -51.496  1.00  0.00    -0.145 NA
HETATM    8  H   UNL     1     -44.087  57.092 -51.313  1.00  0.00     0.158 HD
HETATM    9  O   UNL     1     -41.274  58.439 -51.734  1.00  0.00    -0.271 OA
BRANCH   7  10
HETATM   10  N   UNL     1     -42.495  56.252 -50.549  1.00  0.00    -0.205 NA
HETATM   11  C   UNL     1     -41.903  55.123 -50.823  1.00  0.00     0.147 C 
BRANCH  11  12
HETATM   12  C   UNL     1     -41.739  54.325 -52.066  1.00  0.00     0.019 A 
HETATM   13  C   UNL     1     -40.720  53.352 -52.095  1.00  0.00     0.101 A 
HETATM   14  C   UNL     1     -40.462  52.628 -53.272  1.00  0.00     0.069 A 
HETATM   15 CL   UNL     1     -39.171  51.484 -53.370  1.00  0.00    -0.081 Cl
HETATM   16  C   UNL     1     -41.240  52.833 -54.408  1.00  0.00     0.050 A 
HETATM   17  C   UNL     1     -42.277  53.757 -54.360  1.00  0.00     0.036 A 
HETATM   18 CL   UNL     1     -43.238  54.040 -55.762  1.00  0.00    -0.084 Cl
HETATM   19  C   UNL     1     -42.537  54.489 -53.199  1.00  0.00     0.039 A 
BRANCH  13  20
HETATM   20  O   UNL     1     -39.937  53.154 -50.983  1.00  0.00    -0.353 OA
HETATM   21  C   UNL     1     -40.360  52.007 -50.237  1.00  0.00     0.210 C 
ENDBRANCH  13  20
ENDBRANCH  11  12
ENDBRANCH   7  10
ENDBRANCH   1   6
BRANCH   2  22
HETATM   22  C   UNL     1     -45.059  59.926 -50.661  1.00  0.00     0.230 A 
HETATM   23  N   UNL     1     -45.664  58.811 -50.258  1.00  0.00    -0.081 NA
HETATM   24  O   UNL     1     -46.158  59.129 -48.993  1.00  0.00    -0.103 OA
HETATM   25  N   UNL     1     -45.854  60.440 -48.653  1.00  0.00    -0.083 NA
HETATM   26  C   UNL     1     -45.168  60.932 -49.682  1.00  0.00     0.201 A 
BRANCH  26  27
HETATM   27  N   UNL     1     -44.674  62.179 -49.734  1.00  0.00    -0.379 N 
HETATM   28  H   UNL     1     -43.906  62.394 -50.364  1.00  0.00     0.158 HD
HETATM   29  H   UNL     1     -44.890  62.904 -49.055  1.00  0.00     0.158 HD
ENDBRANCH  26  27
ENDBRANCH   2  22
BRANCH   5  30
HETATM   30  C   UNL     1     -41.977  59.667 -54.653  1.00  0.00     0.298 C 
BRANCH  30  31
HETATM   31  N   UNL     1     -42.538  59.200 -56.002  1.00  0.00    -0.066 N 
HETATM   32  H   UNL     1     -43.524  59.502 -55.973  1.00  0.00     0.280 HD
HETATM   33  C   UNL     1     -41.878  59.946 -57.136  1.00  0.00     0.235 C 
HETATM   34  C   UNL     1     -42.576  59.704 -58.470  1.00  0.00     0.028 C 
HETATM   35  C   UNL     1     -42.274  58.332 -59.060  1.00  0.00     0.002 C 
HETATM   36  C   UNL     1     -43.178  57.207 -58.570  1.00  0.00     0.002 C 
HETATM   37  C   UNL     1     -43.586  57.229 -57.101  1.00  0.00     0.028 C 
HETATM   38  C   UNL     1     -42.512  57.696 -56.128  1.00  0.00     0.235 C 
ENDBRANCH  30  31
ENDBRANCH   5  30
TORSDOF 8
ENDMDL
MODEL 9
REMARK VINA RESULT:      -7.6      2.573      5.869
REMARK  8 active torsions:
REMARK  status: ('A' for Active; 'I' for Inactive)
REMARK    1  A    between atoms: O_2  and  C_3 
REMARK    2  A    between atoms: C_10  and  C_11 
REMARK    3  A    between atoms: N_12  and  N_13 
REMARK       I    between atoms: N_13  and  C_14 
REMARK    4  A    between atoms: C_14  and  C_15 
REMARK    5  A    between atoms: N_16  and  C_17 
REMARK    6  A    between atoms: C_21  and  N_22 
REMARK    7  A    between atoms: C_25  and  C_26 
REMARK    8  A    between atoms: C_26  and  N_27 
ROOT
HETATM    1  C   UNL     1     -43.652  59.673 -57.169  1.00  0.00     0.154 A 
HETATM    2  N   UNL     1     -44.142  58.883 -58.214  1.00  0.00    -0.184 N 
HETATM    3  N   UNL     1     -45.421  59.278 -58.490  1.00  0.00    -0.058 NA
HETATM    4  N   UNL     1     -45.791  60.212 -57.638  1.00  0.00    -0.132 NA
HETATM    5  C   UNL     1     -44.743  60.458 -56.806  1.00  0.00     0.118 A 
ENDROOT
BRANCH   1   6
HETATM    6  C   UNL     1     -42.382  59.657 -56.477  1.00  0.00     0.271 C 
HETATM    7  N   UNL     1     -42.301  58.951 -55.278  1.00  0.00    -0.145 NA
HETATM    8  H   UNL     1     -43.186  58.864 -54.778  1.00  0.00     0.158 HD
HETATM    9  O   UNL     1     -41.397  60.147 -57.027  1.00  0.00    -0.271 OA
BRANCH   7  10
HETATM   10  N   UNL     1     -41.314  59.278 -54.397  1.00  0.00    -0.205 NA
HETATM   11  C   UNL     1     -40.751  58.412 -53.600  1.00  0.00     0.147 C 
BRANCH  11  12
HETATM   12  C   UNL     1     -40.985  56.972 -53.319  1.00  0.00     0.019 A 
HETATM   13  C   UNL     1     -41.604  56.630 -52.100  1.00  0.00     0.101 A 
HETATM   14  C   UNL     1     -41.772  55.281 -51.742  1.00  0.00     0.069 A 
HETATM   15 CL   UNL     1     -42.455  54.824 -50.223  1.00  0.00    -0.081 Cl
HETATM   16  C   UNL     1     -41.367  54.269 -52.608  1.00  0.00     0.050 A 
HETATM   17  C   UNL     1     -40.803  54.609 -53.831  1.00  0.00     0.036 A 
HETATM   18 CL   UNL     1     -40.278  53.371 -54.907  1.00  0.00    -0.084 Cl
HETATM   19  C   UNL     1     -40.623  55.946 -54.194  1.00  0.00     0.039 A 
BRANCH  13  20
HETATM   20  O   UNL     1     -41.991  57.623 -51.233  1.00  0.00    -0.353 OA
HETATM   21  C   UNL     1     -40.934  57.979 -50.334  1.00  0.00     0.210 C 
ENDBRANCH  13  20
ENDBRANCH  11  12
ENDBRANCH   7  10
ENDBRANCH   1   6
BRANCH   2  22
HETATM   22  C   UNL     1     -43.553  57.802 -58.914  1.00  0.00     0.230 A 
HETATM   23  N   UNL     1     -43.161  57.950 -60.177  1.00  0.00    -0.081 NA
HETATM   24  O   UNL     1     -42.630  56.705 -60.517  1.00  0.00    -0.103 OA
HETATM   25  N   UNL     1     -42.721  55.817 -59.455  1.00  0.00    -0.083 NA
HETATM   26  C   UNL     1     -43.287  56.497 -58.460  1.00  0.00     0.201 A 
BRANCH  26  27
HETATM   27  N   UNL     1     -43.534  55.989 -57.242  1.00  0.00    -0.379 N 
HETATM   28  H   UNL     1     -42.828  55.427 -56.775  1.00  0.00     0.158 HD
HETATM   29  H   UNL     1     -44.454  55.972 -56.811  1.00  0.00     0.158 HD
ENDBRANCH  26  27
ENDBRANCH   2  22
BRANCH   5  30
HETATM   30  C   UNL     1     -44.931  61.447 -55.701  1.00  0.00     0.298 C 
BRANCH  30  31
HETATM   31  N   UNL     1     -44.464  60.880 -54.355  1.00  0.00    -0.066 N 
HETATM   32  H   UNL     1     -43.702  60.234 -54.614  1.00  0.00     0.280 HD
HETATM   33  C   UNL     1     -43.854  61.968 -53.505  1.00  0.00     0.235 C 
HETATM   34  C   UNL     1     -43.148  61.413 -52.274  1.00  0.00     0.028 C 
HETATM   35  C   UNL     1     -44.116  60.964 -51.185  1.00  0.00     0.002 C 
HETATM   36  C   UNL     1     -44.631  59.537 -51.330  1.00  0.00     0.002 C 
HETATM   37  C   UNL     1     -44.936  59.045 -52.741  1.00  0.00     0.028 C 
HETATM   38  C   UNL     1     -45.549  60.077 -53.679  1.00  0.00     0.235 C 
ENDBRANCH  30  31
ENDBRANCH   5  30
TORSDOF 8
ENDMDL
MODEL 10
REMARK VINA RESULT:      -7.6      3.273      7.462
REMARK  8 active torsions:
REMARK  status: ('A' for Active; 'I' for Inactive)
REMARK    1  A    between atoms: O_2  and  C_3 
REMARK    2  A    between atoms: C_10  and  C_11 
REMARK    3  A    between atoms: N_12  and  N_13 
REMARK       I    between atoms: N_13  and  C_14 
REMARK    4  A    between atoms: C_14  and  C_15 
REMARK    5  A    between atoms: N_16  and  C_17 
REMARK    6  A    between atoms: C_21  and  N_22 
REMARK    7  A    between atoms: C_25  and  C_26 
REMARK    8  A    between atoms: C_26  and  N_27 
ROOT
HETATM    1  C   UNL     1     -43.867  58.802 -51.795  1.00  0.00     0.154 A 
HETATM    2  N   UNL     1     -45.037  59.021 -51.060  1.00  0.00    -0.184 N 
HETATM    3  N   UNL     1     -45.483  57.816 -50.592  1.00  0.00    -0.058 NA
HETATM    4  N   UNL     1     -44.713  56.849 -51.046  1.00  0.00    -0.132 NA
HETATM    5  C   UNL     1     -43.733  57.416 -51.801  1.00  0.00     0.118 A 
ENDROOT
BRANCH   1   6
HETATM    6  C   UNL     1     -43.014  59.716 -52.522  1.00  0.00     0.271 C 
HETATM    7  N   UNL     1     -43.399  60.084 -53.810  1.00  0.00    -0.145 NA
HETATM    8  H   UNL     1     -43.983  59.398 -54.288  1.00  0.00     0.158 HD
HETATM    9  O   UNL     1     -42.062  60.234 -51.940  1.00  0.00    -0.271 OA
BRANCH   7  10
HETATM   10  N   UNL     1     -42.444  60.544 -54.666  1.00  0.00    -0.205 NA
HETATM   11  C   UNL     1     -42.125  59.935 -55.774  1.00  0.00     0.147 C 
BRANCH  11  12
HETATM   12  C   UNL     1     -42.545  58.655 -56.401  1.00  0.00     0.019 A 
HETATM   13  C   UNL     1     -43.379  58.718 -57.535  1.00  0.00     0.101 A 
HETATM   14  C   UNL     1     -43.879  57.540 -58.116  1.00  0.00     0.069 A 
HETATM   15 CL   UNL     1     -44.966  57.579 -59.458  1.00  0.00    -0.081 Cl
HETATM   16  C   UNL     1     -43.518  56.296 -57.604  1.00  0.00     0.050 A 
HETATM   17  C   UNL     1     -42.655  56.236 -56.517  1.00  0.00     0.036 A 
HETATM   18 CL   UNL     1     -42.213  54.707 -55.857  1.00  0.00    -0.084 Cl
HETATM   19  C   UNL     1     -42.159  57.400 -55.925  1.00  0.00     0.039 A 
BRANCH  13  20
HETATM   20  O   UNL     1     -43.753  59.941 -58.036  1.00  0.00    -0.353 OA
HETATM   21  C   UNL     1     -42.930  60.331 -59.143  1.00  0.00     0.210 C 
ENDBRANCH  13  20
ENDBRANCH  11  12
ENDBRANCH   7  10
ENDBRANCH   1   6
BRANCH   2  22
HETATM   22  C   UNL     1     -45.768  60.207 -50.811  1.00  0.00     0.230 A 
HETATM   23  N   UNL     1     -45.888  60.679 -49.573  1.00  0.00    -0.081 NA
HETATM   24  O   UNL     1     -46.645  61.841 -49.722  1.00  0.00    -0.103 OA
HETATM   25  N   UNL     1     -46.984  62.048 -51.052  1.00  0.00    -0.083 NA
HETATM   26  C   UNL     1     -46.436  61.041 -51.728  1.00  0.00     0.201 A 
BRANCH  26  27
HETATM   27  N   UNL     1     -46.521  60.889 -53.059  1.00  0.00    -0.379 N 
HETATM   28  H   UNL     1     -45.677  60.750 -53.608  1.00  0.00     0.158 HD
HETATM   29  H   UNL     1     -47.360  61.080 -53.599  1.00  0.00     0.158 HD
ENDBRANCH  26  27
ENDBRANCH   2  22
BRANCH   5  30
HETATM   30  C   UNL     1     -42.753  56.516 -52.485  1.00  0.00     0.298 C 
BRANCH  30  31
HETATM   31  N   UNL     1     -42.133  55.514 -51.504  1.00  0.00    -0.066 N 
HETATM   32  H   UNL     1     -42.950  55.101 -51.028  1.00  0.00     0.280 HD
HETATM   33  C   UNL     1     -41.444  54.398 -52.252  1.00  0.00     0.235 C 
HETATM   34  C   UNL     1     -41.036  53.252 -51.335  1.00  0.00     0.028 C 
HETATM   35  C   UNL     1     -39.813  53.576 -50.486  1.00  0.00     0.002 C 
HETATM   36  C   UNL     1     -40.109  54.300 -49.178  1.00  0.00     0.002 C 
HETATM   37  C   UNL     1     -41.208  55.357 -49.199  1.00  0.00     0.028 C 
HETATM   38  C   UNL     1     -41.283  56.203 -50.464  1.00  0.00     0.235 C 
ENDBRANCH  30  31
ENDBRANCH   5  30
TORSDOF 8
ENDMDL
