MODEL 1
REMARK VINA RESULT:      -8.6      0.000      0.000
REMARK  2 active torsions:
REMARK  status: ('A' for Active; 'I' for Inactive)
REMARK    1  A    between atoms: C_4  and  C_5 
REMARK    2  A    between atoms: N_11  and  C_12 
ROOT
HETATM    1  C   UNL     1     -42.737  57.410 -56.807  1.00  0.00     0.069 A 
HETATM    2  N   UNL     1     -41.831  56.374 -56.662  1.00  0.00    -0.343 N 
HETATM    3  C   UNL     1     -41.867  55.531 -55.588  1.00  0.00     0.119 A 
HETATM    4  C   UNL     1     -42.838  55.632 -54.666  1.00  0.00     0.125 A 
HETATM    5  C   UNL     1     -42.634  54.531 -53.710  1.00  0.00     0.280 A 
HETATM    6  O   UNL     1     -43.343  54.299 -52.747  1.00  0.00    -0.265 OA
HETATM    7  N   UNL     1     -41.495  53.850 -54.168  1.00  0.00    -0.236 N 
HETATM    8  N   UNL     1     -40.995  54.494 -55.320  1.00  0.00    -0.179 NA
HETATM    9  C   UNL     1     -43.878  56.664 -54.765  1.00  0.00     0.215 A 
HETATM   10  O   UNL     1     -44.790  56.750 -53.951  1.00  0.00    -0.285 OA
HETATM   11  C   UNL     1     -43.751  57.608 -55.935  1.00  0.00     0.112 A 
HETATM   12 CL   UNL     1     -44.915  58.872 -56.061  1.00  0.00    -0.077 Cl
HETATM   13  H   UNL     1     -41.010  56.366 -57.260  1.00  0.00     0.167 HD
HETATM   14  H   UNL     1     -40.927  53.865 -56.119  1.00  0.00     0.155 HD
ENDROOT
BRANCH   7  15
HETATM   15  C   UNL     1     -40.828  52.734 -53.618  1.00  0.00     0.055 A 
HETATM   16  C   UNL     1     -40.346  52.752 -52.300  1.00  0.00     0.034 A 
HETATM   17  C   UNL     1     -39.696  51.638 -51.758  1.00  0.00     0.044 A 
HETATM   18  C   UNL     1     -39.521  50.501 -52.531  1.00  0.00     0.116 A 
HETATM   19  F   UNL     1     -38.900  49.434 -52.013  1.00  0.00    -0.206 F 
HETATM   20  C   UNL     1     -39.982  50.455 -53.839  1.00  0.00     0.044 A 
HETATM   21  C   UNL     1     -40.633  51.569 -54.380  1.00  0.00     0.034 A 
ENDBRANCH   7  15
BRANCH   1  22
HETATM   22  C   UNL     1     -42.520  58.281 -57.974  1.00  0.00    -0.008 A 
HETATM   23  C   UNL     1     -42.835  57.827 -59.261  1.00  0.00     0.014 A 
HETATM   24  C   UNL     1     -42.638  58.657 -60.366  1.00  0.00     0.001 A 
HETATM   25  C   UNL     1     -42.127  59.942 -60.190  1.00  0.00     0.000 A 
HETATM   26  C   UNL     1     -41.814  60.401 -58.912  1.00  0.00     0.001 A 
HETATM   27  C   UNL     1     -42.010  59.574 -57.805  1.00  0.00     0.014 A 
ENDBRANCH   1  22
TORSDOF 2
ENDMDL
MODEL 2
REMARK VINA RESULT:      -8.6      3.445      8.060
REMARK  2 active torsions:
REMARK  status: ('A' for Active; 'I' for Inactive)
REMARK    1  A    between atoms: C_4  and  C_5 
REMARK    2  A    between atoms: N_11  and  C_12 
ROOT
HETATM    1  C   UNL     1     -41.631  53.797 -53.919  1.00  0.00     0.069 A 
HETATM    2  N   UNL     1     -41.455  54.238 -55.219  1.00  0.00    -0.343 N 
HETATM    3  C   UNL     1     -42.163  55.292 -55.723  1.00  0.00     0.119 A 
HETATM    4  C   UNL     1     -43.007  55.990 -54.945  1.00  0.00     0.125 A 
HETATM    5  C   UNL     1     -43.528  57.095 -55.767  1.00  0.00     0.280 A 
HETATM    6  O   UNL     1     -44.308  57.946 -55.381  1.00  0.00    -0.265 OA
HETATM    7  N   UNL     1     -42.924  56.938 -57.025  1.00  0.00    -0.236 N 
HETATM    8  N   UNL     1     -42.100  55.792 -57.009  1.00  0.00    -0.179 NA
HETATM    9  C   UNL     1     -43.217  55.631 -53.537  1.00  0.00     0.215 A 
HETATM   10  O   UNL     1     -43.958  56.276 -52.805  1.00  0.00    -0.285 OA
HETATM   11  C   UNL     1     -42.459  54.421 -53.052  1.00  0.00     0.112 A 
HETATM   12 CL   UNL     1     -42.718  53.926 -51.422  1.00  0.00    -0.077 Cl
HETATM   13  H   UNL     1     -40.937  53.647 -55.863  1.00  0.00     0.167 HD
HETATM   14  H   UNL     1     -41.136  56.003 -57.267  1.00  0.00     0.155 HD
ENDROOT
BRANCH   7  15
HETATM   15  C   UNL     1     -43.086  57.694 -58.205  1.00  0.00     0.055 A 
HETATM   16  C   UNL     1     -42.131  58.647 -58.595  1.00  0.00     0.034 A 
HETATM   17  C   UNL     1     -42.292  59.385 -59.772  1.00  0.00     0.044 A 
HETATM   18  C   UNL     1     -43.412  59.179 -60.565  1.00  0.00     0.116 A 
HETATM   19  F   UNL     1     -43.567  59.885 -61.692  1.00  0.00    -0.206 F 
HETATM   20  C   UNL     1     -44.375  58.249 -60.201  1.00  0.00     0.044 A 
HETATM   21  C   UNL     1     -44.212  57.510 -59.025  1.00  0.00     0.034 A 
ENDBRANCH   7  15
BRANCH   1  22
HETATM   22  C   UNL     1     -40.855  52.602 -53.547  1.00  0.00    -0.008 A 
HETATM   23  C   UNL     1     -40.130  52.576 -52.349  1.00  0.00     0.014 A 
HETATM   24  C   UNL     1     -39.403  51.439 -51.993  1.00  0.00     0.001 A 
HETATM   25  C   UNL     1     -39.397  50.325 -52.832  1.00  0.00     0.000 A 
HETATM   26  C   UNL     1     -40.117  50.343 -54.025  1.00  0.00     0.001 A 
HETATM   27  C   UNL     1     -40.846  51.479 -54.383  1.00  0.00     0.014 A 
ENDBRANCH   1  22
TORSDOF 2
ENDMDL
MODEL 3
REMARK VINA RESULT:      -8.5      2.347      2.879
REMARK  2 active torsions:
REMARK  status: ('A' for Active; 'I' for Inactive)
REMARK    1  A    between atoms: C_4  and  C_5 
REMARK    2  A    between atoms: N_11  and  C_12 
ROOT
HETATM    1  C   UNL     1     -43.866  56.474 -57.895  1.00  0.00     0.069 A 
HETATM    2  N   UNL     1     -43.565  55.278 -57.267  1.00  0.00    -0.343 N 
HETATM    3  C   UNL     1     -42.678  55.212 -56.231  1.00  0.00     0.119 A 
HETATM    4  C   UNL     1     -42.119  56.327 -55.731  1.00  0.00     0.125 A 
HETATM    5  C   UNL     1     -41.296  55.913 -54.583  1.00  0.00     0.280 A 
HETATM    6  O   UNL     1     -40.655  56.666 -53.872  1.00  0.00    -0.265 OA
HETATM    7  N   UNL     1     -41.439  54.518 -54.509  1.00  0.00    -0.236 N 
HETATM    8  N   UNL     1     -42.272  54.076 -55.558  1.00  0.00    -0.179 NA
HETATM    9  C   UNL     1     -42.421  57.649 -56.295  1.00  0.00     0.215 A 
HETATM   10  O   UNL     1     -41.946  58.678 -55.832  1.00  0.00    -0.285 OA
HETATM   11  C   UNL     1     -43.356  57.654 -57.479  1.00  0.00     0.112 A 
HETATM   12 CL   UNL     1     -43.695  59.177 -58.211  1.00  0.00    -0.077 Cl
HETATM   13  H   UNL     1     -43.858  54.413 -57.713  1.00  0.00     0.167 HD
HETATM   14  H   UNL     1     -43.078  53.551 -55.220  1.00  0.00     0.155 HD
ENDROOT
BRANCH   7  15
HETATM   15  C   UNL     1     -40.847  53.596 -53.620  1.00  0.00     0.055 A 
HETATM   16  C   UNL     1     -40.918  53.777 -52.230  1.00  0.00     0.034 A 
HETATM   17  C   UNL     1     -40.338  52.852 -51.354  1.00  0.00     0.044 A 
HETATM   18  C   UNL     1     -39.681  51.742 -51.863  1.00  0.00     0.116 A 
HETATM   19  F   UNL     1     -39.127  50.857 -51.026  1.00  0.00    -0.206 F 
HETATM   20  C   UNL     1     -39.590  51.540 -53.233  1.00  0.00     0.044 A 
HETATM   21  C   UNL     1     -40.171  52.464 -54.108  1.00  0.00     0.034 A 
ENDBRANCH   7  15
BRANCH   1  22
HETATM   22  C   UNL     1     -44.779  56.371 -59.046  1.00  0.00    -0.008 A 
HETATM   23  C   UNL     1     -44.461  55.537 -60.126  1.00  0.00     0.014 A 
HETATM   24  C   UNL     1     -45.332  55.433 -61.212  1.00  0.00     0.001 A 
HETATM   25  C   UNL     1     -46.522  56.160 -61.223  1.00  0.00     0.000 A 
HETATM   26  C   UNL     1     -46.845  56.990 -60.151  1.00  0.00     0.001 A 
HETATM   27  C   UNL     1     -45.977  57.095 -59.064  1.00  0.00     0.014 A 
ENDBRANCH   1  22
TORSDOF 2
ENDMDL
MODEL 4
REMARK VINA RESULT:      -8.2      3.629      8.164
REMARK  2 active torsions:
REMARK  status: ('A' for Active; 'I' for Inactive)
REMARK    1  A    between atoms: C_4  and  C_5 
REMARK    2  A    between atoms: N_11  and  C_12 
ROOT
HETATM    1  C   UNL     1     -40.902  53.779 -53.731  1.00  0.00     0.069 A 
HETATM    2  N   UNL     1     -41.165  54.035 -55.065  1.00  0.00    -0.343 N 
HETATM    3  C   UNL     1     -41.657  55.239 -55.484  1.00  0.00     0.119 A 
HETATM    4  C   UNL     1     -41.833  56.250 -54.616  1.00  0.00     0.125 A 
HETATM    5  C   UNL     1     -42.283  57.411 -55.401  1.00  0.00     0.280 A 
HETATM    6  O   UNL     1     -42.524  58.514 -54.946  1.00  0.00    -0.265 OA
HETATM    7  N   UNL     1     -42.349  56.957 -56.729  1.00  0.00    -0.236 N 
HETATM    8  N   UNL     1     -41.993  55.593 -56.775  1.00  0.00    -0.179 NA
HETATM    9  C   UNL     1     -41.527  56.090 -53.189  1.00  0.00     0.215 A 
HETATM   10  O   UNL     1     -41.651  57.011 -52.390  1.00  0.00    -0.285 OA
HETATM   11  C   UNL     1     -41.050  54.722 -52.773  1.00  0.00     0.112 A 
HETATM   12 CL   UNL     1     -40.734  54.469 -51.098  1.00  0.00    -0.077 Cl
HETATM   13  H   UNL     1     -41.178  53.253 -55.713  1.00  0.00     0.167 HD
HETATM   14  H   UNL     1     -41.215  55.415 -57.411  1.00  0.00     0.155 HD
ENDROOT
BRANCH   7  15
HETATM   15  C   UNL     1     -42.753  57.638 -57.897  1.00  0.00     0.055 A 
HETATM   16  C   UNL     1     -42.104  57.427 -59.123  1.00  0.00     0.034 A 
HETATM   17  C   UNL     1     -42.517  58.097 -60.280  1.00  0.00     0.044 A 
HETATM   18  C   UNL     1     -43.579  58.987 -60.216  1.00  0.00     0.116 A 
HETATM   19  F   UNL     1     -43.975  59.628 -61.322  1.00  0.00    -0.206 F 
HETATM   20  C   UNL     1     -44.235  59.221 -59.016  1.00  0.00     0.044 A 
HETATM   21  C   UNL     1     -43.823  58.549 -57.861  1.00  0.00     0.034 A 
ENDBRANCH   7  15
BRANCH   1  22
HETATM   22  C   UNL     1     -40.451  52.410 -53.428  1.00  0.00    -0.008 A 
HETATM   23  C   UNL     1     -39.906  52.109 -52.173  1.00  0.00     0.014 A 
HETATM   24  C   UNL     1     -39.489  50.808 -51.884  1.00  0.00     0.001 A 
HETATM   25  C   UNL     1     -39.614  49.806 -52.845  1.00  0.00     0.000 A 
HETATM   26  C   UNL     1     -40.157  50.099 -54.095  1.00  0.00     0.001 A 
HETATM   27  C   UNL     1     -40.576  51.398 -54.386  1.00  0.00     0.014 A 
ENDBRANCH   1  22
TORSDOF 2
ENDMDL
MODEL 5
REMARK VINA RESULT:      -8.1      3.348      5.084
REMARK  2 active torsions:
REMARK  status: ('A' for Active; 'I' for Inactive)
REMARK    1  A    between atoms: C_4  and  C_5 
REMARK    2  A    between atoms: N_11  and  C_12 
ROOT
HETATM    1  C   UNL     1     -43.008  58.258 -52.295  1.00  0.00     0.069 A 
HETATM    2  N   UNL     1     -42.576  57.060 -51.753  1.00  0.00    -0.343 N 
HETATM    3  C   UNL     1     -42.086  56.052 -52.533  1.00  0.00     0.119 A 
HETATM    4  C   UNL     1     -41.934  56.218 -53.858  1.00  0.00     0.125 A 
HETATM    5  C   UNL     1     -41.307  54.990 -54.372  1.00  0.00     0.280 A 
HETATM    6  O   UNL     1     -41.002  54.793 -55.534  1.00  0.00    -0.265 OA
HETATM    7  N   UNL     1     -41.147  54.159 -53.252  1.00  0.00    -0.236 N 
HETATM    8  N   UNL     1     -41.666  54.806 -52.110  1.00  0.00    -0.179 NA
HETATM    9  C   UNL     1     -42.311  57.476 -54.515  1.00  0.00     0.215 A 
HETATM   10  O   UNL     1     -42.149  57.657 -55.716  1.00  0.00    -0.285 OA
HETATM   11  C   UNL     1     -42.907  58.529 -53.616  1.00  0.00     0.112 A 
HETATM   12 CL   UNL     1     -43.419  60.001 -54.352  1.00  0.00    -0.077 Cl
HETATM   13  H   UNL     1     -42.812  56.856 -50.786  1.00  0.00     0.167 HD
HETATM   14  H   UNL     1     -40.975  54.893 -51.365  1.00  0.00     0.155 HD
ENDROOT
BRANCH   7  15
HETATM   15  C   UNL     1     -40.630  52.849 -53.166  1.00  0.00     0.055 A 
HETATM   16  C   UNL     1     -40.702  51.965 -54.254  1.00  0.00     0.034 A 
HETATM   17  C   UNL     1     -40.176  50.671 -54.165  1.00  0.00     0.044 A 
HETATM   18  C   UNL     1     -39.578  50.252 -52.986  1.00  0.00     0.116 A 
HETATM   19  F   UNL     1     -39.075  49.015 -52.901  1.00  0.00    -0.206 F 
HETATM   20  C   UNL     1     -39.498  51.101 -51.892  1.00  0.00     0.044 A 
HETATM   21  C   UNL     1     -40.022  52.395 -51.982  1.00  0.00     0.034 A 
ENDBRANCH   7  15
BRANCH   1  22
HETATM   22  C   UNL     1     -43.584  59.214 -51.335  1.00  0.00    -0.008 A 
HETATM   23  C   UNL     1     -42.789  60.227 -50.785  1.00  0.00     0.014 A 
HETATM   24  C   UNL     1     -43.340  61.139 -49.883  1.00  0.00     0.001 A 
HETATM   25  C   UNL     1     -44.684  61.043 -49.527  1.00  0.00     0.000 A 
HETATM   26  C   UNL     1     -45.482  60.039 -50.073  1.00  0.00     0.001 A 
HETATM   27  C   UNL     1     -44.934  59.126 -50.976  1.00  0.00     0.014 A 
ENDBRANCH   1  22
TORSDOF 2
ENDMDL
MODEL 6
REMARK VINA RESULT:      -8.1      3.483      8.066
REMARK  2 active torsions:
REMARK  status: ('A' for Active; 'I' for Inactive)
REMARK    1  A    between atoms: C_4  and  C_5 
REMARK    2  A    between atoms: N_11  and  C_12 
ROOT
HETATM    1  C   UNL     1     -41.777  54.456 -53.940  1.00  0.00     0.069 A 
HETATM    2  N   UNL     1     -41.489  54.920 -55.212  1.00  0.00    -0.343 N 
HETATM    3  C   UNL     1     -42.178  55.958 -55.772  1.00  0.00     0.119 A 
HETATM    4  C   UNL     1     -43.115  56.620 -55.072  1.00  0.00     0.125 A 
HETATM    5  C   UNL     1     -43.587  57.720 -55.928  1.00  0.00     0.280 A 
HETATM    6  O   UNL     1     -44.428  58.543 -55.612  1.00  0.00    -0.265 OA
HETATM    7  N   UNL     1     -42.860  57.598 -57.123  1.00  0.00    -0.236 N 
HETATM    8  N   UNL     1     -42.007  56.478 -57.040  1.00  0.00    -0.179 NA
HETATM    9  C   UNL     1     -43.449  56.236 -53.695  1.00  0.00     0.215 A 
HETATM   10  O   UNL     1     -44.277  56.848 -53.031  1.00  0.00    -0.285 OA
HETATM   11  C   UNL     1     -42.704  55.042 -53.151  1.00  0.00     0.112 A 
HETATM   12 CL   UNL     1     -43.104  54.518 -51.559  1.00  0.00    -0.077 Cl
HETATM   13  H   UNL     1     -40.894  54.353 -55.809  1.00  0.00     0.167 HD
HETATM   14  H   UNL     1     -41.029  56.721 -57.200  1.00  0.00     0.155 HD
ENDROOT
BRANCH   7  15
HETATM   15  C   UNL     1     -42.931  58.366 -58.305  1.00  0.00     0.055 A 
HETATM   16  C   UNL     1     -43.714  57.953 -59.395  1.00  0.00     0.034 A 
HETATM   17  C   UNL     1     -43.788  58.725 -60.560  1.00  0.00     0.044 A 
HETATM   18  C   UNL     1     -43.077  59.913 -60.643  1.00  0.00     0.116 A 
HETATM   19  F   UNL     1     -43.147  60.652 -61.757  1.00  0.00    -0.206 F 
HETATM   20  C   UNL     1     -42.290  60.343 -59.584  1.00  0.00     0.044 A 
HETATM   21  C   UNL     1     -42.217  59.571 -58.420  1.00  0.00     0.034 A 
ENDBRANCH   7  15
BRANCH   1  22
HETATM   22  C   UNL     1     -41.003  53.279 -53.507  1.00  0.00    -0.008 A 
HETATM   23  C   UNL     1     -40.869  52.173 -54.355  1.00  0.00     0.014 A 
HETATM   24  C   UNL     1     -40.127  51.063 -53.948  1.00  0.00     0.001 A 
HETATM   25  C   UNL     1     -39.518  51.054 -52.693  1.00  0.00     0.000 A 
HETATM   26  C   UNL     1     -39.646  52.153 -51.846  1.00  0.00     0.001 A 
HETATM   27  C   UNL     1     -40.386  53.264 -52.251  1.00  0.00     0.014 A 
ENDBRANCH   1  22
TORSDOF 2
ENDMDL
MODEL 7
REMARK VINA RESULT:      -8.0      4.107      5.454
REMARK  2 active torsions:
REMARK  status: ('A' for Active; 'I' for Inactive)
REMARK    1  A    between atoms: C_4  and  C_5 
REMARK    2  A    between atoms: N_11  and  C_12 
ROOT
HETATM    1  C   UNL     1     -43.747  59.211 -51.466  1.00  0.00     0.069 A 
HETATM    2  N   UNL     1     -42.810  58.313 -50.985  1.00  0.00    -0.343 N 
HETATM    3  C   UNL     1     -42.672  57.062 -51.516  1.00  0.00     0.119 A 
HETATM    4  C   UNL     1     -43.396  56.684 -52.582  1.00  0.00     0.125 A 
HETATM    5  C   UNL     1     -42.942  55.332 -52.947  1.00  0.00     0.280 A 
HETATM    6  O   UNL     1     -43.366  54.679 -53.883  1.00  0.00    -0.265 OA
HETATM    7  N   UNL     1     -41.948  55.010 -52.009  1.00  0.00    -0.236 N 
HETATM    8  N   UNL     1     -41.804  56.075 -51.094  1.00  0.00    -0.179 NA
HETATM    9  C   UNL     1     -44.376  57.588 -53.198  1.00  0.00     0.215 A 
HETATM   10  O   UNL     1     -45.021  57.271 -54.190  1.00  0.00    -0.285 OA
HETATM   11  C   UNL     1     -44.533  58.931 -52.530  1.00  0.00     0.112 A 
HETATM   12 CL   UNL     1     -45.713  60.005 -53.181  1.00  0.00    -0.077 Cl
HETATM   13  H   UNL     1     -42.357  58.519 -50.099  1.00  0.00     0.167 HD
HETATM   14  H   UNL     1     -40.848  56.428 -51.056  1.00  0.00     0.155 HD
ENDROOT
BRANCH   7  15
HETATM   15  C   UNL     1     -41.194  53.825 -51.862  1.00  0.00     0.055 A 
HETATM   16  C   UNL     1     -41.005  53.235 -50.603  1.00  0.00     0.034 A 
HETATM   17  C   UNL     1     -40.266  52.054 -50.466  1.00  0.00     0.044 A 
HETATM   18  C   UNL     1     -39.710  51.459 -51.588  1.00  0.00     0.116 A 
HETATM   19  F   UNL     1     -39.003  50.329 -51.459  1.00  0.00    -0.206 F 
HETATM   20  C   UNL     1     -39.875  52.023 -52.845  1.00  0.00     0.044 A 
HETATM   21  C   UNL     1     -40.615  53.202 -52.981  1.00  0.00     0.034 A 
ENDBRANCH   7  15
BRANCH   1  22
HETATM   22  C   UNL     1     -43.830  60.488 -50.739  1.00  0.00    -0.008 A 
HETATM   23  C   UNL     1     -42.929  61.522 -51.024  1.00  0.00     0.014 A 
HETATM   24  C   UNL     1     -43.015  62.736 -50.340  1.00  0.00     0.001 A 
HETATM   25  C   UNL     1     -44.000  62.922 -49.371  1.00  0.00     0.000 A 
HETATM   26  C   UNL     1     -44.901  61.899 -49.084  1.00  0.00     0.001 A 
HETATM   27  C   UNL     1     -44.818  60.684 -49.766  1.00  0.00     0.014 A 
ENDBRANCH   1  22
TORSDOF 2
ENDMDL
MODEL 8
REMARK VINA RESULT:      -7.7      4.931      8.505
REMARK  2 active torsions:
REMARK  status: ('A' for Active; 'I' for Inactive)
REMARK    1  A    between atoms: C_4  and  C_5 
REMARK    2  A    between atoms: N_11  and  C_12 
ROOT
HETATM    1  C   UNL     1     -41.056  54.396 -52.757  1.00  0.00     0.069 A 
HETATM    2  N   UNL     1     -41.631  55.133 -51.736  1.00  0.00    -0.343 N 
HETATM    3  C   UNL     1     -42.089  56.404 -51.936  1.00  0.00     0.119 A 
HETATM    4  C   UNL     1     -42.065  56.960 -53.159  1.00  0.00     0.125 A 
HETATM    5  C   UNL     1     -42.706  58.280 -53.039  1.00  0.00     0.280 A 
HETATM    6  O   UNL     1     -42.879  59.061 -53.957  1.00  0.00    -0.265 OA
HETATM    7  N   UNL     1     -43.057  58.399 -51.684  1.00  0.00    -0.236 N 
HETATM    8  N   UNL     1     -42.640  57.245 -50.989  1.00  0.00    -0.179 NA
HETATM    9  C   UNL     1     -41.527  56.233 -54.315  1.00  0.00     0.215 A 
HETATM   10  O   UNL     1     -41.527  56.712 -55.443  1.00  0.00    -0.285 OA
HETATM   11  C   UNL     1     -40.975  54.860 -54.023  1.00  0.00     0.112 A 
HETATM   12 CL   UNL     1     -40.279  53.991 -55.339  1.00  0.00    -0.077 Cl
HETATM   13  H   UNL     1     -41.530  54.796 -50.783  1.00  0.00     0.167 HD
HETATM   14  H   UNL     1     -43.410  56.784 -50.504  1.00  0.00     0.155 HD
ENDROOT
BRANCH   7  15
HETATM   15  C   UNL     1     -43.668  59.472 -51.001  1.00  0.00     0.055 A 
HETATM   16  C   UNL     1     -42.917  60.565 -50.542  1.00  0.00     0.034 A 
HETATM   17  C   UNL     1     -43.531  61.631 -49.876  1.00  0.00     0.044 A 
HETATM   18  C   UNL     1     -44.901  61.609 -49.661  1.00  0.00     0.116 A 
HETATM   19  F   UNL     1     -45.490  62.628 -49.024  1.00  0.00    -0.206 F 
HETATM   20  C   UNL     1     -45.669  60.539 -50.098  1.00  0.00     0.044 A 
HETATM   21  C   UNL     1     -45.054  59.475 -50.766  1.00  0.00     0.034 A 
ENDBRANCH   7  15
BRANCH   1  22
HETATM   22  C   UNL     1     -40.539  53.073 -52.367  1.00  0.00    -0.008 A 
HETATM   23  C   UNL     1     -40.128  52.160 -53.345  1.00  0.00     0.014 A 
HETATM   24  C   UNL     1     -39.628  50.910 -52.973  1.00  0.00     0.001 A 
HETATM   25  C   UNL     1     -39.537  50.569 -51.625  1.00  0.00     0.000 A 
HETATM   26  C   UNL     1     -39.943  51.475 -50.645  1.00  0.00     0.001 A 
HETATM   27  C   UNL     1     -40.442  52.725 -51.014  1.00  0.00     0.014 A 
ENDBRANCH   1  22
TORSDOF 2
ENDMDL
MODEL 9
REMARK VINA RESULT:      -7.6      5.081      6.262
REMARK  2 active torsions:
REMARK  status: ('A' for Active; 'I' for Inactive)
REMARK    1  A    between atoms: C_4  and  C_5 
REMARK    2  A    between atoms: N_11  and  C_12 
ROOT
HETATM    1  C   UNL     1     -43.159  60.626 -51.368  1.00  0.00     0.069 A 
HETATM    2  N   UNL     1     -42.965  59.446 -50.672  1.00  0.00    -0.343 N 
HETATM    3  C   UNL     1     -42.365  58.361 -51.246  1.00  0.00     0.119 A 
HETATM    4  C   UNL     1     -41.871  58.428 -52.494  1.00  0.00     0.125 A 
HETATM    5  C   UNL     1     -41.223  57.134 -52.765  1.00  0.00     0.280 A 
HETATM    6  O   UNL     1     -40.648  56.841 -53.797  1.00  0.00    -0.265 OA
HETATM    7  N   UNL     1     -41.413  56.374 -51.599  1.00  0.00    -0.236 N 
HETATM    8  N   UNL     1     -42.156  57.126 -50.665  1.00  0.00    -0.179 NA
HETATM    9  C   UNL     1     -41.979  59.657 -53.290  1.00  0.00     0.215 A 
HETATM   10  O   UNL     1     -41.505  59.746 -54.417  1.00  0.00    -0.285 OA
HETATM   11  C   UNL     1     -42.707  60.800 -52.630  1.00  0.00     0.112 A 
HETATM   12 CL   UNL     1     -42.910  62.245 -53.549  1.00  0.00    -0.077 Cl
HETATM   13  H   UNL     1     -43.452  59.322 -49.789  1.00  0.00     0.167 HD
HETATM   14  H   UNL     1     -41.672  57.225 -49.773  1.00  0.00     0.155 HD
ENDROOT
BRANCH   7  15
HETATM   15  C   UNL     1     -41.028  55.046 -51.315  1.00  0.00     0.055 A 
HETATM   16  C   UNL     1     -41.021  54.061 -52.315  1.00  0.00     0.034 A 
HETATM   17  C   UNL     1     -40.627  52.749 -52.029  1.00  0.00     0.044 A 
HETATM   18  C   UNL     1     -40.243  52.414 -50.739  1.00  0.00     0.116 A 
HETATM   19  F   UNL     1     -39.866  51.159 -50.465  1.00  0.00    -0.206 F 
HETATM   20  C   UNL     1     -40.246  53.364 -49.729  1.00  0.00     0.044 A 
HETATM   21  C   UNL     1     -40.638  54.676 -50.016  1.00  0.00     0.034 A 
ENDBRANCH   7  15
BRANCH   1  22
HETATM   22  C   UNL     1     -43.890  61.677 -50.640  1.00  0.00    -0.008 A 
HETATM   23  C   UNL     1     -45.274  61.573 -50.454  1.00  0.00     0.014 A 
HETATM   24  C   UNL     1     -45.964  62.564 -49.754  1.00  0.00     0.001 A 
HETATM   25  C   UNL     1     -45.276  63.662 -49.239  1.00  0.00     0.000 A 
HETATM   26  C   UNL     1     -43.898  63.770 -49.418  1.00  0.00     0.001 A 
HETATM   27  C   UNL     1     -43.205  62.780 -50.117  1.00  0.00     0.014 A 
ENDBRANCH   1  22
TORSDOF 2
ENDMDL
MODEL 10
REMARK VINA RESULT:      -7.6      3.511      3.961
REMARK  2 active torsions:
REMARK  status: ('A' for Active; 'I' for Inactive)
REMARK    1  A    between atoms: C_4  and  C_5 
REMARK    2  A    between atoms: N_11  and  C_12 
ROOT
HETATM    1  C   UNL     1     -42.524  58.287 -52.677  1.00  0.00     0.069 A 
HETATM    2  N   UNL     1     -42.341  57.063 -53.298  1.00  0.00    -0.343 N 
HETATM    3  C   UNL     1     -41.649  56.049 -52.700  1.00  0.00     0.119 A 
HETATM    4  C   UNL     1     -41.181  56.179 -51.447  1.00  0.00     0.125 A 
HETATM    5  C   UNL     1     -40.573  54.889 -51.083  1.00  0.00     0.280 A 
HETATM    6  O   UNL     1     -40.063  54.634 -50.007  1.00  0.00    -0.265 OA
HETATM    7  N   UNL     1     -40.732  54.073 -52.215  1.00  0.00    -0.236 N 
HETATM    8  N   UNL     1     -41.371  54.807 -53.236  1.00  0.00    -0.179 NA
HETATM    9  C   UNL     1     -41.376  57.421 -50.687  1.00  0.00     0.215 A 
HETATM   10  O   UNL     1     -40.984  57.546 -49.533  1.00  0.00    -0.285 OA
HETATM   11  C   UNL     1     -42.089  58.529 -51.420  1.00  0.00     0.112 A 
HETATM   12 CL   UNL     1     -42.290  60.026 -50.590  1.00  0.00    -0.077 Cl
HETATM   13  H   UNL     1     -42.556  56.988 -54.288  1.00  0.00     0.167 HD
HETATM   14  H   UNL     1     -42.226  54.356 -53.562  1.00  0.00     0.155 HD
ENDROOT
BRANCH   7  15
HETATM   15  C   UNL     1     -40.308  52.745 -52.437  1.00  0.00     0.055 A 
HETATM   16  C   UNL     1     -39.893  51.927 -51.375  1.00  0.00     0.034 A 
HETATM   17  C   UNL     1     -39.485  50.608 -51.601  1.00  0.00     0.044 A 
HETATM   18  C   UNL     1     -39.485  50.100 -52.892  1.00  0.00     0.116 A 
HETATM   19  F   UNL     1     -39.094  48.838 -53.109  1.00  0.00    -0.206 F 
HETATM   20  C   UNL     1     -39.883  50.888 -53.962  1.00  0.00     0.044 A 
HETATM   21  C   UNL     1     -40.293  52.206 -53.735  1.00  0.00     0.034 A 
ENDBRANCH   7  15
BRANCH   1  22
HETATM   22  C   UNL     1     -43.222  59.304 -53.480  1.00  0.00    -0.008 A 
HETATM   23  C   UNL     1     -44.622  59.351 -53.498  1.00  0.00     0.014 A 
HETATM   24  C   UNL     1     -45.282  60.323 -54.252  1.00  0.00     0.001 A 
HETATM   25  C   UNL     1     -44.548  61.250 -54.990  1.00  0.00     0.000 A 
HETATM   26  C   UNL     1     -43.155  61.211 -54.975  1.00  0.00     0.001 A 
HETATM   27  C   UNL     1     -42.492  60.241 -54.221  1.00  0.00     0.014 A 
ENDBRANCH   1  22
TORSDOF 2
ENDMDL
