MODEL 1
REMARK VINA RESULT:      -8.9      0.000      0.000
REMARK  1 active torsions:
REMARK  status: ('A' for Active; 'I' for Inactive)
REMARK    1  A    between atoms: C_6  and  N_7 
ROOT
HETATM    1  N   UNL     1     -42.386  55.237 -52.539  1.00  0.00    -0.320 N 
HETATM    2  C   UNL     1     -43.455  55.247 -51.584  1.00  0.00     0.141 C 
HETATM    3  N   UNL     1     -44.096  54.165 -51.242  1.00  0.00    -0.380 N 
HETATM    4  H   UNL     1     -43.830  53.286 -51.664  1.00  0.00     0.158 HD
HETATM    5  H   UNL     1     -44.850  54.219 -50.573  1.00  0.00     0.158 HD
HETATM    6  S   UNL     1     -43.809  56.821 -50.967  1.00  0.00    -0.086 SA
HETATM    7  C   UNL     1     -42.784  57.572 -52.270  1.00  0.00     0.093 C 
HETATM    8  C   UNL     1     -41.672  56.527 -52.505  1.00  0.00     0.121 C 
HETATM    9  C   UNL     1     -42.057  58.879 -52.070  1.00  0.00     0.158 C 
HETATM   10  S   UNL     1     -40.806  58.792 -53.369  1.00  0.00     0.147 S 
HETATM   11  O   UNL     1     -41.279  59.539 -54.513  1.00  0.00    -0.228 OA
HETATM   12  O   UNL     1     -39.511  59.020 -52.766  1.00  0.00    -0.228 OA
HETATM   13  C   UNL     1     -40.961  57.033 -53.738  1.00  0.00     0.167 C 
ENDROOT
BRANCH   1  14
HETATM   14  C   UNL     1     -41.604  54.110 -52.864  1.00  0.00     0.048 A 
HETATM   15  C   UNL     1     -41.796  53.483 -54.118  1.00  0.00    -0.034 A 
HETATM   16  C   UNL     1     -41.036  52.352 -54.460  1.00  0.00     0.015 A 
HETATM   17  C   UNL     1     -42.784  53.985 -55.140  1.00  0.00     0.050 C 
HETATM   18  C   UNL     1     -40.110  51.808 -53.571  1.00  0.00    -0.061 A 
HETATM   19  C   UNL     1     -39.349  50.563 -53.926  1.00  0.00     0.048 C 
HETATM   20  C   UNL     1     -39.955  52.399 -52.316  1.00  0.00     0.015 A 
HETATM   21  C   UNL     1     -40.677  53.551 -51.953  1.00  0.00    -0.034 A 
HETATM   22  C   UNL     1     -40.460  54.081 -50.559  1.00  0.00     0.050 C 
ENDBRANCH   1  14
TORSDOF 1
ENDMDL
MODEL 2
REMARK VINA RESULT:      -8.5      0.123      1.955
REMARK  1 active torsions:
REMARK  status: ('A' for Active; 'I' for Inactive)
REMARK    1  A    between atoms: C_6  and  N_7 
ROOT
HETATM    1  N   UNL     1     -42.489  55.308 -52.526  1.00  0.00    -0.320 N 
HETATM    2  C   UNL     1     -43.540  55.344 -51.552  1.00  0.00     0.141 C 
HETATM    3  N   UNL     1     -44.202  54.278 -51.200  1.00  0.00    -0.380 N 
HETATM    4  H   UNL     1     -43.967  53.393 -51.629  1.00  0.00     0.158 HD
HETATM    5  H   UNL     1     -44.943  54.351 -50.518  1.00  0.00     0.158 HD
HETATM    6  S   UNL     1     -43.842  56.925 -50.926  1.00  0.00    -0.086 SA
HETATM    7  C   UNL     1     -42.822  57.653 -52.246  1.00  0.00     0.093 C 
HETATM    8  C   UNL     1     -41.741  56.580 -52.503  1.00  0.00     0.121 C 
HETATM    9  C   UNL     1     -42.057  58.939 -52.057  1.00  0.00     0.158 C 
HETATM   10  S   UNL     1     -40.832  58.824 -53.378  1.00  0.00     0.147 S 
HETATM   11  O   UNL     1     -41.306  59.585 -54.512  1.00  0.00    -0.228 OA
HETATM   12  O   UNL     1     -39.521  59.017 -52.799  1.00  0.00    -0.228 OA
HETATM   13  C   UNL     1     -41.040  57.070 -53.748  1.00  0.00     0.167 C 
ENDROOT
BRANCH   1  14
HETATM   14  C   UNL     1     -41.743  54.162 -52.868  1.00  0.00     0.048 A 
HETATM   15  C   UNL     1     -40.789  53.666 -51.948  1.00  0.00    -0.034 A 
HETATM   16  C   UNL     1     -40.027  52.531 -52.272  1.00  0.00     0.015 A 
HETATM   17  C   UNL     1     -40.552  54.294 -50.599  1.00  0.00     0.050 C 
HETATM   18  C   UNL     1     -40.166  51.895 -53.505  1.00  0.00    -0.061 A 
HETATM   19  C   UNL     1     -39.302  50.720 -53.862  1.00  0.00     0.048 C 
HETATM   20  C   UNL     1     -41.075  52.412 -54.430  1.00  0.00     0.015 A 
HETATM   21  C   UNL     1     -41.877  53.528 -54.127  1.00  0.00    -0.034 A 
HETATM   22  C   UNL     1     -42.793  54.027 -55.215  1.00  0.00     0.050 C 
ENDBRANCH   1  14
TORSDOF 1
ENDMDL
MODEL 3
REMARK VINA RESULT:      -7.2      1.766      2.119
REMARK  1 active torsions:
REMARK  status: ('A' for Active; 'I' for Inactive)
REMARK    1  A    between atoms: C_6  and  N_7 
ROOT
HETATM    1  N   UNL     1     -42.446  55.516 -53.646  1.00  0.00    -0.320 N 
HETATM    2  C   UNL     1     -43.681  55.376 -54.361  1.00  0.00     0.141 C 
HETATM    3  N   UNL     1     -44.032  54.262 -54.938  1.00  0.00    -0.380 N 
HETATM    4  H   UNL     1     -43.411  53.466 -54.880  1.00  0.00     0.158 HD
HETATM    5  H   UNL     1     -44.906  54.211 -55.439  1.00  0.00     0.158 HD
HETATM    6  S   UNL     1     -44.624  56.824 -54.391  1.00  0.00    -0.086 SA
HETATM    7  C   UNL     1     -43.200  57.775 -53.774  1.00  0.00     0.093 C 
HETATM    8  C   UNL     1     -42.457  56.769 -52.868  1.00  0.00     0.121 C 
HETATM    9  C   UNL     1     -43.365  59.014 -52.929  1.00  0.00     0.158 C 
HETATM   10  S   UNL     1     -41.738  59.136 -52.156  1.00  0.00     0.147 S 
HETATM   11  O   UNL     1     -40.940  60.079 -52.908  1.00  0.00    -0.228 OA
HETATM   12  O   UNL     1     -41.923  59.234 -50.724  1.00  0.00    -0.228 OA
HETATM   13  C   UNL     1     -41.160  57.471 -52.543  1.00  0.00     0.167 C 
ENDROOT
BRANCH   1  14
HETATM   14  C   UNL     1     -41.711  54.451 -53.088  1.00  0.00     0.048 A 
HETATM   15  C   UNL     1     -40.669  53.867 -53.846  1.00  0.00    -0.034 A 
HETATM   16  C   UNL     1     -39.929  52.797 -53.315  1.00  0.00     0.015 A 
HETATM   17  C   UNL     1     -40.288  54.353 -55.222  1.00  0.00     0.050 C 
HETATM   18  C   UNL     1     -40.222  52.271 -52.057  1.00  0.00    -0.061 A 
HETATM   19  C   UNL     1     -39.464  51.088 -51.527  1.00  0.00     0.048 C 
HETATM   20  C   UNL     1     -41.280  52.817 -51.329  1.00  0.00     0.015 A 
HETATM   21  C   UNL     1     -42.021  53.909 -51.818  1.00  0.00    -0.034 A 
HETATM   22  C   UNL     1     -43.168  54.393 -50.967  1.00  0.00     0.050 C 
ENDBRANCH   1  14
TORSDOF 1
ENDMDL
MODEL 4
REMARK VINA RESULT:      -6.3      2.847      4.428
REMARK  1 active torsions:
REMARK  status: ('A' for Active; 'I' for Inactive)
REMARK    1  A    between atoms: C_6  and  N_7 
ROOT
HETATM    1  N   UNL     1     -41.732  58.035 -51.228  1.00  0.00    -0.320 N 
HETATM    2  C   UNL     1     -40.765  59.022 -50.846  1.00  0.00     0.141 C 
HETATM    3  N   UNL     1     -39.494  58.754 -50.753  1.00  0.00    -0.380 N 
HETATM    4  H   UNL     1     -39.176  57.817 -50.958  1.00  0.00     0.158 HD
HETATM    5  H   UNL     1     -38.849  59.477 -50.470  1.00  0.00     0.158 HD
HETATM    6  S   UNL     1     -41.459  60.568 -50.507  1.00  0.00    -0.086 SA
HETATM    7  C   UNL     1     -43.123  59.827 -50.492  1.00  0.00     0.093 C 
HETATM    8  C   UNL     1     -43.022  58.687 -51.528  1.00  0.00     0.121 C 
HETATM    9  C   UNL     1     -44.353  60.605 -50.886  1.00  0.00     0.158 C 
HETATM   10  S   UNL     1     -45.514  59.272 -51.256  1.00  0.00     0.147 S 
HETATM   11  O   UNL     1     -46.349  59.055 -50.096  1.00  0.00    -0.228 OA
HETATM   12  O   UNL     1     -46.054  59.496 -52.579  1.00  0.00    -0.228 OA
HETATM   13  C   UNL     1     -44.315  57.927 -51.349  1.00  0.00     0.167 C 
ENDROOT
BRANCH   1  14
HETATM   14  C   UNL     1     -41.447  56.867 -51.964  1.00  0.00     0.048 A 
HETATM   15  C   UNL     1     -41.326  55.637 -51.276  1.00  0.00    -0.034 A 
HETATM   16  C   UNL     1     -41.031  54.462 -51.988  1.00  0.00     0.015 A 
HETATM   17  C   UNL     1     -41.517  55.512 -49.786  1.00  0.00     0.050 C 
HETATM   18  C   UNL     1     -40.822  54.485 -53.366  1.00  0.00    -0.061 A 
HETATM   19  C   UNL     1     -40.448  53.232 -54.104  1.00  0.00     0.048 C 
HETATM   20  C   UNL     1     -40.897  55.707 -54.037  1.00  0.00     0.015 A 
HETATM   21  C   UNL     1     -41.220  56.898 -53.361  1.00  0.00    -0.034 A 
HETATM   22  C   UNL     1     -41.233  58.165 -54.177  1.00  0.00     0.050 C 
ENDBRANCH   1  14
TORSDOF 1
ENDMDL
MODEL 5
REMARK VINA RESULT:      -6.3      2.269      2.937
REMARK  1 active torsions:
REMARK  status: ('A' for Active; 'I' for Inactive)
REMARK    1  A    between atoms: C_6  and  N_7 
ROOT
HETATM    1  N   UNL     1     -43.637  57.108 -53.178  1.00  0.00    -0.320 N 
HETATM    2  C   UNL     1     -44.600  57.648 -52.264  1.00  0.00     0.141 C 
HETATM    3  N   UNL     1     -45.034  56.982 -51.232  1.00  0.00    -0.380 N 
HETATM    4  H   UNL     1     -44.679  56.050 -51.068  1.00  0.00     0.158 HD
HETATM    5  H   UNL     1     -45.721  57.397 -50.620  1.00  0.00     0.158 HD
HETATM    6  S   UNL     1     -45.129  59.238 -52.685  1.00  0.00    -0.086 SA
HETATM    7  C   UNL     1     -44.358  59.069 -54.326  1.00  0.00     0.093 C 
HETATM    8  C   UNL     1     -43.127  58.176 -54.058  1.00  0.00     0.121 C 
HETATM    9  C   UNL     1     -43.821  60.255 -55.089  1.00  0.00     0.158 C 
HETATM   10  S   UNL     1     -42.701  59.450 -56.254  1.00  0.00     0.147 S 
HETATM   11  O   UNL     1     -43.388  59.288 -57.516  1.00  0.00    -0.228 OA
HETATM   12  O   UNL     1     -41.404  60.082 -56.144  1.00  0.00    -0.228 OA
HETATM   13  C   UNL     1     -42.622  57.841 -55.442  1.00  0.00     0.167 C 
ENDROOT
BRANCH   1  14
HETATM   14  C   UNL     1     -42.728  56.073 -52.875  1.00  0.00     0.048 A 
HETATM   15  C   UNL     1     -42.884  54.817 -53.508  1.00  0.00    -0.034 A 
HETATM   16  C   UNL     1     -41.997  53.769 -53.214  1.00  0.00     0.015 A 
HETATM   17  C   UNL     1     -43.968  54.542 -54.519  1.00  0.00     0.050 C 
HETATM   18  C   UNL     1     -40.975  53.928 -52.280  1.00  0.00    -0.061 A 
HETATM   19  C   UNL     1     -40.072  52.780 -51.931  1.00  0.00     0.048 C 
HETATM   20  C   UNL     1     -40.850  55.153 -51.622  1.00  0.00     0.015 A 
HETATM   21  C   UNL     1     -41.701  56.234 -51.915  1.00  0.00    -0.034 A 
HETATM   22  C   UNL     1     -41.503  57.496 -51.115  1.00  0.00     0.050 C 
ENDBRANCH   1  14
TORSDOF 1
ENDMDL
MODEL 6
REMARK VINA RESULT:      -6.1     15.767     17.603
REMARK  1 active torsions:
REMARK  status: ('A' for Active; 'I' for Inactive)
REMARK    1  A    between atoms: C_6  and  N_7 
ROOT
HETATM    1  N   UNL     1     -34.282  39.742 -55.742  1.00  0.00    -0.320 N 
HETATM    2  C   UNL     1     -32.866  39.935 -55.635  1.00  0.00     0.141 C 
HETATM    3  N   UNL     1     -32.126  40.258 -56.658  1.00  0.00    -0.380 N 
HETATM    4  H   UNL     1     -32.566  40.378 -57.560  1.00  0.00     0.158 HD
HETATM    5  H   UNL     1     -31.130  40.374 -56.539  1.00  0.00     0.158 HD
HETATM    6  S   UNL     1     -32.257  39.675 -54.039  1.00  0.00    -0.086 SA
HETATM    7  C   UNL     1     -33.837  38.915 -53.550  1.00  0.00     0.093 C 
HETATM    8  C   UNL     1     -34.882  39.675 -54.396  1.00  0.00     0.121 C 
HETATM    9  C   UNL     1     -34.358  38.981 -52.136  1.00  0.00     0.158 C 
HETATM   10  S   UNL     1     -36.113  38.638 -52.387  1.00  0.00     0.147 S 
HETATM   11  O   UNL     1     -36.350  37.236 -52.125  1.00  0.00    -0.228 OA
HETATM   12  O   UNL     1     -36.875  39.693 -51.754  1.00  0.00    -0.228 OA
HETATM   13  C   UNL     1     -36.157  38.896 -54.172  1.00  0.00     0.167 C 
ENDROOT
BRANCH   1  14
HETATM   14  C   UNL     1     -35.098  40.289 -56.753  1.00  0.00     0.048 A 
HETATM   15  C   UNL     1     -35.482  39.470 -57.842  1.00  0.00    -0.034 A 
HETATM   16  C   UNL     1     -36.286  39.997 -58.866  1.00  0.00     0.015 A 
HETATM   17  C   UNL     1     -35.079  38.022 -57.956  1.00  0.00     0.050 C 
HETATM   18  C   UNL     1     -36.692  41.331 -58.852  1.00  0.00    -0.061 A 
HETATM   19  C   UNL     1     -37.500  41.897 -59.984  1.00  0.00     0.048 C 
HETATM   20  C   UNL     1     -36.275  42.150 -57.801  1.00  0.00     0.015 A 
HETATM   21  C   UNL     1     -35.496  41.647 -56.743  1.00  0.00    -0.034 A 
HETATM   22  C   UNL     1     -35.067  42.630 -55.683  1.00  0.00     0.050 C 
ENDBRANCH   1  14
TORSDOF 1
ENDMDL
MODEL 7
REMARK VINA RESULT:      -6.1      2.246      3.772
REMARK  1 active torsions:
REMARK  status: ('A' for Active; 'I' for Inactive)
REMARK    1  A    between atoms: C_6  and  N_7 
ROOT
HETATM    1  N   UNL     1     -42.744  56.290 -52.931  1.00  0.00    -0.320 N 
HETATM    2  C   UNL     1     -43.003  55.187 -52.052  1.00  0.00     0.141 C 
HETATM    3  N   UNL     1     -43.715  54.158 -52.413  1.00  0.00    -0.380 N 
HETATM    4  H   UNL     1     -44.100  54.134 -53.348  1.00  0.00     0.158 HD
HETATM    5  H   UNL     1     -43.881  53.409 -51.758  1.00  0.00     0.158 HD
HETATM    6  S   UNL     1     -42.300  55.380 -50.485  1.00  0.00    -0.086 SA
HETATM    7  C   UNL     1     -41.964  57.133 -50.842  1.00  0.00     0.093 C 
HETATM    8  C   UNL     1     -41.689  57.148 -52.361  1.00  0.00     0.121 C 
HETATM    9  C   UNL     1     -40.801  57.871 -50.227  1.00  0.00     0.158 C 
HETATM   10  S   UNL     1     -40.627  59.268 -51.357  1.00  0.00     0.147 S 
HETATM   11  O   UNL     1     -41.308  60.409 -50.786  1.00  0.00    -0.228 OA
HETATM   12  O   UNL     1     -39.253  59.320 -51.806  1.00  0.00    -0.228 OA
HETATM   13  C   UNL     1     -41.642  58.619 -52.701  1.00  0.00     0.167 C 
ENDROOT
BRANCH   1  14
HETATM   14  C   UNL     1     -42.794  56.229 -54.339  1.00  0.00     0.048 A 
HETATM   15  C   UNL     1     -43.846  56.892 -55.015  1.00  0.00    -0.034 A 
HETATM   16  C   UNL     1     -43.923  56.836 -56.417  1.00  0.00     0.015 A 
HETATM   17  C   UNL     1     -44.905  57.688 -54.296  1.00  0.00     0.050 C 
HETATM   18  C   UNL     1     -42.996  56.110 -57.163  1.00  0.00    -0.061 A 
HETATM   19  C   UNL     1     -43.126  56.009 -58.655  1.00  0.00     0.048 C 
HETATM   20  C   UNL     1     -41.986  55.418 -56.492  1.00  0.00     0.015 A 
HETATM   21  C   UNL     1     -41.861  55.478 -55.091  1.00  0.00    -0.034 A 
HETATM   22  C   UNL     1     -40.758  54.660 -54.469  1.00  0.00     0.050 C 
ENDBRANCH   1  14
TORSDOF 1
ENDMDL
MODEL 8
REMARK VINA RESULT:      -6.0     15.535     17.278
REMARK  1 active torsions:
REMARK  status: ('A' for Active; 'I' for Inactive)
REMARK    1  A    between atoms: C_6  and  N_7 
ROOT
HETATM    1  N   UNL     1     -36.663  40.435 -56.595  1.00  0.00    -0.320 N 
HETATM    2  C   UNL     1     -37.620  40.781 -55.585  1.00  0.00     0.141 C 
HETATM    3  N   UNL     1     -38.851  41.100 -55.869  1.00  0.00    -0.380 N 
HETATM    4  H   UNL     1     -39.143  41.103 -56.837  1.00  0.00     0.158 HD
HETATM    5  H   UNL     1     -39.489  41.347 -55.127  1.00  0.00     0.158 HD
HETATM    6  S   UNL     1     -36.969  40.752 -53.985  1.00  0.00    -0.086 SA
HETATM    7  C   UNL     1     -35.282  40.652 -54.663  1.00  0.00     0.093 C 
HETATM    8  C   UNL     1     -35.463  39.848 -55.969  1.00  0.00     0.121 C 
HETATM    9  C   UNL     1     -34.160  39.960 -53.930  1.00  0.00     0.158 C 
HETATM   10  S   UNL     1     -32.992  39.657 -55.273  1.00  0.00     0.147 S 
HETATM   11  O   UNL     1     -31.995  40.705 -55.261  1.00  0.00    -0.228 OA
HETATM   12  O   UNL     1     -32.650  38.251 -55.267  1.00  0.00    -0.228 OA
HETATM   13  C   UNL     1     -34.119  39.964 -56.648  1.00  0.00     0.167 C 
ENDROOT
BRANCH   1  14
HETATM   14  C   UNL     1     -36.983  39.955 -57.881  1.00  0.00     0.048 A 
HETATM   15  C   UNL     1     -37.100  40.877 -58.948  1.00  0.00    -0.034 A 
HETATM   16  C   UNL     1     -37.429  40.422 -60.235  1.00  0.00     0.015 A 
HETATM   17  C   UNL     1     -36.867  42.357 -58.776  1.00  0.00     0.050 C 
HETATM   18  C   UNL     1     -37.678  39.073 -60.483  1.00  0.00    -0.061 A 
HETATM   19  C   UNL     1     -38.088  38.610 -61.851  1.00  0.00     0.048 C 
HETATM   20  C   UNL     1     -37.608  38.170 -59.421  1.00  0.00     0.015 A 
HETATM   21  C   UNL     1     -37.251  38.586 -58.125  1.00  0.00    -0.034 A 
HETATM   22  C   UNL     1     -37.247  37.534 -57.046  1.00  0.00     0.050 C 
ENDBRANCH   1  14
TORSDOF 1
ENDMDL
MODEL 9
REMARK VINA RESULT:      -5.9      3.201      5.019
REMARK  1 active torsions:
REMARK  status: ('A' for Active; 'I' for Inactive)
REMARK    1  A    between atoms: C_6  and  N_7 
ROOT
HETATM    1  N   UNL     1     -43.428  56.704 -54.545  1.00  0.00    -0.320 N 
HETATM    2  C   UNL     1     -43.790  55.506 -53.847  1.00  0.00     0.141 C 
HETATM    3  N   UNL     1     -44.652  54.653 -54.324  1.00  0.00    -0.380 N 
HETATM    4  H   UNL     1     -45.081  54.842 -55.220  1.00  0.00     0.158 HD
HETATM    5  H   UNL     1     -44.886  53.827 -53.794  1.00  0.00     0.158 HD
HETATM    6  S   UNL     1     -42.993  55.331 -52.324  1.00  0.00    -0.086 SA
HETATM    7  C   UNL     1     -42.440  57.064 -52.405  1.00  0.00     0.093 C 
HETATM    8  C   UNL     1     -42.240  57.311 -53.916  1.00  0.00     0.121 C 
HETATM    9  C   UNL     1     -41.160  57.532 -51.759  1.00  0.00     0.158 C 
HETATM   10  S   UNL     1     -40.855  59.073 -52.649  1.00  0.00     0.147 S 
HETATM   11  O   UNL     1     -41.346  60.172 -51.848  1.00  0.00    -0.228 OA
HETATM   12  O   UNL     1     -39.510  59.031 -53.179  1.00  0.00    -0.228 OA
HETATM   13  C   UNL     1     -42.012  58.802 -54.007  1.00  0.00     0.167 C 
ENDROOT
BRANCH   1  14
HETATM   14  C   UNL     1     -43.555  56.899 -55.936  1.00  0.00     0.048 A 
HETATM   15  C   UNL     1     -42.728  56.154 -56.810  1.00  0.00    -0.034 A 
HETATM   16  C   UNL     1     -42.830  56.339 -58.199  1.00  0.00     0.015 A 
HETATM   17  C   UNL     1     -41.731  55.135 -56.320  1.00  0.00     0.050 C 
HETATM   18  C   UNL     1     -43.712  57.272 -58.740  1.00  0.00    -0.061 A 
HETATM   19  C   UNL     1     -43.767  57.503 -60.223  1.00  0.00     0.048 C 
HETATM   20  C   UNL     1     -44.495  58.039 -57.876  1.00  0.00     0.015 A 
HETATM   21  C   UNL     1     -44.441  57.858 -56.481  1.00  0.00    -0.034 A 
HETATM   22  C   UNL     1     -45.299  58.769 -55.640  1.00  0.00     0.050 C 
ENDBRANCH   1  14
TORSDOF 1
ENDMDL
