MODEL 1
REMARK VINA RESULT:      -8.1      0.000      0.000
REMARK  5 active torsions:
REMARK  status: ('A' for Active; 'I' for Inactive)
REMARK    1  A    between atoms: C_6  and  C_7 
REMARK    2  A    between atoms: C_7  and  C_8 
REMARK    3  A    between atoms: C_8  and  C_9 
REMARK    4  A    between atoms: C_9  and  N_10 
REMARK       I    between atoms: N_10  and  C_11 
REMARK    5  A    between atoms: C_11  and  C_12 
ROOT
HETATM    1  N   UNL     1     -41.832  55.510 -49.946  1.00  0.00    -0.356 N 
HETATM    2  C   UNL     1     -41.774  56.684 -50.668  1.00  0.00     0.272 C 
HETATM    3  O   UNL     1     -41.072  57.637 -50.340  1.00  0.00    -0.266 OA
HETATM    4  H   UNL     1     -42.405  54.778 -50.361  1.00  0.00     0.162 HD
ENDROOT
BRANCH   1   5
HETATM    5  C   UNL     1     -41.047  55.266 -48.763  1.00  0.00     0.123 C 
BRANCH   5   6
HETATM    6  C   UNL     1     -39.946  54.239 -49.015  1.00  0.00     0.027 C 
BRANCH   6   7
HETATM    7  C   UNL     1     -40.530  52.832 -49.102  1.00  0.00     0.080 C 
BRANCH   7   8
HETATM    8  C   UNL     1     -40.287  52.218 -50.437  1.00  0.00     0.105 A 
HETATM    9  N   UNL     1     -40.355  52.827 -51.603  1.00  0.00    -0.233 NA
HETATM   10  C   UNL     1     -40.081  51.861 -52.540  1.00  0.00     0.085 A 
HETATM   11  C   UNL     1     -39.836  50.634 -51.934  1.00  0.00     0.062 A 
HETATM   12  C   UNL     1     -40.026  51.957 -53.939  1.00  0.00     0.034 A 
HETATM   13  C   UNL     1     -39.537  49.472 -52.647  1.00  0.00     0.032 A 
HETATM   14  N   UNL     1     -39.966  50.891 -50.594  1.00  0.00    -0.343 N 
HETATM   15  C   UNL     1     -39.489  49.586 -54.042  1.00  0.00     0.002 A 
HETATM   16  C   UNL     1     -39.728  50.807 -54.680  1.00  0.00     0.002 A 
HETATM   17  H   UNL     1     -39.851  50.219 -49.848  1.00  0.00     0.167 HD
ENDBRANCH   7   8
ENDBRANCH   6   7
ENDBRANCH   5   6
ENDBRANCH   1   5
BRANCH   2  18
HETATM   18  C   UNL     1     -42.631  56.660 -51.871  1.00  0.00     0.152 A 
HETATM   19  N   UNL     1     -43.977  56.719 -51.752  1.00  0.00    -0.169 NA
HETATM   20  N   UNL     1     -44.426  56.664 -53.012  1.00  0.00    -0.281 N 
HETATM   21  H   UNL     1     -45.429  56.687 -53.166  1.00  0.00     0.189 HD
HETATM   22  C   UNL     1     -43.439  56.564 -53.948  1.00  0.00     0.036 A 
HETATM   23  C   UNL     1     -42.248  56.571 -53.245  1.00  0.00     0.002 A 
HETATM   24  C   UNL     1     -43.743  56.439 -55.400  1.00  0.00     0.059 C 
HETATM   25  C   UNL     1     -40.887  56.506 -53.846  1.00  0.00     0.043 C 
HETATM   26  C   UNL     1     -40.651  55.258 -54.698  1.00  0.00     0.005 C 
HETATM   27  C   UNL     1     -41.709  54.918 -55.761  1.00  0.00     0.001 C 
HETATM   28  C   UNL     1     -42.530  56.104 -56.277  1.00  0.00     0.006 C 
ENDBRANCH   2  18
TORSDOF 5
ENDMDL
MODEL 2
REMARK VINA RESULT:      -7.9      2.421      3.625
REMARK  5 active torsions:
REMARK  status: ('A' for Active; 'I' for Inactive)
REMARK    1  A    between atoms: C_6  and  C_7 
REMARK    2  A    between atoms: C_7  and  C_8 
REMARK    3  A    between atoms: C_8  and  C_9 
REMARK    4  A    between atoms: C_9  and  N_10 
REMARK       I    between atoms: N_10  and  C_11 
REMARK    5  A    between atoms: C_11  and  C_12 
ROOT
HETATM    1  N   UNL     1     -42.886  56.873 -53.454  1.00  0.00    -0.356 N 
HETATM    2  C   UNL     1     -42.417  57.409 -54.635  1.00  0.00     0.272 C 
HETATM    3  O   UNL     1     -41.758  58.445 -54.686  1.00  0.00    -0.266 OA
HETATM    4  H   UNL     1     -43.363  55.979 -53.548  1.00  0.00     0.162 HD
ENDROOT
BRANCH   1   5
HETATM    5  C   UNL     1     -42.616  57.447 -52.161  1.00  0.00     0.123 C 
BRANCH   5   6
HETATM    6  C   UNL     1     -41.223  57.082 -51.657  1.00  0.00     0.027 C 
BRANCH   6   7
HETATM    7  C   UNL     1     -41.273  55.831 -50.784  1.00  0.00     0.080 C 
BRANCH   7   8
HETATM    8  C   UNL     1     -40.929  54.607 -51.558  1.00  0.00     0.105 A 
HETATM    9  N   UNL     1     -41.245  54.357 -52.811  1.00  0.00    -0.233 NA
HETATM   10  C   UNL     1     -40.741  53.108 -53.078  1.00  0.00     0.085 A 
HETATM   11  C   UNL     1     -40.097  52.583 -51.963  1.00  0.00     0.062 A 
HETATM   12  C   UNL     1     -40.795  52.350 -54.258  1.00  0.00     0.034 A 
HETATM   13  C   UNL     1     -39.495  51.323 -51.948  1.00  0.00     0.032 A 
HETATM   14  N   UNL     1     -40.225  53.561 -51.011  1.00  0.00    -0.343 N 
HETATM   15  C   UNL     1     -39.563  50.579 -53.132  1.00  0.00     0.002 A 
HETATM   16  C   UNL     1     -40.201  51.082 -54.270  1.00  0.00     0.002 A 
HETATM   17  H   UNL     1     -39.868  53.518 -50.067  1.00  0.00     0.167 HD
ENDBRANCH   7   8
ENDBRANCH   6   7
ENDBRANCH   5   6
ENDBRANCH   1   5
BRANCH   2  18
HETATM   18  C   UNL     1     -42.780  56.599 -55.816  1.00  0.00     0.152 A 
HETATM   19  N   UNL     1     -42.957  55.263 -55.700  1.00  0.00    -0.169 NA
HETATM   20  N   UNL     1     -43.260  54.857 -56.940  1.00  0.00    -0.281 N 
HETATM   21  H   UNL     1     -43.429  53.868 -57.093  1.00  0.00     0.189 HD
HETATM   22  C   UNL     1     -43.282  55.862 -57.861  1.00  0.00     0.036 A 
HETATM   23  C   UNL     1     -42.986  57.021 -57.166  1.00  0.00     0.002 A 
HETATM   24  C   UNL     1     -43.547  55.600 -59.303  1.00  0.00     0.059 C 
HETATM   25  C   UNL     1     -42.920  58.389 -57.751  1.00  0.00     0.043 C 
HETATM   26  C   UNL     1     -41.897  58.524 -58.881  1.00  0.00     0.005 C 
HETATM   27  C   UNL     1     -41.945  57.476 -60.005  1.00  0.00     0.001 C 
HETATM   28  C   UNL     1     -43.304  56.803 -60.223  1.00  0.00     0.006 C 
ENDBRANCH   2  18
TORSDOF 5
ENDMDL
MODEL 3
REMARK VINA RESULT:      -7.7      2.303      6.301
REMARK  5 active torsions:
REMARK  status: ('A' for Active; 'I' for Inactive)
REMARK    1  A    between atoms: C_6  and  C_7 
REMARK    2  A    between atoms: C_7  and  C_8 
REMARK    3  A    between atoms: C_8  and  C_9 
REMARK    4  A    between atoms: C_9  and  N_10 
REMARK       I    between atoms: N_10  and  C_11 
REMARK    5  A    between atoms: C_11  and  C_12 
ROOT
HETATM    1  N   UNL     1     -42.425  57.353 -51.966  1.00  0.00    -0.356 N 
HETATM    2  C   UNL     1     -42.833  56.259 -51.233  1.00  0.00     0.272 C 
HETATM    3  O   UNL     1     -43.904  56.216 -50.633  1.00  0.00    -0.266 OA
HETATM    4  H   UNL     1     -41.545  57.233 -52.464  1.00  0.00     0.162 HD
ENDROOT
BRANCH   1   5
HETATM    5  C   UNL     1     -43.228  58.536 -52.140  1.00  0.00     0.123 C 
BRANCH   5   6
HETATM    6  C   UNL     1     -43.688  58.703 -53.585  1.00  0.00     0.027 C 
BRANCH   6   7
HETATM    7  C   UNL     1     -43.965  57.346 -54.225  1.00  0.00     0.080 C 
BRANCH   7   8
HETATM    8  C   UNL     1     -43.480  57.292 -55.632  1.00  0.00     0.105 A 
HETATM    9  N   UNL     1     -42.759  58.206 -56.247  1.00  0.00    -0.233 NA
HETATM   10  C   UNL     1     -42.578  57.736 -57.525  1.00  0.00     0.085 A 
HETATM   11  C   UNL     1     -43.200  56.504 -57.694  1.00  0.00     0.062 A 
HETATM   12  C   UNL     1     -41.892  58.310 -58.605  1.00  0.00     0.034 A 
HETATM   13  C   UNL     1     -43.184  55.795 -58.897  1.00  0.00     0.032 A 
HETATM   14  N   UNL     1     -43.761  56.241 -56.471  1.00  0.00    -0.343 N 
HETATM   15  C   UNL     1     -42.498  56.386 -59.965  1.00  0.00     0.002 A 
HETATM   16  C   UNL     1     -41.861  57.622 -59.824  1.00  0.00     0.002 A 
HETATM   17  H   UNL     1     -44.294  55.417 -56.228  1.00  0.00     0.167 HD
ENDBRANCH   7   8
ENDBRANCH   6   7
ENDBRANCH   5   6
ENDBRANCH   1   5
BRANCH   2  18
HETATM   18  C   UNL     1     -41.854  55.153 -51.260  1.00  0.00     0.152 A 
HETATM   19  N   UNL     1     -40.996  54.974 -50.230  1.00  0.00    -0.169 NA
HETATM   20  N   UNL     1     -40.262  53.913 -50.586  1.00  0.00    -0.281 N 
HETATM   21  H   UNL     1     -39.534  53.598 -49.952  1.00  0.00     0.189 HD
HETATM   22  C   UNL     1     -40.593  53.395 -51.803  1.00  0.00     0.036 A 
HETATM   23  C   UNL     1     -41.639  54.168 -52.273  1.00  0.00     0.002 A 
HETATM   24  C   UNL     1     -39.854  52.245 -52.395  1.00  0.00     0.059 C 
HETATM   25  C   UNL     1     -42.355  53.965 -53.563  1.00  0.00     0.043 C 
HETATM   26  C   UNL     1     -41.442  54.033 -54.789  1.00  0.00     0.005 C 
HETATM   27  C   UNL     1     -40.161  53.182 -54.762  1.00  0.00     0.001 C 
HETATM   28  C   UNL     1     -40.207  51.947 -53.858  1.00  0.00     0.006 C 
ENDBRANCH   2  18
TORSDOF 5
ENDMDL
MODEL 4
REMARK VINA RESULT:      -7.5      1.479      2.076
REMARK  5 active torsions:
REMARK  status: ('A' for Active; 'I' for Inactive)
REMARK    1  A    between atoms: C_6  and  C_7 
REMARK    2  A    between atoms: C_7  and  C_8 
REMARK    3  A    between atoms: C_8  and  C_9 
REMARK    4  A    between atoms: C_9  and  N_10 
REMARK       I    between atoms: N_10  and  C_11 
REMARK    5  A    between atoms: C_11  and  C_12 
ROOT
HETATM    1  N   UNL     1     -41.555  56.817 -51.100  1.00  0.00    -0.356 N 
HETATM    2  C   UNL     1     -42.406  56.312 -52.061  1.00  0.00     0.272 C 
HETATM    3  O   UNL     1     -43.012  55.252 -51.929  1.00  0.00    -0.266 OA
HETATM    4  H   UNL     1     -41.166  57.734 -51.309  1.00  0.00     0.162 HD
ENDROOT
BRANCH   1   5
HETATM    5  C   UNL     1     -41.324  56.177 -49.830  1.00  0.00     0.123 C 
BRANCH   5   6
HETATM    6  C   UNL     1     -40.166  55.186 -49.896  1.00  0.00     0.027 C 
BRANCH   6   7
HETATM    7  C   UNL     1     -40.638  53.778 -49.541  1.00  0.00     0.080 C 
BRANCH   7   8
HETATM    8  C   UNL     1     -40.403  52.822 -50.658  1.00  0.00     0.105 A 
HETATM    9  N   UNL     1     -40.053  51.557 -50.546  1.00  0.00    -0.233 NA
HETATM   10  C   UNL     1     -39.930  51.093 -51.832  1.00  0.00     0.085 A 
HETATM   11  C   UNL     1     -40.215  52.095 -52.753  1.00  0.00     0.062 A 
HETATM   12  C   UNL     1     -39.573  49.818 -52.296  1.00  0.00     0.034 A 
HETATM   13  C   UNL     1     -40.163  51.904 -54.135  1.00  0.00     0.032 A 
HETATM   14  N   UNL     1     -40.521  53.184 -51.978  1.00  0.00    -0.343 N 
HETATM   15  C   UNL     1     -39.801  50.627 -54.580  1.00  0.00     0.002 A 
HETATM   16  C   UNL     1     -39.512  49.599 -53.678  1.00  0.00     0.002 A 
HETATM   17  H   UNL     1     -40.783  54.098 -52.319  1.00  0.00     0.167 HD
ENDBRANCH   7   8
ENDBRANCH   6   7
ENDBRANCH   5   6
ENDBRANCH   1   5
BRANCH   2  18
HETATM   18  C   UNL     1     -42.514  57.187 -53.247  1.00  0.00     0.152 A 
HETATM   19  N   UNL     1     -42.939  58.465 -53.116  1.00  0.00    -0.169 NA
HETATM   20  N   UNL     1     -42.927  58.950 -54.363  1.00  0.00    -0.281 N 
HETATM   21  H   UNL     1     -43.222  59.911 -54.508  1.00  0.00     0.189 HD
HETATM   22  C   UNL     1     -42.523  58.049 -55.304  1.00  0.00     0.036 A 
HETATM   23  C   UNL     1     -42.231  56.886 -54.615  1.00  0.00     0.002 A 
HETATM   24  C   UNL     1     -42.494  58.387 -56.754  1.00  0.00     0.059 C 
HETATM   25  C   UNL     1     -41.724  55.624 -55.220  1.00  0.00     0.043 C 
HETATM   26  C   UNL     1     -42.652  55.039 -56.287  1.00  0.00     0.005 C 
HETATM   27  C   UNL     1     -43.144  55.989 -57.391  1.00  0.00     0.001 C 
HETATM   28  C   UNL     1     -42.240  57.191 -57.681  1.00  0.00     0.006 C 
ENDBRANCH   2  18
TORSDOF 5
ENDMDL
MODEL 5
REMARK VINA RESULT:      -7.4      2.655      3.843
REMARK  5 active torsions:
REMARK  status: ('A' for Active; 'I' for Inactive)
REMARK    1  A    between atoms: C_6  and  C_7 
REMARK    2  A    between atoms: C_7  and  C_8 
REMARK    3  A    between atoms: C_8  and  C_9 
REMARK    4  A    between atoms: C_9  and  N_10 
REMARK       I    between atoms: N_10  and  C_11 
REMARK    5  A    between atoms: C_11  and  C_12 
ROOT
HETATM    1  N   UNL     1     -42.349  56.144 -50.238  1.00  0.00    -0.356 N 
HETATM    2  C   UNL     1     -42.343  56.543 -51.558  1.00  0.00     0.272 C 
HETATM    3  O   UNL     1     -42.304  55.752 -52.497  1.00  0.00    -0.266 OA
HETATM    4  H   UNL     1     -42.447  56.898 -49.561  1.00  0.00     0.162 HD
ENDROOT
BRANCH   1   5
HETATM    5  C   UNL     1     -42.354  54.763 -49.827  1.00  0.00     0.123 C 
BRANCH   5   6
HETATM    6  C   UNL     1     -41.141  54.422 -48.965  1.00  0.00     0.027 C 
BRANCH   6   7
HETATM    7  C   UNL     1     -39.868  54.406 -49.806  1.00  0.00     0.080 C 
BRANCH   7   8
HETATM    8  C   UNL     1     -39.898  53.322 -50.827  1.00  0.00     0.105 A 
HETATM    9  N   UNL     1     -39.659  52.044 -50.620  1.00  0.00    -0.233 NA
HETATM   10  C   UNL     1     -39.776  51.442 -51.849  1.00  0.00     0.085 A 
HETATM   11  C   UNL     1     -40.099  52.373 -52.830  1.00  0.00     0.062 A 
HETATM   12  C   UNL     1     -39.618  50.095 -52.208  1.00  0.00     0.034 A 
HETATM   13  C   UNL     1     -40.275  52.040 -54.175  1.00  0.00     0.032 A 
HETATM   14  N   UNL     1     -40.178  53.561 -52.151  1.00  0.00    -0.343 N 
HETATM   15  C   UNL     1     -40.109  50.692 -54.515  1.00  0.00     0.002 A 
HETATM   16  C   UNL     1     -39.787  49.733 -53.551  1.00  0.00     0.002 A 
HETATM   17  H   UNL     1     -40.399  54.460 -52.555  1.00  0.00     0.167 HD
ENDBRANCH   7   8
ENDBRANCH   6   7
ENDBRANCH   5   6
ENDBRANCH   1   5
BRANCH   2  18
HETATM   18  C   UNL     1     -42.402  58.011 -51.713  1.00  0.00     0.152 A 
HETATM   19  N   UNL     1     -41.262  58.737 -51.775  1.00  0.00    -0.169 NA
HETATM   20  N   UNL     1     -41.679  60.003 -51.901  1.00  0.00    -0.281 N 
HETATM   21  H   UNL     1     -40.979  60.736 -51.960  1.00  0.00     0.189 HD
HETATM   22  C   UNL     1     -43.036  60.140 -51.916  1.00  0.00     0.036 A 
HETATM   23  C   UNL     1     -43.548  58.860 -51.809  1.00  0.00     0.002 A 
HETATM   24  C   UNL     1     -43.690  61.476 -51.997  1.00  0.00     0.059 C 
HETATM   25  C   UNL     1     -44.993  58.502 -51.807  1.00  0.00     0.043 C 
HETATM   26  C   UNL     1     -45.790  59.169 -50.685  1.00  0.00     0.005 C 
HETATM   27  C   UNL     1     -45.626  60.689 -50.511  1.00  0.00     0.001 C 
HETATM   28  C   UNL     1     -45.207  61.456 -51.769  1.00  0.00     0.006 C 
ENDBRANCH   2  18
TORSDOF 5
ENDMDL
MODEL 6
REMARK VINA RESULT:      -7.4      2.376      6.533
REMARK  5 active torsions:
REMARK  status: ('A' for Active; 'I' for Inactive)
REMARK    1  A    between atoms: C_6  and  C_7 
REMARK    2  A    between atoms: C_7  and  C_8 
REMARK    3  A    between atoms: C_8  and  C_9 
REMARK    4  A    between atoms: C_9  and  N_10 
REMARK       I    between atoms: N_10  and  C_11 
REMARK    5  A    between atoms: C_11  and  C_12 
ROOT
HETATM    1  N   UNL     1     -42.296  56.945 -52.345  1.00  0.00    -0.356 N 
HETATM    2  C   UNL     1     -42.542  56.092 -51.290  1.00  0.00     0.272 C 
HETATM    3  O   UNL     1     -43.502  56.221 -50.534  1.00  0.00    -0.266 OA
HETATM    4  H   UNL     1     -41.503  56.687 -52.930  1.00  0.00     0.162 HD
ENDROOT
BRANCH   1   5
HETATM    5  C   UNL     1     -43.159  58.043 -52.695  1.00  0.00     0.123 C 
BRANCH   5   6
HETATM    6  C   UNL     1     -44.171  57.650 -53.768  1.00  0.00     0.027 C 
BRANCH   6   7
HETATM    7  C   UNL     1     -43.734  56.374 -54.482  1.00  0.00     0.080 C 
BRANCH   7   8
HETATM    8  C   UNL     1     -43.342  56.641 -55.894  1.00  0.00     0.105 A 
HETATM    9  N   UNL     1     -43.364  55.778 -56.889  1.00  0.00    -0.233 NA
HETATM   10  C   UNL     1     -42.895  56.464 -57.982  1.00  0.00     0.085 A 
HETATM   11  C   UNL     1     -42.584  57.778 -57.650  1.00  0.00     0.062 A 
HETATM   12  C   UNL     1     -42.705  56.028 -59.302  1.00  0.00     0.034 A 
HETATM   13  C   UNL     1     -42.080  58.702 -58.567  1.00  0.00     0.032 A 
HETATM   14  N   UNL     1     -42.885  57.866 -56.315  1.00  0.00    -0.343 N 
HETATM   15  C   UNL     1     -41.892  58.248 -59.878  1.00  0.00     0.002 A 
HETATM   16  C   UNL     1     -42.200  56.934 -60.243  1.00  0.00     0.002 A 
HETATM   17  H   UNL     1     -42.782  58.689 -55.738  1.00  0.00     0.167 HD
ENDBRANCH   7   8
ENDBRANCH   6   7
ENDBRANCH   5   6
ENDBRANCH   1   5
BRANCH   2  18
HETATM   18  C   UNL     1     -41.540  55.012 -51.180  1.00  0.00     0.152 A 
HETATM   19  N   UNL     1     -40.650  55.007 -50.161  1.00  0.00    -0.169 NA
HETATM   20  N   UNL     1     -39.903  53.917 -50.376  1.00  0.00    -0.281 N 
HETATM   21  H   UNL     1     -39.151  53.714 -49.724  1.00  0.00     0.189 HD
HETATM   22  C   UNL     1     -40.257  53.214 -51.489  1.00  0.00     0.036 A 
HETATM   23  C   UNL     1     -41.332  53.888 -52.038  1.00  0.00     0.002 A 
HETATM   24  C   UNL     1     -39.510  52.000 -51.922  1.00  0.00     0.059 C 
HETATM   25  C   UNL     1     -42.080  53.479 -53.259  1.00  0.00     0.043 C 
HETATM   26  C   UNL     1     -41.204  53.374 -54.509  1.00  0.00     0.005 C 
HETATM   27  C   UNL     1     -39.904  52.561 -54.394  1.00  0.00     0.001 C 
HETATM   28  C   UNL     1     -39.897  51.477 -53.311  1.00  0.00     0.006 C 
ENDBRANCH   2  18
TORSDOF 5
ENDMDL
MODEL 7
REMARK VINA RESULT:      -7.3      3.416      5.106
REMARK  5 active torsions:
REMARK  status: ('A' for Active; 'I' for Inactive)
REMARK    1  A    between atoms: C_6  and  C_7 
REMARK    2  A    between atoms: C_7  and  C_8 
REMARK    3  A    between atoms: C_8  and  C_9 
REMARK    4  A    between atoms: C_9  and  N_10 
REMARK       I    between atoms: N_10  and  C_11 
REMARK    5  A    between atoms: C_11  and  C_12 
ROOT
HETATM    1  N   UNL     1     -43.212  57.552 -55.449  1.00  0.00    -0.356 N 
HETATM    2  C   UNL     1     -43.374  58.320 -56.584  1.00  0.00     0.272 C 
HETATM    3  O   UNL     1     -42.585  59.201 -56.914  1.00  0.00    -0.266 OA
HETATM    4  H   UNL     1     -43.904  56.816 -55.326  1.00  0.00     0.162 HD
ENDROOT
BRANCH   1   5
HETATM    5  C   UNL     1     -42.084  57.676 -54.562  1.00  0.00     0.123 C 
BRANCH   5   6
HETATM    6  C   UNL     1     -42.461  57.368 -53.116  1.00  0.00     0.027 C 
BRANCH   6   7
HETATM    7  C   UNL     1     -43.221  56.048 -53.024  1.00  0.00     0.080 C 
BRANCH   7   8
HETATM    8  C   UNL     1     -42.295  54.886 -52.932  1.00  0.00     0.105 A 
HETATM    9  N   UNL     1     -41.603  54.518 -51.873  1.00  0.00    -0.233 NA
HETATM   10  C   UNL     1     -40.879  53.420 -52.268  1.00  0.00     0.085 A 
HETATM   11  C   UNL     1     -41.137  53.106 -53.598  1.00  0.00     0.062 A 
HETATM   12  C   UNL     1     -39.973  52.633 -51.542  1.00  0.00     0.034 A 
HETATM   13  C   UNL     1     -40.533  52.038 -54.265  1.00  0.00     0.032 A 
HETATM   14  N   UNL     1     -42.047  54.051 -53.994  1.00  0.00    -0.343 N 
HETATM   15  C   UNL     1     -39.628  51.267 -53.525  1.00  0.00     0.002 A 
HETATM   16  C   UNL     1     -39.351  51.556 -52.186  1.00  0.00     0.002 A 
HETATM   17  H   UNL     1     -42.461  54.125 -54.913  1.00  0.00     0.167 HD
ENDBRANCH   7   8
ENDBRANCH   6   7
ENDBRANCH   5   6
ENDBRANCH   1   5
BRANCH   2  18
HETATM   18  C   UNL     1     -44.582  57.957 -57.353  1.00  0.00     0.152 A 
HETATM   19  N   UNL     1     -45.811  58.249 -56.872  1.00  0.00    -0.169 NA
HETATM   20  N   UNL     1     -46.654  57.778 -57.800  1.00  0.00    -0.281 N 
HETATM   21  H   UNL     1     -47.651  57.883 -57.641  1.00  0.00     0.189 HD
HETATM   22  C   UNL     1     -46.034  57.185 -58.860  1.00  0.00     0.036 A 
HETATM   23  C   UNL     1     -44.677  57.291 -58.615  1.00  0.00     0.002 A 
HETATM   24  C   UNL     1     -46.804  56.555 -59.968  1.00  0.00     0.059 C 
HETATM   25  C   UNL     1     -43.593  56.806 -59.513  1.00  0.00     0.043 C 
HETATM   26  C   UNL     1     -43.663  55.305 -59.804  1.00  0.00     0.005 C 
HETATM   27  C   UNL     1     -45.017  54.738 -60.263  1.00  0.00     0.001 C 
HETATM   28  C   UNL     1     -45.953  55.737 -60.949  1.00  0.00     0.006 C 
ENDBRANCH   2  18
TORSDOF 5
ENDMDL
MODEL 8
REMARK VINA RESULT:      -7.3      1.926      2.866
REMARK  5 active torsions:
REMARK  status: ('A' for Active; 'I' for Inactive)
REMARK    1  A    between atoms: C_6  and  C_7 
REMARK    2  A    between atoms: C_7  and  C_8 
REMARK    3  A    between atoms: C_8  and  C_9 
REMARK    4  A    between atoms: C_9  and  N_10 
REMARK       I    between atoms: N_10  and  C_11 
REMARK    5  A    between atoms: C_11  and  C_12 
ROOT
HETATM    1  N   UNL     1     -42.147  56.427 -51.133  1.00  0.00    -0.356 N 
HETATM    2  C   UNL     1     -43.048  55.573 -51.735  1.00  0.00     0.272 C 
HETATM    3  O   UNL     1     -43.352  54.480 -51.265  1.00  0.00    -0.266 OA
HETATM    4  H   UNL     1     -42.033  57.327 -51.594  1.00  0.00     0.162 HD
ENDROOT
BRANCH   1   5
HETATM    5  C   UNL     1     -41.507  56.144 -49.873  1.00  0.00     0.123 C 
BRANCH   5   6
HETATM    6  C   UNL     1     -40.252  55.295 -50.052  1.00  0.00     0.027 C 
BRANCH   6   7
HETATM    7  C   UNL     1     -40.489  53.869 -49.564  1.00  0.00     0.080 C 
BRANCH   7   8
HETATM    8  C   UNL     1     -40.297  52.875 -50.656  1.00  0.00     0.105 A 
HETATM    9  N   UNL     1     -40.036  51.593 -50.510  1.00  0.00    -0.233 NA
HETATM   10  C   UNL     1     -39.917  51.093 -51.784  1.00  0.00     0.085 A 
HETATM   11  C   UNL     1     -40.114  52.092 -52.731  1.00  0.00     0.062 A 
HETATM   12  C   UNL     1     -39.639  49.787 -52.214  1.00  0.00     0.034 A 
HETATM   13  C   UNL     1     -40.046  51.868 -54.107  1.00  0.00     0.032 A 
HETATM   14  N   UNL     1     -40.361  53.216 -51.985  1.00  0.00    -0.343 N 
HETATM   15  C   UNL     1     -39.762  50.560 -54.518  1.00  0.00     0.002 A 
HETATM   16  C   UNL     1     -39.563  49.534 -53.589  1.00  0.00     0.002 A 
HETATM   17  H   UNL     1     -40.553  54.138 -52.350  1.00  0.00     0.167 HD
ENDBRANCH   7   8
ENDBRANCH   6   7
ENDBRANCH   5   6
ENDBRANCH   1   5
BRANCH   2  18
HETATM   18  C   UNL     1     -43.607  56.122 -52.988  1.00  0.00     0.152 A 
HETATM   19  N   UNL     1     -43.582  55.390 -54.125  1.00  0.00    -0.169 NA
HETATM   20  N   UNL     1     -44.148  56.182 -55.044  1.00  0.00    -0.281 N 
HETATM   21  H   UNL     1     -44.229  55.833 -55.994  1.00  0.00     0.189 HD
HETATM   22  C   UNL     1     -44.535  57.398 -54.564  1.00  0.00     0.036 A 
HETATM   23  C   UNL     1     -44.211  57.396 -53.220  1.00  0.00     0.002 A 
HETATM   24  C   UNL     1     -45.136  58.436 -55.447  1.00  0.00     0.059 C 
HETATM   25  C   UNL     1     -44.469  58.509 -52.265  1.00  0.00     0.043 C 
HETATM   26  C   UNL     1     -43.805  59.828 -52.665  1.00  0.00     0.005 C 
HETATM   27  C   UNL     1     -44.018  60.316 -54.108  1.00  0.00     0.001 C 
HETATM   28  C   UNL     1     -45.293  59.815 -54.792  1.00  0.00     0.006 C 
ENDBRANCH   2  18
TORSDOF 5
ENDMDL
MODEL 9
REMARK VINA RESULT:      -7.1      2.858      7.332
REMARK  5 active torsions:
REMARK  status: ('A' for Active; 'I' for Inactive)
REMARK    1  A    between atoms: C_6  and  C_7 
REMARK    2  A    between atoms: C_7  and  C_8 
REMARK    3  A    between atoms: C_8  and  C_9 
REMARK    4  A    between atoms: C_9  and  N_10 
REMARK       I    between atoms: N_10  and  C_11 
REMARK    5  A    between atoms: C_11  and  C_12 
ROOT
HETATM    1  N   UNL     1     -41.817  55.683 -55.685  1.00  0.00    -0.356 N 
HETATM    2  C   UNL     1     -42.428  54.632 -55.033  1.00  0.00     0.272 C 
HETATM    3  O   UNL     1     -43.578  54.274 -55.271  1.00  0.00    -0.266 OA
HETATM    4  H   UNL     1     -40.842  55.834 -55.436  1.00  0.00     0.162 HD
ENDROOT
BRANCH   1   5
HETATM    5  C   UNL     1     -42.448  56.436 -56.738  1.00  0.00     0.123 C 
BRANCH   5   6
HETATM    6  C   UNL     1     -43.211  57.641 -56.196  1.00  0.00     0.027 C 
BRANCH   6   7
HETATM    7  C   UNL     1     -42.280  58.838 -56.025  1.00  0.00     0.080 C 
BRANCH   7   8
HETATM    8  C   UNL     1     -42.028  59.137 -54.588  1.00  0.00     0.105 A 
HETATM    9  N   UNL     1     -42.828  59.791 -53.772  1.00  0.00    -0.233 NA
HETATM   10  C   UNL     1     -42.168  59.842 -52.568  1.00  0.00     0.085 A 
HETATM   11  C   UNL     1     -40.937  59.200 -52.649  1.00  0.00     0.062 A 
HETATM   12  C   UNL     1     -42.558  60.424 -51.354  1.00  0.00     0.034 A 
HETATM   13  C   UNL     1     -40.050  59.103 -51.575  1.00  0.00     0.032 A 
HETATM   14  N   UNL     1     -40.876  58.754 -53.944  1.00  0.00    -0.343 N 
HETATM   15  C   UNL     1     -40.455  59.694 -50.371  1.00  0.00     0.002 A 
HETATM   16  C   UNL     1     -41.688  60.343 -50.259  1.00  0.00     0.002 A 
HETATM   17  H   UNL     1     -40.113  58.237 -54.357  1.00  0.00     0.167 HD
ENDBRANCH   7   8
ENDBRANCH   6   7
ENDBRANCH   5   6
ENDBRANCH   1   5
BRANCH   2  18
HETATM   18  C   UNL     1     -41.548  53.987 -54.037  1.00  0.00     0.152 A 
HETATM   19  N   UNL     1     -40.976  52.791 -54.304  1.00  0.00    -0.169 NA
HETATM   20  N   UNL     1     -40.270  52.504 -53.203  1.00  0.00    -0.281 N 
HETATM   21  H   UNL     1     -39.754  51.630 -53.177  1.00  0.00     0.189 HD
HETATM   22  C   UNL     1     -40.360  53.452 -52.227  1.00  0.00     0.036 A 
HETATM   23  C   UNL     1     -41.176  54.445 -52.735  1.00  0.00     0.002 A 
HETATM   24  C   UNL     1     -39.687  53.287 -50.908  1.00  0.00     0.059 C 
HETATM   25  C   UNL     1     -41.545  55.706 -52.035  1.00  0.00     0.043 C 
HETATM   26  C   UNL     1     -42.254  55.481 -50.698  1.00  0.00     0.005 C 
HETATM   27  C   UNL     1     -41.598  54.504 -49.708  1.00  0.00     0.001 C 
HETATM   28  C   UNL     1     -40.084  54.331 -49.857  1.00  0.00     0.006 C 
ENDBRANCH   2  18
TORSDOF 5
ENDMDL
MODEL 10
REMARK VINA RESULT:      -7.0     13.659     15.745
REMARK  5 active torsions:
REMARK  status: ('A' for Active; 'I' for Inactive)
REMARK    1  A    between atoms: C_6  and  C_7 
REMARK    2  A    between atoms: C_7  and  C_8 
REMARK    3  A    between atoms: C_8  and  C_9 
REMARK    4  A    between atoms: C_9  and  N_10 
REMARK       I    between atoms: N_10  and  C_11 
REMARK    5  A    between atoms: C_11  and  C_12 
ROOT
HETATM    1  N   UNL     1     -35.641  40.824 -51.812  1.00  0.00    -0.356 N 
HETATM    2  C   UNL     1     -35.759  41.958 -52.588  1.00  0.00     0.272 C 
HETATM    3  O   UNL     1     -35.177  43.009 -52.330  1.00  0.00    -0.266 OA
HETATM    4  H   UNL     1     -36.126  40.004 -52.172  1.00  0.00     0.162 HD
ENDROOT
BRANCH   1   5
HETATM    5  C   UNL     1     -34.794  40.742 -50.650  1.00  0.00     0.123 C 
BRANCH   5   6
HETATM    6  C   UNL     1     -33.572  39.863 -50.899  1.00  0.00     0.027 C 
BRANCH   6   7
HETATM    7  C   UNL     1     -33.897  38.755 -51.897  1.00  0.00     0.080 C 
BRANCH   7   8
HETATM    8  C   UNL     1     -32.897  38.698 -52.999  1.00  0.00     0.105 A 
HETATM    9  N   UNL     1     -31.944  37.802 -53.147  1.00  0.00    -0.233 NA
HETATM   10  C   UNL     1     -31.264  38.168 -54.282  1.00  0.00     0.085 A 
HETATM   11  C   UNL     1     -31.817  39.313 -54.845  1.00  0.00     0.062 A 
HETATM   12  C   UNL     1     -30.156  37.569 -54.898  1.00  0.00     0.034 A 
HETATM   13  C   UNL     1     -31.322  39.914 -56.004  1.00  0.00     0.032 A 
HETATM   14  N   UNL     1     -32.860  39.626 -54.012  1.00  0.00    -0.343 N 
HETATM   15  C   UNL     1     -30.212  39.305 -56.603  1.00  0.00     0.002 A 
HETATM   16  C   UNL     1     -29.637  38.151 -56.062  1.00  0.00     0.002 A 
HETATM   17  H   UNL     1     -33.491  40.408 -54.121  1.00  0.00     0.167 HD
ENDBRANCH   7   8
ENDBRANCH   6   7
ENDBRANCH   5   6
ENDBRANCH   1   5
BRANCH   2  18
HETATM   18  C   UNL     1     -36.642  41.764 -53.756  1.00  0.00     0.152 A 
HETATM   19  N   UNL     1     -37.911  41.328 -53.587  1.00  0.00    -0.169 NA
HETATM   20  N   UNL     1     -38.408  41.256 -54.828  1.00  0.00    -0.281 N 
HETATM   21  H   UNL     1     -39.365  40.938 -54.945  1.00  0.00     0.189 HD
HETATM   22  C   UNL     1     -37.522  41.617 -55.800  1.00  0.00     0.036 A 
HETATM   23  C   UNL     1     -36.358  41.969 -55.141  1.00  0.00     0.002 A 
HETATM   24  C   UNL     1     -37.873  41.553 -57.246  1.00  0.00     0.059 C 
HETATM   25  C   UNL     1     -35.111  42.459 -55.789  1.00  0.00     0.043 C 
HETATM   26  C   UNL     1     -34.519  41.478 -56.803  1.00  0.00     0.005 C 
HETATM   27  C   UNL     1     -35.471  40.904 -57.867  1.00  0.00     0.001 C 
HETATM   28  C   UNL     1     -36.690  41.770 -58.198  1.00  0.00     0.006 C 
ENDBRANCH   2  18
TORSDOF 5
ENDMDL
