MODEL 1
REMARK VINA RESULT:      -7.9      0.000      0.000
REMARK  8 active torsions:
REMARK  status: ('A' for Active; 'I' for Inactive)
REMARK    1  A    between atoms: C_2  and  O_3 
REMARK    2  A    between atoms: O_3  and  C_4 
REMARK    3  A    between atoms: C_4  and  C_5 
REMARK    4  A    between atoms: N_7  and  C_9 
REMARK    5  A    between atoms: C_9  and  C_10 
REMARK       I    between atoms: C_10  and  N_11 
REMARK    6  A    between atoms: N_11  and  C_12 
REMARK    7  A    between atoms: C_20  and  C_21 
REMARK       I    between atoms: C_21  and  N_22 
REMARK    8  A    between atoms: N_22  and  C_23 
ROOT
HETATM    1  C   UNL     1     -41.017  54.690 -51.984  1.00  0.00     0.093 C 
HETATM    2  S   UNL     1     -41.129  53.797 -50.552  1.00  0.00    -0.075 SA
HETATM    3  C   UNL     1     -40.466  52.432 -51.306  1.00  0.00    -0.008 C 
HETATM    4  C   UNL     1     -40.289  52.598 -52.673  1.00  0.00    -0.026 C 
HETATM    5  C   UNL     1     -39.779  51.453 -53.513  1.00  0.00     0.041 C 
HETATM    6  C   UNL     1     -39.793  50.105 -52.774  1.00  0.00     0.005 C 
HETATM    7  C   UNL     1     -39.286  50.242 -51.335  1.00  0.00     0.005 C 
HETATM    8  C   UNL     1     -40.188  51.181 -50.528  1.00  0.00     0.047 C 
HETATM    9  C   UNL     1     -40.656  53.946 -53.101  1.00  0.00     0.073 C 
ENDROOT
BRANCH   1  10
HETATM   10  N   UNL     1     -41.317  56.025 -51.800  1.00  0.00    -0.319 N 
HETATM   11  C   UNL     1     -42.624  56.442 -51.905  1.00  0.00     0.248 C 
HETATM   12  O   UNL     1     -43.558  55.777 -52.357  1.00  0.00    -0.271 OA
HETATM   13  H   UNL     1     -40.562  56.674 -51.991  1.00  0.00     0.169 HD
BRANCH  11  14
HETATM   14  C   UNL     1     -42.885  57.878 -51.446  1.00  0.00     0.337 C 
BRANCH  14  15
HETATM   15  N   UNL     1     -43.177  58.770 -52.654  1.00  0.00    -0.062 N 
HETATM   16  C   UNL     1     -44.552  59.412 -52.588  1.00  0.00     0.249 C 
HETATM   17  C   UNL     1     -44.904  60.014 -53.944  1.00  0.00     0.111 C 
HETATM   18  C   UNL     1     -43.799  60.941 -54.468  1.00  0.00     0.018 C 
HETATM   19  C   UNL     1     -42.385  60.367 -54.346  1.00  0.00     0.029 C 
HETATM   20  C   UNL     1     -42.100  59.753 -52.981  1.00  0.00     0.235 C 
HETATM   21  H   UNL     1     -43.236  58.087 -53.444  1.00  0.00     0.280 HD
BRANCH  17  22
HETATM   22  C   UNL     1     -45.164  58.855 -54.877  1.00  0.00     0.264 C 
HETATM   23  O   UNL     1     -45.232  57.699 -54.476  1.00  0.00    -0.265 OA
BRANCH  22  24
HETATM   24  O   UNL     1     -45.427  59.284 -56.133  1.00  0.00    -0.322 OA
BRANCH  24  25
HETATM   25  C   UNL     1     -46.091  58.320 -56.964  1.00  0.00     0.174 C 
HETATM   26  C   UNL     1     -47.162  59.036 -57.762  1.00  0.00     0.034 C 
ENDBRANCH  24  25
ENDBRANCH  22  24
ENDBRANCH  17  22
ENDBRANCH  14  15
ENDBRANCH  11  14
ENDBRANCH   1  10
BRANCH   9  27
HETATM   27  C   UNL     1     -40.747  54.508 -54.472  1.00  0.00     0.259 C 
HETATM   28  N   UNL     1     -42.002  54.943 -54.849  1.00  0.00    -0.323 N 
HETATM   29  H   UNL     1     -42.758  54.740 -54.212  1.00  0.00     0.169 HD
HETATM   30  O   UNL     1     -39.747  54.567 -55.188  1.00  0.00    -0.267 OA
BRANCH  28  31
HETATM   31  C   UNL     1     -42.365  55.643 -56.020  1.00  0.00     0.035 A 
HETATM   32  C   UNL     1     -42.924  55.047 -57.153  1.00  0.00     0.031 A 
HETATM   33  C   UNL     1     -43.239  55.817 -58.280  1.00  0.00     0.026 A 
HETATM   34  C   UNL     1     -42.985  57.184 -58.283  1.00  0.00     0.034 A 
HETATM   35 CL   UNL     1     -43.372  58.124 -59.669  1.00  0.00    -0.084 Cl
HETATM   36  C   UNL     1     -42.423  57.793 -57.166  1.00  0.00     0.026 A 
HETATM   37  C   UNL     1     -42.120  57.024 -56.036  1.00  0.00     0.031 A 
ENDBRANCH  28  31
ENDBRANCH   9  27
TORSDOF 8
ENDMDL
MODEL 2
REMARK VINA RESULT:      -7.7      3.175      6.677
REMARK  8 active torsions:
REMARK  status: ('A' for Active; 'I' for Inactive)
REMARK    1  A    between atoms: C_2  and  O_3 
REMARK    2  A    between atoms: O_3  and  C_4 
REMARK    3  A    between atoms: C_4  and  C_5 
REMARK    4  A    between atoms: N_7  and  C_9 
REMARK    5  A    between atoms: C_9  and  C_10 
REMARK       I    between atoms: C_10  and  N_11 
REMARK    6  A    between atoms: N_11  and  C_12 
REMARK    7  A    between atoms: C_20  and  C_21 
REMARK       I    between atoms: C_21  and  N_22 
REMARK    8  A    between atoms: N_22  and  C_23 
ROOT
HETATM    1  C   UNL     1     -43.827  58.425 -56.487  1.00  0.00     0.093 C 
HETATM    2  S   UNL     1     -44.663  59.064 -57.812  1.00  0.00    -0.075 SA
HETATM    3  C   UNL     1     -44.574  57.583 -58.631  1.00  0.00    -0.008 C 
HETATM    4  C   UNL     1     -43.793  56.644 -57.971  1.00  0.00    -0.026 C 
HETATM    5  C   UNL     1     -43.544  55.294 -58.599  1.00  0.00     0.041 C 
HETATM    6  C   UNL     1     -43.961  55.226 -60.077  1.00  0.00     0.005 C 
HETATM    7  C   UNL     1     -45.311  55.909 -60.317  1.00  0.00     0.005 C 
HETATM    8  C   UNL     1     -45.238  57.397 -59.962  1.00  0.00     0.047 C 
HETATM    9  C   UNL     1     -43.303  57.155 -56.693  1.00  0.00     0.073 C 
ENDROOT
BRANCH   1  10
HETATM   10  N   UNL     1     -43.799  59.292 -55.412  1.00  0.00    -0.319 N 
HETATM   11  C   UNL     1     -42.829  60.266 -55.358  1.00  0.00     0.248 C 
HETATM   12  O   UNL     1     -41.831  60.329 -56.078  1.00  0.00    -0.271 OA
HETATM   13  H   UNL     1     -44.211  58.940 -54.556  1.00  0.00     0.169 HD
BRANCH  11  14
HETATM   14  C   UNL     1     -43.028  61.320 -54.267  1.00  0.00     0.337 C 
BRANCH  14  15
HETATM   15  N   UNL     1     -42.823  60.692 -52.888  1.00  0.00    -0.062 N 
HETATM   16  C   UNL     1     -41.545  59.875 -52.801  1.00  0.00     0.249 C 
HETATM   17  C   UNL     1     -41.562  59.028 -51.534  1.00  0.00     0.111 C 
HETATM   18  C   UNL     1     -41.861  59.865 -50.283  1.00  0.00     0.018 C 
HETATM   19  C   UNL     1     -43.032  60.839 -50.443  1.00  0.00     0.029 C 
HETATM   20  C   UNL     1     -42.979  61.637 -51.740  1.00  0.00     0.235 C 
HETATM   21  H   UNL     1     -43.597  59.990 -52.830  1.00  0.00     0.280 HD
BRANCH  17  22
HETATM   22  C   UNL     1     -42.590  57.943 -51.752  1.00  0.00     0.264 C 
HETATM   23  O   UNL     1     -43.307  57.916 -52.746  1.00  0.00    -0.265 OA
BRANCH  22  24
HETATM   24  O   UNL     1     -42.510  56.989 -50.796  1.00  0.00    -0.322 OA
BRANCH  24  25
HETATM   25  C   UNL     1     -41.184  56.488 -50.567  1.00  0.00     0.174 C 
HETATM   26  C   UNL     1     -41.236  55.513 -49.409  1.00  0.00     0.034 C 
ENDBRANCH  24  25
ENDBRANCH  22  24
ENDBRANCH  17  22
ENDBRANCH  14  15
ENDBRANCH  11  14
ENDBRANCH   1  10
BRANCH   9  27
HETATM   27  C   UNL     1     -42.343  56.547 -55.739  1.00  0.00     0.259 C 
HETATM   28  N   UNL     1     -42.617  55.243 -55.377  1.00  0.00    -0.323 N 
HETATM   29  H   UNL     1     -43.494  54.861 -55.700  1.00  0.00     0.169 HD
HETATM   30  O   UNL     1     -41.379  57.194 -55.327  1.00  0.00    -0.267 OA
BRANCH  28  31
HETATM   31  C   UNL     1     -41.819  54.366 -54.611  1.00  0.00     0.035 A 
HETATM   32  C   UNL     1     -40.739  53.638 -55.117  1.00  0.00     0.031 A 
HETATM   33  C   UNL     1     -40.010  52.777 -54.288  1.00  0.00     0.026 A 
HETATM   34  C   UNL     1     -40.365  52.630 -52.951  1.00  0.00     0.034 A 
HETATM   35 CL   UNL     1     -39.468  51.570 -51.938  1.00  0.00    -0.084 Cl
HETATM   36  C   UNL     1     -41.441  53.342 -52.432  1.00  0.00     0.026 A 
HETATM   37  C   UNL     1     -42.161  54.212 -53.259  1.00  0.00     0.031 A 
ENDBRANCH  28  31
ENDBRANCH   9  27
TORSDOF 8
ENDMDL
MODEL 3
REMARK VINA RESULT:      -7.6      2.545      4.890
REMARK  8 active torsions:
REMARK  status: ('A' for Active; 'I' for Inactive)
REMARK    1  A    between atoms: C_2  and  O_3 
REMARK    2  A    between atoms: O_3  and  C_4 
REMARK    3  A    between atoms: C_4  and  C_5 
REMARK    4  A    between atoms: N_7  and  C_9 
REMARK    5  A    between atoms: C_9  and  C_10 
REMARK       I    between atoms: C_10  and  N_11 
REMARK    6  A    between atoms: N_11  and  C_12 
REMARK    7  A    between atoms: C_20  and  C_21 
REMARK       I    between atoms: C_21  and  N_22 
REMARK    8  A    between atoms: N_22  and  C_23 
ROOT
HETATM    1  C   UNL     1     -41.070  54.769 -54.509  1.00  0.00     0.093 C 
HETATM    2  S   UNL     1     -40.150  53.349 -54.512  1.00  0.00    -0.075 SA
HETATM    3  C   UNL     1     -40.297  53.205 -52.830  1.00  0.00    -0.008 C 
HETATM    4  C   UNL     1     -40.918  54.299 -52.243  1.00  0.00    -0.026 C 
HETATM    5  C   UNL     1     -41.063  54.371 -50.742  1.00  0.00     0.041 C 
HETATM    6  C   UNL     1     -40.217  53.323 -50.001  1.00  0.00     0.005 C 
HETATM    7  C   UNL     1     -40.288  51.952 -50.681  1.00  0.00     0.005 C 
HETATM    8  C   UNL     1     -39.729  52.022 -52.105  1.00  0.00     0.047 C 
HETATM    9  C   UNL     1     -41.354  55.270 -53.245  1.00  0.00     0.073 C 
ENDROOT
BRANCH   1  10
HETATM   10  N   UNL     1     -41.379  55.201 -55.783  1.00  0.00    -0.319 N 
HETATM   11  C   UNL     1     -42.649  55.000 -56.274  1.00  0.00     0.248 C 
HETATM   12  O   UNL     1     -43.510  54.277 -55.768  1.00  0.00    -0.271 OA
HETATM   13  H   UNL     1     -40.596  55.274 -56.423  1.00  0.00     0.169 HD
BRANCH  11  14
HETATM   14  C   UNL     1     -42.961  55.724 -57.585  1.00  0.00     0.337 C 
BRANCH  14  15
HETATM   15  N   UNL     1     -43.968  56.848 -57.336  1.00  0.00    -0.062 N 
HETATM   16  C   UNL     1     -43.319  58.101 -56.774  1.00  0.00     0.249 C 
HETATM   17  C   UNL     1     -44.395  59.048 -56.254  1.00  0.00     0.111 C 
HETATM   18  C   UNL     1     -45.484  59.317 -57.301  1.00  0.00     0.018 C 
HETATM   19  C   UNL     1     -45.995  58.061 -58.014  1.00  0.00     0.029 C 
HETATM   20  C   UNL     1     -44.878  57.138 -58.485  1.00  0.00     0.235 C 
HETATM   21  H   UNL     1     -44.552  56.473 -56.553  1.00  0.00     0.280 HD
BRANCH  17  22
HETATM   22  C   UNL     1     -44.954  58.419 -54.999  1.00  0.00     0.264 C 
HETATM   23  O   UNL     1     -44.793  57.233 -54.738  1.00  0.00    -0.265 OA
BRANCH  22  24
HETATM   24  O   UNL     1     -45.517  59.348 -54.192  1.00  0.00    -0.322 OA
BRANCH  24  25
HETATM   25  C   UNL     1     -44.805  60.593 -54.134  1.00  0.00     0.174 C 
HETATM   26  C   UNL     1     -45.793  61.692 -53.799  1.00  0.00     0.034 C 
ENDBRANCH  24  25
ENDBRANCH  22  24
ENDBRANCH  17  22
ENDBRANCH  14  15
ENDBRANCH  11  14
ENDBRANCH   1  10
BRANCH   9  27
HETATM   27  C   UNL     1     -41.934  56.623 -53.057  1.00  0.00     0.259 C 
HETATM   28  N   UNL     1     -42.864  56.731 -52.042  1.00  0.00    -0.323 N 
HETATM   29  H   UNL     1     -43.147  55.870 -51.598  1.00  0.00     0.169 HD
HETATM   30  O   UNL     1     -41.579  57.558 -53.776  1.00  0.00    -0.267 OA
BRANCH  28  31
HETATM   31  C   UNL     1     -43.472  57.901 -51.540  1.00  0.00     0.035 A 
HETATM   32  C   UNL     1     -42.797  59.103 -51.309  1.00  0.00     0.031 A 
HETATM   33  C   UNL     1     -43.477  60.213 -50.792  1.00  0.00     0.026 A 
HETATM   34  C   UNL     1     -44.831  60.123 -50.491  1.00  0.00     0.034 A 
HETATM   35 CL   UNL     1     -45.660  61.487 -49.854  1.00  0.00    -0.084 Cl
HETATM   36  C   UNL     1     -45.517  58.932 -50.707  1.00  0.00     0.026 A 
HETATM   37  C   UNL     1     -44.840  57.827 -51.236  1.00  0.00     0.031 A 
ENDBRANCH  28  31
ENDBRANCH   9  27
TORSDOF 8
ENDMDL
MODEL 4
REMARK VINA RESULT:      -7.5      2.143      3.465
REMARK  8 active torsions:
REMARK  status: ('A' for Active; 'I' for Inactive)
REMARK    1  A    between atoms: C_2  and  O_3 
REMARK    2  A    between atoms: O_3  and  C_4 
REMARK    3  A    between atoms: C_4  and  C_5 
REMARK    4  A    between atoms: N_7  and  C_9 
REMARK    5  A    between atoms: C_9  and  C_10 
REMARK       I    between atoms: C_10  and  N_11 
REMARK    6  A    between atoms: N_11  and  C_12 
REMARK    7  A    between atoms: C_20  and  C_21 
REMARK       I    between atoms: C_21  and  N_22 
REMARK    8  A    between atoms: N_22  and  C_23 
ROOT
HETATM    1  C   UNL     1     -41.418  55.521 -52.136  1.00  0.00     0.093 C 
HETATM    2  S   UNL     1     -40.639  54.497 -51.037  1.00  0.00    -0.075 SA
HETATM    3  C   UNL     1     -40.451  53.303 -52.226  1.00  0.00    -0.008 C 
HETATM    4  C   UNL     1     -41.096  53.613 -53.415  1.00  0.00    -0.026 C 
HETATM    5  C   UNL     1     -41.095  52.625 -54.556  1.00  0.00     0.041 C 
HETATM    6  C   UNL     1     -40.607  51.226 -54.145  1.00  0.00     0.005 C 
HETATM    7  C   UNL     1     -39.377  51.299 -53.235  1.00  0.00     0.005 C 
HETATM    8  C   UNL     1     -39.707  52.035 -51.932  1.00  0.00     0.047 C 
HETATM    9  C   UNL     1     -41.718  54.934 -53.358  1.00  0.00     0.073 C 
ENDROOT
BRANCH   1  10
HETATM   10  N   UNL     1     -41.634  56.783 -51.619  1.00  0.00    -0.319 N 
HETATM   11  C   UNL     1     -41.135  57.879 -52.287  1.00  0.00     0.248 C 
HETATM   12  O   UNL     1     -40.321  57.849 -53.212  1.00  0.00    -0.271 OA
HETATM   13  H   UNL     1     -41.784  56.827 -50.619  1.00  0.00     0.169 HD
BRANCH  11  14
HETATM   14  C   UNL     1     -41.631  59.232 -51.775  1.00  0.00     0.337 C 
BRANCH  14  15
HETATM   15  N   UNL     1     -43.138  59.358 -52.001  1.00  0.00    -0.062 N 
HETATM   16  C   UNL     1     -43.754  60.503 -51.215  1.00  0.00     0.249 C 
HETATM   17  C   UNL     1     -45.273  60.376 -51.227  1.00  0.00     0.111 C 
HETATM   18  C   UNL     1     -45.828  60.217 -52.648  1.00  0.00     0.018 C 
HETATM   19  C   UNL     1     -45.072  59.200 -53.509  1.00  0.00     0.029 C 
HETATM   20  C   UNL     1     -43.558  59.355 -53.435  1.00  0.00     0.235 C 
HETATM   21  H   UNL     1     -43.517  58.491 -51.556  1.00  0.00     0.280 HD
BRANCH  17  22
HETATM   22  C   UNL     1     -45.616  59.197 -50.346  1.00  0.00     0.264 C 
HETATM   23  O   UNL     1     -45.409  58.041 -50.697  1.00  0.00    -0.265 OA
BRANCH  22  24
HETATM   24  O   UNL     1     -46.042  59.601 -49.127  1.00  0.00    -0.322 OA
BRANCH  24  25
HETATM   25  C   UNL     1     -45.828  60.994 -48.855  1.00  0.00     0.174 C 
HETATM   26  C   UNL     1     -45.114  61.116 -47.524  1.00  0.00     0.034 C 
ENDBRANCH  24  25
ENDBRANCH  22  24
ENDBRANCH  17  22
ENDBRANCH  14  15
ENDBRANCH  11  14
ENDBRANCH   1  10
BRANCH   9  27
HETATM   27  C   UNL     1     -42.608  55.600 -54.342  1.00  0.00     0.259 C 
HETATM   28  N   UNL     1     -41.976  56.116 -55.456  1.00  0.00    -0.323 N 
HETATM   29  H   UNL     1     -40.967  56.094 -55.450  1.00  0.00     0.169 HD
HETATM   30  O   UNL     1     -43.822  55.663 -54.141  1.00  0.00    -0.267 OA
BRANCH  28  31
HETATM   31  C   UNL     1     -42.565  56.669 -56.613  1.00  0.00     0.035 A 
HETATM   32  C   UNL     1     -42.767  58.036 -56.817  1.00  0.00     0.031 A 
HETATM   33  C   UNL     1     -43.375  58.499 -57.991  1.00  0.00     0.026 A 
HETATM   34  C   UNL     1     -43.796  57.595 -58.961  1.00  0.00     0.034 A 
HETATM   35 CL   UNL     1     -44.544  58.167 -60.398  1.00  0.00    -0.084 Cl
HETATM   36  C   UNL     1     -43.608  56.230 -58.771  1.00  0.00     0.026 A 
HETATM   37  C   UNL     1     -42.989  55.770 -57.603  1.00  0.00     0.031 A 
ENDBRANCH  28  31
ENDBRANCH   9  27
TORSDOF 8
ENDMDL
MODEL 5
REMARK VINA RESULT:      -7.5      1.849      2.508
REMARK  8 active torsions:
REMARK  status: ('A' for Active; 'I' for Inactive)
REMARK    1  A    between atoms: C_2  and  O_3 
REMARK    2  A    between atoms: O_3  and  C_4 
REMARK    3  A    between atoms: C_4  and  C_5 
REMARK    4  A    between atoms: N_7  and  C_9 
REMARK    5  A    between atoms: C_9  and  C_10 
REMARK       I    between atoms: C_10  and  N_11 
REMARK    6  A    between atoms: N_11  and  C_12 
REMARK    7  A    between atoms: C_20  and  C_21 
REMARK       I    between atoms: C_21  and  N_22 
REMARK    8  A    between atoms: N_22  and  C_23 
ROOT
HETATM    1  C   UNL     1     -42.336  55.046 -51.909  1.00  0.00     0.093 C 
HETATM    2  S   UNL     1     -41.460  54.158 -50.766  1.00  0.00    -0.075 SA
HETATM    3  C   UNL     1     -40.825  53.155 -51.975  1.00  0.00    -0.008 C 
HETATM    4  C   UNL     1     -41.378  53.395 -53.226  1.00  0.00    -0.026 C 
HETATM    5  C   UNL     1     -40.981  52.539 -54.404  1.00  0.00     0.041 C 
HETATM    6  C   UNL     1     -40.202  51.276 -54.001  1.00  0.00     0.005 C 
HETATM    7  C   UNL     1     -39.155  51.575 -52.924  1.00  0.00     0.005 C 
HETATM    8  C   UNL     1     -39.821  52.092 -51.645  1.00  0.00     0.047 C 
HETATM    9  C   UNL     1     -42.322  54.510 -53.190  1.00  0.00     0.073 C 
ENDROOT
BRANCH   1  10
HETATM   10  N   UNL     1     -42.932  56.166 -51.365  1.00  0.00    -0.319 N 
HETATM   11  C   UNL     1     -42.279  57.376 -51.429  1.00  0.00     0.248 C 
HETATM   12  O   UNL     1     -41.100  57.542 -51.748  1.00  0.00    -0.271 OA
HETATM   13  H   UNL     1     -43.597  55.990 -50.621  1.00  0.00     0.169 HD
BRANCH  11  14
HETATM   14  C   UNL     1     -43.118  58.589 -51.023  1.00  0.00     0.337 C 
BRANCH  14  15
HETATM   15  N   UNL     1     -43.058  59.658 -52.115  1.00  0.00    -0.062 N 
HETATM   16  C   UNL     1     -43.738  59.219 -53.401  1.00  0.00     0.249 C 
HETATM   17  C   UNL     1     -43.369  60.175 -54.530  1.00  0.00     0.111 C 
HETATM   18  C   UNL     1     -43.621  61.640 -54.152  1.00  0.00     0.018 C 
HETATM   19  C   UNL     1     -43.109  62.029 -52.761  1.00  0.00     0.029 C 
HETATM   20  C   UNL     1     -43.482  61.023 -51.679  1.00  0.00     0.235 C 
HETATM   21  H   UNL     1     -42.039  59.700 -52.349  1.00  0.00     0.280 HD
BRANCH  17  22
HETATM   22  C   UNL     1     -41.917  59.914 -54.860  1.00  0.00     0.264 C 
HETATM   23  O   UNL     1     -41.046  59.899 -53.999  1.00  0.00    -0.265 OA
BRANCH  22  24
HETATM   24  O   UNL     1     -41.761  59.588 -56.164  1.00  0.00    -0.322 OA
BRANCH  24  25
HETATM   25  C   UNL     1     -41.926  60.685 -57.075  1.00  0.00     0.174 C 
HETATM   26  C   UNL     1     -41.842  60.148 -58.489  1.00  0.00     0.034 C 
ENDBRANCH  24  25
ENDBRANCH  22  24
ENDBRANCH  17  22
ENDBRANCH  14  15
ENDBRANCH  11  14
ENDBRANCH   1  10
BRANCH   9  27
HETATM   27  C   UNL     1     -43.225  55.014 -54.254  1.00  0.00     0.259 C 
HETATM   28  N   UNL     1     -42.636  55.851 -55.182  1.00  0.00    -0.323 N 
HETATM   29  H   UNL     1     -41.685  56.131 -54.994  1.00  0.00     0.169 HD
HETATM   30  O   UNL     1     -44.412  54.682 -54.273  1.00  0.00    -0.267 OA
BRANCH  28  31
HETATM   31  C   UNL     1     -43.197  56.364 -56.370  1.00  0.00     0.035 A 
HETATM   32  C   UNL     1     -44.164  57.372 -56.414  1.00  0.00     0.031 A 
HETATM   33  C   UNL     1     -44.679  57.812 -57.640  1.00  0.00     0.026 A 
HETATM   34  C   UNL     1     -44.239  57.236 -58.827  1.00  0.00     0.034 A 
HETATM   35 CL   UNL     1     -44.876  57.777 -60.329  1.00  0.00    -0.084 Cl
HETATM   36  C   UNL     1     -43.282  56.227 -58.802  1.00  0.00     0.026 A 
HETATM   37  C   UNL     1     -42.759  55.798 -57.577  1.00  0.00     0.031 A 
ENDBRANCH  28  31
ENDBRANCH   9  27
TORSDOF 8
ENDMDL
MODEL 6
REMARK VINA RESULT:      -7.5      3.212      6.558
REMARK  8 active torsions:
REMARK  status: ('A' for Active; 'I' for Inactive)
REMARK    1  A    between atoms: C_2  and  O_3 
REMARK    2  A    between atoms: O_3  and  C_4 
REMARK    3  A    between atoms: C_4  and  C_5 
REMARK    4  A    between atoms: N_7  and  C_9 
REMARK    5  A    between atoms: C_9  and  C_10 
REMARK       I    between atoms: C_10  and  N_11 
REMARK    6  A    between atoms: N_11  and  C_12 
REMARK    7  A    between atoms: C_20  and  C_21 
REMARK       I    between atoms: C_21  and  N_22 
REMARK    8  A    between atoms: N_22  and  C_23 
ROOT
HETATM    1  C   UNL     1     -43.556  57.237 -54.907  1.00  0.00     0.093 C 
HETATM    2  S   UNL     1     -43.974  58.862 -54.688  1.00  0.00    -0.075 SA
HETATM    3  C   UNL     1     -43.020  58.958 -53.291  1.00  0.00    -0.008 C 
HETATM    4  C   UNL     1     -42.496  57.732 -52.905  1.00  0.00    -0.026 C 
HETATM    5  C   UNL     1     -41.683  57.623 -51.638  1.00  0.00     0.041 C 
HETATM    6  C   UNL     1     -41.782  58.871 -50.745  1.00  0.00     0.005 C 
HETATM    7  C   UNL     1     -41.695  60.162 -51.564  1.00  0.00     0.005 C 
HETATM    8  C   UNL     1     -42.857  60.256 -52.558  1.00  0.00     0.047 C 
HETATM    9  C   UNL     1     -42.846  56.677 -53.853  1.00  0.00     0.073 C 
ENDROOT
BRANCH   1  10
HETATM   10  N   UNL     1     -44.006  56.733 -56.111  1.00  0.00    -0.319 N 
HETATM   11  C   UNL     1     -43.193  56.809 -57.219  1.00  0.00     0.248 C 
HETATM   12  O   UNL     1     -42.160  57.475 -57.310  1.00  0.00    -0.271 OA
HETATM   13  H   UNL     1     -45.012  56.703 -56.224  1.00  0.00     0.169 HD
BRANCH  11  14
HETATM   14  C   UNL     1     -43.675  56.012 -58.433  1.00  0.00     0.337 C 
BRANCH  14  15
HETATM   15  N   UNL     1     -44.995  56.588 -58.949  1.00  0.00    -0.062 N 
HETATM   16  C   UNL     1     -44.907  58.074 -59.249  1.00  0.00     0.249 C 
HETATM   17  C   UNL     1     -46.307  58.643 -59.444  1.00  0.00     0.111 C 
HETATM   18  C   UNL     1     -47.120  57.840 -60.467  1.00  0.00     0.018 C 
HETATM   19  C   UNL     1     -47.043  56.322 -60.281  1.00  0.00     0.029 C 
HETATM   20  C   UNL     1     -45.623  55.813 -60.061  1.00  0.00     0.235 C 
HETATM   21  H   UNL     1     -45.624  56.517 -58.116  1.00  0.00     0.280 HD
BRANCH  17  22
HETATM   22  C   UNL     1     -46.961  58.656 -58.081  1.00  0.00     0.264 C 
HETATM   23  O   UNL     1     -46.448  58.118 -57.107  1.00  0.00    -0.265 OA
BRANCH  22  24
HETATM   24  O   UNL     1     -48.075  59.425 -58.078  1.00  0.00    -0.322 OA
BRANCH  24  25
HETATM   25  C   UNL     1     -47.822  60.838 -58.081  1.00  0.00     0.174 C 
HETATM   26  C   UNL     1     -48.880  61.514 -57.232  1.00  0.00     0.034 C 
ENDBRANCH  24  25
ENDBRANCH  22  24
ENDBRANCH  17  22
ENDBRANCH  14  15
ENDBRANCH  11  14
ENDBRANCH   1  10
BRANCH   9  27
HETATM   27  C   UNL     1     -42.611  55.214 -53.764  1.00  0.00     0.259 C 
HETATM   28  N   UNL     1     -41.294  54.837 -53.590  1.00  0.00    -0.323 N 
HETATM   29  H   UNL     1     -40.605  55.572 -53.650  1.00  0.00     0.169 HD
HETATM   30  O   UNL     1     -43.555  54.426 -53.842  1.00  0.00    -0.267 OA
BRANCH  28  31
HETATM   31  C   UNL     1     -40.785  53.546 -53.332  1.00  0.00     0.035 A 
HETATM   32  C   UNL     1     -40.292  53.127 -52.095  1.00  0.00     0.031 A 
HETATM   33  C   UNL     1     -39.789  51.829 -51.931  1.00  0.00     0.026 A 
HETATM   34  C   UNL     1     -39.766  50.950 -53.009  1.00  0.00     0.034 A 
HETATM   35 CL   UNL     1     -39.146  49.361 -52.804  1.00  0.00    -0.084 Cl
HETATM   36  C   UNL     1     -40.247  51.354 -54.250  1.00  0.00     0.026 A 
HETATM   37  C   UNL     1     -40.760  52.646 -54.409  1.00  0.00     0.031 A 
ENDBRANCH  28  31
ENDBRANCH   9  27
TORSDOF 8
ENDMDL
MODEL 7
REMARK VINA RESULT:      -7.4      3.293      5.705
REMARK  8 active torsions:
REMARK  status: ('A' for Active; 'I' for Inactive)
REMARK    1  A    between atoms: C_2  and  O_3 
REMARK    2  A    between atoms: O_3  and  C_4 
REMARK    3  A    between atoms: C_4  and  C_5 
REMARK    4  A    between atoms: N_7  and  C_9 
REMARK    5  A    between atoms: C_9  and  C_10 
REMARK       I    between atoms: C_10  and  N_11 
REMARK    6  A    between atoms: N_11  and  C_12 
REMARK    7  A    between atoms: C_20  and  C_21 
REMARK       I    between atoms: C_21  and  N_22 
REMARK    8  A    between atoms: N_22  and  C_23 
ROOT
HETATM    1  C   UNL     1     -43.586  55.492 -54.134  1.00  0.00     0.093 C 
HETATM    2  S   UNL     1     -42.783  54.519 -55.261  1.00  0.00    -0.075 SA
HETATM    3  C   UNL     1     -41.839  53.818 -54.041  1.00  0.00    -0.008 C 
HETATM    4  C   UNL     1     -42.025  54.413 -52.801  1.00  0.00    -0.026 C 
HETATM    5  C   UNL     1     -41.206  53.963 -51.616  1.00  0.00     0.041 C 
HETATM    6  C   UNL     1     -40.020  53.065 -52.005  1.00  0.00     0.005 C 
HETATM    7  C   UNL     1     -40.415  52.029 -53.061  1.00  0.00     0.005 C 
HETATM    8  C   UNL     1     -40.872  52.715 -54.352  1.00  0.00     0.047 C 
HETATM    9  C   UNL     1     -43.049  55.454 -52.853  1.00  0.00     0.073 C 
ENDROOT
BRANCH   1  10
HETATM   10  N   UNL     1     -44.648  56.178 -54.689  1.00  0.00    -0.319 N 
HETATM   11  C   UNL     1     -44.437  57.428 -55.224  1.00  0.00     0.248 C 
HETATM   12  O   UNL     1     -43.421  58.111 -55.081  1.00  0.00    -0.271 OA
HETATM   13  H   UNL     1     -45.564  55.928 -54.334  1.00  0.00     0.169 HD
BRANCH  11  14
HETATM   14  C   UNL     1     -45.609  57.996 -56.027  1.00  0.00     0.337 C 
BRANCH  14  15
HETATM   15  N   UNL     1     -45.150  58.365 -57.438  1.00  0.00    -0.062 N 
HETATM   16  C   UNL     1     -45.924  57.627 -58.517  1.00  0.00     0.249 C 
HETATM   17  C   UNL     1     -45.216  57.787 -59.857  1.00  0.00     0.111 C 
HETATM   18  C   UNL     1     -44.924  59.257 -60.185  1.00  0.00     0.018 C 
HETATM   19  C   UNL     1     -44.326  60.054 -59.022  1.00  0.00     0.029 C 
HETATM   20  C   UNL     1     -45.055  59.832 -57.702  1.00  0.00     0.235 C 
HETATM   21  H   UNL     1     -44.182  57.970 -57.482  1.00  0.00     0.280 HD
BRANCH  17  22
HETATM   22  C   UNL     1     -43.954  56.959 -59.782  1.00  0.00     0.264 C 
HETATM   23  O   UNL     1     -43.201  57.006 -58.817  1.00  0.00    -0.265 OA
BRANCH  22  24
HETATM   24  O   UNL     1     -43.861  56.108 -60.831  1.00  0.00    -0.322 OA
BRANCH  24  25
HETATM   25  C   UNL     1     -44.936  55.162 -60.925  1.00  0.00     0.174 C 
HETATM   26  C   UNL     1     -44.760  54.129 -59.830  1.00  0.00     0.034 C 
ENDBRANCH  24  25
ENDBRANCH  22  24
ENDBRANCH  17  22
ENDBRANCH  14  15
ENDBRANCH  11  14
ENDBRANCH   1  10
BRANCH   9  27
HETATM   27  C   UNL     1     -43.467  56.420 -51.806  1.00  0.00     0.259 C 
HETATM   28  N   UNL     1     -43.118  57.735 -52.043  1.00  0.00    -0.323 N 
HETATM   29  H   UNL     1     -42.521  57.905 -52.839  1.00  0.00     0.169 HD
HETATM   30  O   UNL     1     -44.084  56.033 -50.813  1.00  0.00    -0.267 OA
BRANCH  28  31
HETATM   31  C   UNL     1     -43.495  58.880 -51.311  1.00  0.00     0.035 A 
HETATM   32  C   UNL     1     -44.815  59.215 -50.997  1.00  0.00     0.031 A 
HETATM   33  C   UNL     1     -45.102  60.383 -50.279  1.00  0.00     0.026 A 
HETATM   34  C   UNL     1     -44.070  61.228 -49.883  1.00  0.00     0.034 A 
HETATM   35 CL   UNL     1     -44.427  62.662 -49.004  1.00  0.00    -0.084 Cl
HETATM   36  C   UNL     1     -42.751  60.914 -50.193  1.00  0.00     0.026 A 
HETATM   37  C   UNL     1     -42.465  59.740 -50.900  1.00  0.00     0.031 A 
ENDBRANCH  28  31
ENDBRANCH   9  27
TORSDOF 8
ENDMDL
MODEL 8
REMARK VINA RESULT:      -7.3      3.212      6.910
REMARK  8 active torsions:
REMARK  status: ('A' for Active; 'I' for Inactive)
REMARK    1  A    between atoms: C_2  and  O_3 
REMARK    2  A    between atoms: O_3  and  C_4 
REMARK    3  A    between atoms: C_4  and  C_5 
REMARK    4  A    between atoms: N_7  and  C_9 
REMARK    5  A    between atoms: C_9  and  C_10 
REMARK       I    between atoms: C_10  and  N_11 
REMARK    6  A    between atoms: N_11  and  C_12 
REMARK    7  A    between atoms: C_20  and  C_21 
REMARK       I    between atoms: C_21  and  N_22 
REMARK    8  A    between atoms: N_22  and  C_23 
ROOT
HETATM    1  C   UNL     1     -42.142  59.959 -54.853  1.00  0.00     0.093 C 
HETATM    2  S   UNL     1     -43.253  61.234 -54.792  1.00  0.00    -0.075 SA
HETATM    3  C   UNL     1     -43.079  61.355 -53.111  1.00  0.00    -0.008 C 
HETATM    4  C   UNL     1     -42.292  60.347 -52.572  1.00  0.00    -0.026 C 
HETATM    5  C   UNL     1     -42.094  60.260 -51.078  1.00  0.00     0.041 C 
HETATM    6  C   UNL     1     -43.057  61.159 -50.286  1.00  0.00     0.005 C 
HETATM    7  C   UNL     1     -43.201  62.542 -50.928  1.00  0.00     0.005 C 
HETATM    8  C   UNL     1     -43.786  62.428 -52.339  1.00  0.00     0.047 C 
HETATM    9  C   UNL     1     -41.752  59.474 -53.612  1.00  0.00     0.073 C 
ENDROOT
BRANCH   1  10
HETATM   10  N   UNL     1     -41.813  59.607 -56.147  1.00  0.00    -0.319 N 
HETATM   11  C   UNL     1     -42.506  58.591 -56.765  1.00  0.00     0.248 C 
HETATM   12  O   UNL     1     -43.273  57.802 -56.211  1.00  0.00    -0.271 OA
HETATM   13  H   UNL     1     -40.862  59.815 -56.429  1.00  0.00     0.169 HD
BRANCH  11  14
HETATM   14  C   UNL     1     -42.238  58.442 -58.264  1.00  0.00     0.337 C 
BRANCH  14  15
HETATM   15  N   UNL     1     -43.244  57.471 -58.883  1.00  0.00    -0.062 N 
HETATM   16  C   UNL     1     -43.867  58.009 -60.160  1.00  0.00     0.249 C 
HETATM   17  C   UNL     1     -45.072  57.159 -60.542  1.00  0.00     0.111 C 
HETATM   18  C   UNL     1     -44.733  55.663 -60.589  1.00  0.00     0.018 C 
HETATM   19  C   UNL     1     -43.924  55.164 -59.387  1.00  0.00     0.029 C 
HETATM   20  C   UNL     1     -42.751  56.068 -59.032  1.00  0.00     0.235 C 
HETATM   21  H   UNL     1     -44.024  57.462 -58.186  1.00  0.00     0.280 HD
BRANCH  17  22
HETATM   22  C   UNL     1     -46.155  57.466 -59.535  1.00  0.00     0.264 C 
HETATM   23  O   UNL     1     -47.113  56.721 -59.361  1.00  0.00    -0.265 OA
BRANCH  22  24
HETATM   24  O   UNL     1     -45.850  58.563 -58.804  1.00  0.00    -0.322 OA
BRANCH  24  25
HETATM   25  C   UNL     1     -46.446  58.591 -57.498  1.00  0.00     0.174 C 
HETATM   26  C   UNL     1     -46.181  59.950 -56.881  1.00  0.00     0.034 C 
ENDBRANCH  24  25
ENDBRANCH  22  24
ENDBRANCH  17  22
ENDBRANCH  14  15
ENDBRANCH  11  14
ENDBRANCH   1  10
BRANCH   9  27
HETATM   27  C   UNL     1     -40.982  58.213 -53.477  1.00  0.00     0.259 C 
HETATM   28  N   UNL     1     -41.698  57.055 -53.711  1.00  0.00    -0.323 N 
HETATM   29  H   UNL     1     -42.693  57.161 -53.840  1.00  0.00     0.169 HD
HETATM   30  O   UNL     1     -39.787  58.241 -53.179  1.00  0.00    -0.267 OA
BRANCH  28  31
HETATM   31  C   UNL     1     -41.212  55.733 -53.797  1.00  0.00     0.035 A 
HETATM   32  C   UNL     1     -40.620  55.184 -54.938  1.00  0.00     0.031 A 
HETATM   33  C   UNL     1     -40.179  53.855 -54.941  1.00  0.00     0.026 A 
HETATM   34  C   UNL     1     -40.340  53.065 -53.808  1.00  0.00     0.034 A 
HETATM   35 CL   UNL     1     -39.799  51.433 -53.818  1.00  0.00    -0.084 Cl
HETATM   36  C   UNL     1     -40.933  53.593 -52.666  1.00  0.00     0.026 A 
HETATM   37  C   UNL     1     -41.361  54.925 -52.660  1.00  0.00     0.031 A 
ENDBRANCH  28  31
ENDBRANCH   9  27
TORSDOF 8
ENDMDL
MODEL 9
REMARK VINA RESULT:      -7.2      3.193      5.702
REMARK  8 active torsions:
REMARK  status: ('A' for Active; 'I' for Inactive)
REMARK    1  A    between atoms: C_2  and  O_3 
REMARK    2  A    between atoms: O_3  and  C_4 
REMARK    3  A    between atoms: C_4  and  C_5 
REMARK    4  A    between atoms: N_7  and  C_9 
REMARK    5  A    between atoms: C_9  and  C_10 
REMARK       I    between atoms: C_10  and  N_11 
REMARK    6  A    between atoms: N_11  and  C_12 
REMARK    7  A    between atoms: C_20  and  C_21 
REMARK       I    between atoms: C_21  and  N_22 
REMARK    8  A    between atoms: N_22  and  C_23 
ROOT
HETATM    1  C   UNL     1     -43.261  55.206 -54.041  1.00  0.00     0.093 C 
HETATM    2  S   UNL     1     -42.423  54.189 -55.102  1.00  0.00    -0.075 SA
HETATM    3  C   UNL     1     -41.518  53.540 -53.824  1.00  0.00    -0.008 C 
HETATM    4  C   UNL     1     -41.744  54.185 -52.616  1.00  0.00    -0.026 C 
HETATM    5  C   UNL     1     -40.963  53.784 -51.388  1.00  0.00     0.041 C 
HETATM    6  C   UNL     1     -39.764  52.874 -51.702  1.00  0.00     0.005 C 
HETATM    7  C   UNL     1     -40.125  51.795 -52.727  1.00  0.00     0.005 C 
HETATM    8  C   UNL     1     -40.541  52.427 -54.059  1.00  0.00     0.047 C 
HETATM    9  C   UNL     1     -42.766  55.221 -52.743  1.00  0.00     0.073 C 
ENDROOT
BRANCH   1  10
HETATM   10  N   UNL     1     -44.306  55.866 -54.657  1.00  0.00    -0.319 N 
HETATM   11  C   UNL     1     -44.084  57.106 -55.213  1.00  0.00     0.248 C 
HETATM   12  O   UNL     1     -43.082  57.803 -55.042  1.00  0.00    -0.271 OA
HETATM   13  H   UNL     1     -45.233  55.615 -54.336  1.00  0.00     0.169 HD
BRANCH  11  14
HETATM   14  C   UNL     1     -45.227  57.643 -56.078  1.00  0.00     0.337 C 
BRANCH  14  15
HETATM   15  N   UNL     1     -44.795  57.695 -57.544  1.00  0.00    -0.062 N 
HETATM   16  C   UNL     1     -43.798  56.604 -57.899  1.00  0.00     0.249 C 
HETATM   17  C   UNL     1     -43.173  56.902 -59.257  1.00  0.00     0.111 C 
HETATM   18  C   UNL     1     -44.231  57.165 -60.336  1.00  0.00     0.018 C 
HETATM   19  C   UNL     1     -45.351  58.115 -59.901  1.00  0.00     0.029 C 
HETATM   20  C   UNL     1     -45.918  57.787 -58.525  1.00  0.00     0.235 C 
HETATM   21  H   UNL     1     -44.249  58.586 -57.598  1.00  0.00     0.280 HD
BRANCH  17  22
HETATM   22  C   UNL     1     -42.255  58.086 -59.059  1.00  0.00     0.264 C 
HETATM   23  O   UNL     1     -41.841  58.411 -57.953  1.00  0.00    -0.265 OA
BRANCH  22  24
HETATM   24  O   UNL     1     -41.879  58.620 -60.245  1.00  0.00    -0.322 OA
BRANCH  24  25
HETATM   25  C   UNL     1     -41.938  60.053 -60.296  1.00  0.00     0.174 C 
HETATM   26  C   UNL     1     -42.348  60.464 -61.696  1.00  0.00     0.034 C 
ENDBRANCH  24  25
ENDBRANCH  22  24
ENDBRANCH  17  22
ENDBRANCH  14  15
ENDBRANCH  11  14
ENDBRANCH   1  10
BRANCH   9  27
HETATM   27  C   UNL     1     -43.218  56.227 -51.750  1.00  0.00     0.259 C 
HETATM   28  N   UNL     1     -42.854  57.531 -52.024  1.00  0.00    -0.323 N 
HETATM   29  H   UNL     1     -42.227  57.668 -52.802  1.00  0.00     0.169 HD
HETATM   30  O   UNL     1     -43.873  55.881 -50.766  1.00  0.00    -0.267 OA
BRANCH  28  31
HETATM   31  C   UNL     1     -43.252  58.705 -51.351  1.00  0.00     0.035 A 
HETATM   32  C   UNL     1     -44.582  59.085 -51.148  1.00  0.00     0.031 A 
HETATM   33  C   UNL     1     -44.888  60.278 -50.482  1.00  0.00     0.026 A 
HETATM   34  C   UNL     1     -43.866  61.104 -50.027  1.00  0.00     0.034 A 
HETATM   35 CL   UNL     1     -44.247  62.569 -49.213  1.00  0.00    -0.084 Cl
HETATM   36  C   UNL     1     -42.537  60.746 -50.226  1.00  0.00     0.026 A 
HETATM   37  C   UNL     1     -42.232  59.546 -50.881  1.00  0.00     0.031 A 
ENDBRANCH  28  31
ENDBRANCH   9  27
TORSDOF 8
ENDMDL
MODEL 10
REMARK VINA RESULT:      -7.1      3.166      6.851
REMARK  8 active torsions:
REMARK  status: ('A' for Active; 'I' for Inactive)
REMARK    1  A    between atoms: C_2  and  O_3 
REMARK    2  A    between atoms: O_3  and  C_4 
REMARK    3  A    between atoms: C_4  and  C_5 
REMARK    4  A    between atoms: N_7  and  C_9 
REMARK    5  A    between atoms: C_9  and  C_10 
REMARK       I    between atoms: C_10  and  N_11 
REMARK    6  A    between atoms: N_11  and  C_12 
REMARK    7  A    between atoms: C_20  and  C_21 
REMARK       I    between atoms: C_21  and  N_22 
REMARK    8  A    between atoms: N_22  and  C_23 
ROOT
HETATM    1  C   UNL     1     -44.447  58.852 -55.166  1.00  0.00     0.093 C 
HETATM    2  S   UNL     1     -45.294  60.286 -54.867  1.00  0.00    -0.075 SA
HETATM    3  C   UNL     1     -45.311  59.974 -53.201  1.00  0.00    -0.008 C 
HETATM    4  C   UNL     1     -44.804  58.723 -52.878  1.00  0.00    -0.026 C 
HETATM    5  C   UNL     1     -44.815  58.251 -51.444  1.00  0.00     0.041 C 
HETATM    6  C   UNL     1     -45.681  59.127 -50.524  1.00  0.00     0.005 C 
HETATM    7  C   UNL     1     -45.477  60.619 -50.805  1.00  0.00     0.005 C 
HETATM    8  C   UNL     1     -45.892  60.965 -52.238  1.00  0.00     0.047 C 
HETATM    9  C   UNL     1     -44.315  58.020 -54.062  1.00  0.00     0.073 C 
ENDROOT
BRANCH   1  10
HETATM   10  N   UNL     1     -44.032  58.747 -56.478  1.00  0.00    -0.319 N 
HETATM   11  C   UNL     1     -42.688  58.817 -56.767  1.00  0.00     0.248 C 
HETATM   12  O   UNL     1     -41.801  59.174 -55.989  1.00  0.00    -0.271 OA
HETATM   13  H   UNL     1     -44.713  59.021 -57.176  1.00  0.00     0.169 HD
BRANCH  11  14
HETATM   14  C   UNL     1     -42.313  58.447 -58.204  1.00  0.00     0.337 C 
BRANCH  14  15
HETATM   15  N   UNL     1     -43.172  57.278 -58.686  1.00  0.00    -0.062 N 
HETATM   16  C   UNL     1     -43.364  57.275 -60.193  1.00  0.00     0.249 C 
HETATM   17  C   UNL     1     -44.471  56.298 -60.569  1.00  0.00     0.111 C 
HETATM   18  C   UNL     1     -44.247  54.908 -59.959  1.00  0.00     0.018 C 
HETATM   19  C   UNL     1     -43.854  54.926 -58.479  1.00  0.00     0.029 C 
HETATM   20  C   UNL     1     -42.765  55.942 -58.157  1.00  0.00     0.235 C 
HETATM   21  H   UNL     1     -44.117  57.502 -58.295  1.00  0.00     0.280 HD
BRANCH  17  22
HETATM   22  C   UNL     1     -45.770  56.918 -60.109  1.00  0.00     0.264 C 
HETATM   23  O   UNL     1     -46.800  56.265 -59.997  1.00  0.00    -0.265 OA
BRANCH  22  24
HETATM   24  O   UNL     1     -45.594  58.208 -59.736  1.00  0.00    -0.322 OA
BRANCH  24  25
HETATM   25  C   UNL     1     -46.811  58.920 -59.469  1.00  0.00     0.174 C 
HETATM   26  C   UNL     1     -47.138  58.772 -57.997  1.00  0.00     0.034 C 
ENDBRANCH  24  25
ENDBRANCH  22  24
ENDBRANCH  17  22
ENDBRANCH  14  15
ENDBRANCH  11  14
ENDBRANCH   1  10
BRANCH   9  27
HETATM   27  C   UNL     1     -43.822  56.626 -54.194  1.00  0.00     0.259 C 
HETATM   28  N   UNL     1     -42.473  56.452 -53.957  1.00  0.00    -0.323 N 
HETATM   29  H   UNL     1     -41.928  57.292 -53.827  1.00  0.00     0.169 HD
HETATM   30  O   UNL     1     -44.597  55.716 -54.492  1.00  0.00    -0.267 OA
BRANCH  28  31
HETATM   31  C   UNL     1     -41.753  55.242 -53.868  1.00  0.00     0.035 A 
HETATM   32  C   UNL     1     -41.788  54.384 -52.766  1.00  0.00     0.031 A 
HETATM   33  C   UNL     1     -41.028  53.207 -52.755  1.00  0.00     0.026 A 
HETATM   34  C   UNL     1     -40.220  52.890 -53.842  1.00  0.00     0.034 A 
HETATM   35 CL   UNL     1     -39.287  51.447 -53.823  1.00  0.00    -0.084 Cl
HETATM   36  C   UNL     1     -40.168  53.736 -54.945  1.00  0.00     0.026 A 
HETATM   37  C   UNL     1     -40.938  54.905 -54.959  1.00  0.00     0.031 A 
ENDBRANCH  28  31
ENDBRANCH   9  27
TORSDOF 8
ENDMDL
