MODEL 1
REMARK VINA RESULT:      -8.4      0.000      0.000
REMARK  6 active torsions:
REMARK  status: ('A' for Active; 'I' for Inactive)
REMARK    1  A    between atoms: C_2  and  C_3 
REMARK    2  A    between atoms: C_3  and  O_4 
REMARK    3  A    between atoms: O_4  and  C_5 
REMARK    4  A    between atoms: C_7  and  C_8 
REMARK       I    between atoms: C_8  and  N_9 
REMARK    5  A    between atoms: N_9  and  C_10 
REMARK    6  A    between atoms: C_17  and  C_18 
REMARK       I    between atoms: C_18  and  N_19 
ROOT
HETATM    1  C   UNL     1     -41.016  54.552 -54.748  1.00  0.00     0.036 A 
HETATM    2  C   UNL     1     -40.673  53.194 -54.724  1.00  0.00     0.046 A 
HETATM    3  C   UNL     1     -40.326  52.581 -53.499  1.00  0.00     0.030 A 
HETATM    4  C   UNL     1     -40.319  53.352 -52.343  1.00  0.00     0.063 A 
HETATM    5  N   UNL     1     -39.944  52.500 -51.342  1.00  0.00    -0.277 N 
HETATM    6  H   UNL     1     -39.828  52.721 -50.360  1.00  0.00     0.189 HD
HETATM    7  N   UNL     1     -39.720  51.238 -51.740  1.00  0.00    -0.168 NA
HETATM    8  C   UNL     1     -39.953  51.271 -53.072  1.00  0.00     0.156 A 
HETATM    9  C   UNL     1     -40.647  54.708 -52.330  1.00  0.00     0.034 A 
HETATM   10  C   UNL     1     -41.001  55.288 -53.555  1.00  0.00     0.032 A 
ENDROOT
BRANCH   1  11
HETATM   11  N   UNL     1     -41.393  55.249 -55.920  1.00  0.00    -0.323 N 
HETATM   12  C   UNL     1     -42.633  55.788 -56.211  1.00  0.00     0.256 C 
HETATM   13  O   UNL     1     -43.626  55.765 -55.493  1.00  0.00    -0.267 OA
HETATM   14  H   UNL     1     -40.652  55.403 -56.588  1.00  0.00     0.169 HD
BRANCH  12  15
HETATM   15  C   UNL     1     -42.741  56.495 -57.523  1.00  0.00     0.035 A 
HETATM   16  C   UNL     1     -43.433  55.845 -58.557  1.00  0.00     0.053 A 
HETATM   17  C   UNL     1     -43.566  56.446 -59.808  1.00  0.00     0.069 A 
HETATM   18  C   UNL     1     -43.008  57.709 -60.020  1.00  0.00     0.037 A 
HETATM   19  C   UNL     1     -42.303  58.356 -59.004  1.00  0.00     0.004 A 
HETATM   20  C   UNL     1     -42.159  57.748 -57.756  1.00  0.00     0.017 A 
BRANCH  17  21
HETATM   21  O   UNL     1     -44.209  55.912 -60.890  1.00  0.00    -0.351 OA
BRANCH  21  22
HETATM   22  C   UNL     1     -45.565  55.498 -60.696  1.00  0.00     0.179 C 
BRANCH  22  23
HETATM   23  C   UNL     1     -46.465  56.742 -60.648  1.00  0.00     0.002 C 
HETATM   24  C   UNL     1     -46.890  57.067 -59.214  1.00  0.00     0.011 C 
HETATM   25  C   UNL     1     -47.694  56.543 -61.534  1.00  0.00     0.011 C 
ENDBRANCH  22  23
ENDBRANCH  21  22
ENDBRANCH  17  21
ENDBRANCH  12  15
ENDBRANCH   1  11
BRANCH   8  26
HETATM   26  C   UNL     1     -39.826  50.060 -53.896  1.00  0.00     0.270 C 
HETATM   27  N   UNL     1     -40.923  49.797 -54.672  1.00  0.00    -0.365 N 
HETATM   28  H   UNL     1     -41.710  50.434 -54.632  1.00  0.00     0.159 HD
HETATM   29  H   UNL     1     -40.921  48.995 -55.282  1.00  0.00     0.159 HD
HETATM   30  O   UNL     1     -38.843  49.329 -53.923  1.00  0.00    -0.266 OA
ENDBRANCH   8  26
TORSDOF 6
ENDMDL
MODEL 2
REMARK VINA RESULT:      -8.3      1.784      2.829
REMARK  6 active torsions:
REMARK  status: ('A' for Active; 'I' for Inactive)
REMARK    1  A    between atoms: C_2  and  C_3 
REMARK    2  A    between atoms: C_3  and  O_4 
REMARK    3  A    between atoms: O_4  and  C_5 
REMARK    4  A    between atoms: C_7  and  C_8 
REMARK       I    between atoms: C_8  and  N_9 
REMARK    5  A    between atoms: N_9  and  C_10 
REMARK    6  A    between atoms: C_17  and  C_18 
REMARK       I    between atoms: C_18  and  N_19 
ROOT
HETATM    1  C   UNL     1     -41.009  54.138 -54.458  1.00  0.00     0.036 A 
HETATM    2  C   UNL     1     -41.342  54.387 -53.120  1.00  0.00     0.046 A 
HETATM    3  C   UNL     1     -40.879  53.514 -52.110  1.00  0.00     0.030 A 
HETATM    4  C   UNL     1     -40.114  52.414 -52.474  1.00  0.00     0.063 A 
HETATM    5  N   UNL     1     -39.829  51.767 -51.304  1.00  0.00    -0.277 N 
HETATM    6  H   UNL     1     -39.290  50.917 -51.189  1.00  0.00     0.189 HD
HETATM    7  N   UNL     1     -40.327  52.357 -50.206  1.00  0.00    -0.168 NA
HETATM    8  C   UNL     1     -40.980  53.440 -50.687  1.00  0.00     0.156 A 
HETATM    9  C   UNL     1     -39.770  52.129 -53.796  1.00  0.00     0.034 A 
HETATM   10  C   UNL     1     -40.228  53.018 -54.777  1.00  0.00     0.032 A 
ENDROOT
BRANCH   1  11
HETATM   11  N   UNL     1     -41.409  54.961 -55.536  1.00  0.00    -0.323 N 
HETATM   12  C   UNL     1     -42.612  54.923 -56.218  1.00  0.00     0.256 C 
HETATM   13  O   UNL     1     -43.552  54.169 -55.998  1.00  0.00    -0.267 OA
HETATM   14  H   UNL     1     -40.753  55.684 -55.794  1.00  0.00     0.169 HD
BRANCH  12  15
HETATM   15  C   UNL     1     -42.773  55.933 -57.307  1.00  0.00     0.035 A 
HETATM   16  C   UNL     1     -43.386  55.513 -58.498  1.00  0.00     0.053 A 
HETATM   17  C   UNL     1     -43.562  56.404 -59.557  1.00  0.00     0.069 A 
HETATM   18  C   UNL     1     -43.128  57.724 -59.416  1.00  0.00     0.037 A 
HETATM   19  C   UNL     1     -42.501  58.147 -58.242  1.00  0.00     0.004 A 
HETATM   20  C   UNL     1     -42.314  57.252 -57.188  1.00  0.00     0.017 A 
BRANCH  17  21
HETATM   21  O   UNL     1     -44.137  56.113 -60.763  1.00  0.00    -0.351 OA
BRANCH  21  22
HETATM   22  C   UNL     1     -45.475  55.610 -60.735  1.00  0.00     0.179 C 
BRANCH  22  23
HETATM   23  C   UNL     1     -46.452  56.792 -60.642  1.00  0.00     0.002 C 
HETATM   24  C   UNL     1     -46.865  57.062 -59.193  1.00  0.00     0.011 C 
HETATM   25  C   UNL     1     -47.685  56.531 -61.506  1.00  0.00     0.011 C 
ENDBRANCH  22  23
ENDBRANCH  21  22
ENDBRANCH  17  21
ENDBRANCH  12  15
ENDBRANCH   1  11
BRANCH   8  26
HETATM   26  C   UNL     1     -41.667  54.376 -49.786  1.00  0.00     0.270 C 
HETATM   27  N   UNL     1     -40.942  54.715 -48.676  1.00  0.00    -0.365 N 
HETATM   28  H   UNL     1     -40.016  54.321 -48.562  1.00  0.00     0.159 HD
HETATM   29  H   UNL     1     -41.328  55.364 -48.009  1.00  0.00     0.159 HD
HETATM   30  O   UNL     1     -42.786  54.841 -49.977  1.00  0.00    -0.266 OA
ENDBRANCH   8  26
TORSDOF 6
ENDMDL
MODEL 3
REMARK VINA RESULT:      -8.2      2.686      8.968
REMARK  6 active torsions:
REMARK  status: ('A' for Active; 'I' for Inactive)
REMARK    1  A    between atoms: C_2  and  C_3 
REMARK    2  A    between atoms: C_3  and  O_4 
REMARK    3  A    between atoms: O_4  and  C_5 
REMARK    4  A    between atoms: C_7  and  C_8 
REMARK       I    between atoms: C_8  and  N_9 
REMARK    5  A    between atoms: N_9  and  C_10 
REMARK    6  A    between atoms: C_17  and  C_18 
REMARK       I    between atoms: C_18  and  N_19 
ROOT
HETATM    1  C   UNL     1     -42.852  55.471 -55.579  1.00  0.00     0.036 A 
HETATM    2  C   UNL     1     -42.789  55.680 -56.963  1.00  0.00     0.046 A 
HETATM    3  C   UNL     1     -43.463  56.781 -57.537  1.00  0.00     0.030 A 
HETATM    4  C   UNL     1     -44.191  57.625 -56.709  1.00  0.00     0.063 A 
HETATM    5  N   UNL     1     -44.727  58.572 -57.537  1.00  0.00    -0.277 N 
HETATM    6  H   UNL     1     -45.322  59.350 -57.276  1.00  0.00     0.189 HD
HETATM    7  N   UNL     1     -44.400  58.429 -58.831  1.00  0.00    -0.168 NA
HETATM    8  C   UNL     1     -43.618  57.325 -58.848  1.00  0.00     0.156 A 
HETATM    9  C   UNL     1     -44.284  57.445 -55.328  1.00  0.00     0.034 A 
HETATM   10  C   UNL     1     -43.594  56.355 -54.782  1.00  0.00     0.032 A 
ENDROOT
BRANCH   1  11
HETATM   11  N   UNL     1     -42.198  54.410 -54.912  1.00  0.00    -0.323 N 
HETATM   12  C   UNL     1     -40.847  54.300 -54.635  1.00  0.00     0.256 C 
HETATM   13  O   UNL     1     -39.976  55.116 -54.914  1.00  0.00    -0.267 OA
HETATM   14  H   UNL     1     -42.803  53.681 -54.562  1.00  0.00     0.169 HD
BRANCH  12  15
HETATM   15  C   UNL     1     -40.435  53.072 -53.891  1.00  0.00     0.035 A 
HETATM   16  C   UNL     1     -40.311  53.168 -52.496  1.00  0.00     0.053 A 
HETATM   17  C   UNL     1     -39.923  52.061 -51.741  1.00  0.00     0.069 A 
HETATM   18  C   UNL     1     -39.667  50.851 -52.390  1.00  0.00     0.037 A 
HETATM   19  C   UNL     1     -39.769  50.749 -53.778  1.00  0.00     0.004 A 
HETATM   20  C   UNL     1     -40.145  51.862 -54.533  1.00  0.00     0.017 A 
BRANCH  17  21
HETATM   21  O   UNL     1     -39.763  52.032 -50.383  1.00  0.00    -0.351 OA
BRANCH  21  22
HETATM   22  C   UNL     1     -40.775  52.671 -49.600  1.00  0.00     0.179 C 
BRANCH  22  23
HETATM   23  C   UNL     1     -40.203  53.969 -49.009  1.00  0.00     0.002 C 
HETATM   24  C   UNL     1     -40.128  53.901 -47.482  1.00  0.00     0.011 C 
HETATM   25  C   UNL     1     -41.044  55.168 -49.447  1.00  0.00     0.011 C 
ENDBRANCH  22  23
ENDBRANCH  21  22
ENDBRANCH  17  21
ENDBRANCH  12  15
ENDBRANCH   1  11
BRANCH   8  26
HETATM   26  C   UNL     1     -43.032  56.827 -60.101  1.00  0.00     0.270 C 
HETATM   27  N   UNL     1     -41.698  57.099 -60.239  1.00  0.00    -0.365 N 
HETATM   28  H   UNL     1     -41.224  57.596 -59.494  1.00  0.00     0.159 HD
HETATM   29  H   UNL     1     -41.208  56.782 -61.060  1.00  0.00     0.159 HD
HETATM   30  O   UNL     1     -43.645  56.214 -60.967  1.00  0.00    -0.266 OA
ENDBRANCH   8  26
TORSDOF 6
ENDMDL
MODEL 4
REMARK VINA RESULT:      -8.1      2.631      8.412
REMARK  6 active torsions:
REMARK  status: ('A' for Active; 'I' for Inactive)
REMARK    1  A    between atoms: C_2  and  C_3 
REMARK    2  A    between atoms: C_3  and  O_4 
REMARK    3  A    between atoms: O_4  and  C_5 
REMARK    4  A    between atoms: C_7  and  C_8 
REMARK       I    between atoms: C_8  and  N_9 
REMARK    5  A    between atoms: N_9  and  C_10 
REMARK    6  A    between atoms: C_17  and  C_18 
REMARK       I    between atoms: C_18  and  N_19 
ROOT
HETATM    1  C   UNL     1     -42.424  56.208 -56.111  1.00  0.00     0.036 A 
HETATM    2  C   UNL     1     -43.082  55.538 -57.151  1.00  0.00     0.046 A 
HETATM    3  C   UNL     1     -43.383  56.226 -58.347  1.00  0.00     0.030 A 
HETATM    4  C   UNL     1     -43.030  57.565 -58.457  1.00  0.00     0.063 A 
HETATM    5  N   UNL     1     -43.451  57.950 -59.699  1.00  0.00    -0.277 N 
HETATM    6  H   UNL     1     -43.363  58.869 -60.119  1.00  0.00     0.189 HD
HETATM    7  N   UNL     1     -44.034  56.977 -60.416  1.00  0.00    -0.168 NA
HETATM    8  C   UNL     1     -43.999  55.903 -59.595  1.00  0.00     0.156 A 
HETATM    9  C   UNL     1     -42.381  58.268 -57.441  1.00  0.00     0.034 A 
HETATM   10  C   UNL     1     -42.081  57.559 -56.270  1.00  0.00     0.032 A 
ENDROOT
BRANCH   1  11
HETATM   11  N   UNL     1     -42.065  55.602 -54.886  1.00  0.00    -0.323 N 
HETATM   12  C   UNL     1     -42.774  55.628 -53.699  1.00  0.00     0.256 C 
HETATM   13  O   UNL     1     -43.852  56.178 -53.504  1.00  0.00    -0.267 OA
HETATM   14  H   UNL     1     -41.217  55.053 -54.907  1.00  0.00     0.169 HD
BRANCH  12  15
HETATM   15  C   UNL     1     -42.163  54.876 -52.561  1.00  0.00     0.035 A 
HETATM   16  C   UNL     1     -41.147  53.955 -52.861  1.00  0.00     0.053 A 
HETATM   17  C   UNL     1     -40.539  53.216 -51.846  1.00  0.00     0.069 A 
HETATM   18  C   UNL     1     -40.948  53.408 -50.525  1.00  0.00     0.037 A 
HETATM   19  C   UNL     1     -41.969  54.308 -50.218  1.00  0.00     0.004 A 
HETATM   20  C   UNL     1     -42.586  55.039 -51.235  1.00  0.00     0.017 A 
BRANCH  17  21
HETATM   21  O   UNL     1     -39.548  52.289 -52.013  1.00  0.00    -0.351 OA
BRANCH  21  22
HETATM   22  C   UNL     1     -39.372  51.762 -53.331  1.00  0.00     0.179 C 
BRANCH  22  23
HETATM   23  C   UNL     1     -40.054  50.387 -53.415  1.00  0.00     0.002 C 
HETATM   24  C   UNL     1     -39.593  49.467 -52.282  1.00  0.00     0.011 C 
HETATM   25  C   UNL     1     -39.779  49.739 -54.771  1.00  0.00     0.011 C 
ENDBRANCH  22  23
ENDBRANCH  21  22
ENDBRANCH  17  21
ENDBRANCH  12  15
ENDBRANCH   1  11
BRANCH   8  26
HETATM   26  C   UNL     1     -44.539  54.603 -60.018  1.00  0.00     0.270 C 
HETATM   27  N   UNL     1     -44.910  54.556 -61.335  1.00  0.00    -0.365 N 
HETATM   28  H   UNL     1     -44.784  55.385 -61.905  1.00  0.00     0.159 HD
HETATM   29  H   UNL     1     -45.278  53.700 -61.719  1.00  0.00     0.159 HD
HETATM   30  O   UNL     1     -44.657  53.622 -59.293  1.00  0.00    -0.266 OA
ENDBRANCH   8  26
TORSDOF 6
ENDMDL
MODEL 5
REMARK VINA RESULT:      -7.6      2.522      4.234
REMARK  6 active torsions:
REMARK  status: ('A' for Active; 'I' for Inactive)
REMARK    1  A    between atoms: C_2  and  C_3 
REMARK    2  A    between atoms: C_3  and  O_4 
REMARK    3  A    between atoms: O_4  and  C_5 
REMARK    4  A    between atoms: C_7  and  C_8 
REMARK       I    between atoms: C_8  and  N_9 
REMARK    5  A    between atoms: N_9  and  C_10 
REMARK    6  A    between atoms: C_17  and  C_18 
REMARK       I    between atoms: C_18  and  N_19 
ROOT
HETATM    1  C   UNL     1     -41.002  54.261 -54.542  1.00  0.00     0.036 A 
HETATM    2  C   UNL     1     -41.354  54.537 -53.214  1.00  0.00     0.046 A 
HETATM    3  C   UNL     1     -40.924  53.673 -52.182  1.00  0.00     0.030 A 
HETATM    4  C   UNL     1     -40.171  52.555 -52.515  1.00  0.00     0.063 A 
HETATM    5  N   UNL     1     -39.917  51.923 -51.330  1.00  0.00    -0.277 N 
HETATM    6  H   UNL     1     -39.394  51.065 -51.192  1.00  0.00     0.189 HD
HETATM    7  N   UNL     1     -40.425  52.538 -50.251  1.00  0.00    -0.168 NA
HETATM    8  C   UNL     1     -41.051  53.623 -50.760  1.00  0.00     0.156 A 
HETATM    9  C   UNL     1     -39.807  52.244 -53.826  1.00  0.00     0.034 A 
HETATM   10  C   UNL     1     -40.234  53.124 -54.829  1.00  0.00     0.032 A 
ENDROOT
BRANCH   1  11
HETATM   11  N   UNL     1     -41.369  55.074 -55.639  1.00  0.00    -0.323 N 
HETATM   12  C   UNL     1     -42.551  55.029 -56.357  1.00  0.00     0.256 C 
HETATM   13  O   UNL     1     -43.497  54.276 -56.158  1.00  0.00    -0.267 OA
HETATM   14  H   UNL     1     -40.705  55.794 -55.885  1.00  0.00     0.169 HD
BRANCH  12  15
HETATM   15  C   UNL     1     -42.679  56.028 -57.460  1.00  0.00     0.035 A 
HETATM   16  C   UNL     1     -42.335  57.359 -57.175  1.00  0.00     0.053 A 
HETATM   17  C   UNL     1     -42.437  58.343 -58.158  1.00  0.00     0.069 A 
HETATM   18  C   UNL     1     -42.880  57.988 -59.434  1.00  0.00     0.037 A 
HETATM   19  C   UNL     1     -43.242  56.671 -59.723  1.00  0.00     0.004 A 
HETATM   20  C   UNL     1     -43.151  55.689 -58.735  1.00  0.00     0.017 A 
BRANCH  17  21
HETATM   21  O   UNL     1     -42.138  59.668 -58.000  1.00  0.00    -0.351 OA
BRANCH  21  22
HETATM   22  C   UNL     1     -42.912  60.600 -58.761  1.00  0.00     0.179 C 
BRANCH  22  23
HETATM   23  C   UNL     1     -41.969  61.634 -59.395  1.00  0.00     0.002 C 
HETATM   24  C   UNL     1     -41.549  61.215 -60.806  1.00  0.00     0.011 C 
HETATM   25  C   UNL     1     -40.737  61.839 -58.513  1.00  0.00     0.011 C 
ENDBRANCH  22  23
ENDBRANCH  21  22
ENDBRANCH  17  21
ENDBRANCH  12  15
ENDBRANCH   1  11
BRANCH   8  26
HETATM   26  C   UNL     1     -41.739  54.584 -49.887  1.00  0.00     0.270 C 
HETATM   27  N   UNL     1     -43.077  54.712 -50.143  1.00  0.00    -0.365 N 
HETATM   28  H   UNL     1     -43.486  54.150 -50.881  1.00  0.00     0.159 HD
HETATM   29  H   UNL     1     -43.635  55.337 -49.584  1.00  0.00     0.159 HD
HETATM   30  O   UNL     1     -41.203  55.229 -48.992  1.00  0.00    -0.266 OA
ENDBRANCH   8  26
TORSDOF 6
ENDMDL
MODEL 6
REMARK VINA RESULT:      -7.6      5.098      7.141
REMARK  6 active torsions:
REMARK  status: ('A' for Active; 'I' for Inactive)
REMARK    1  A    between atoms: C_2  and  C_3 
REMARK    2  A    between atoms: C_3  and  O_4 
REMARK    3  A    between atoms: O_4  and  C_5 
REMARK    4  A    between atoms: C_7  and  C_8 
REMARK       I    between atoms: C_8  and  N_9 
REMARK    5  A    between atoms: N_9  and  C_10 
REMARK    6  A    between atoms: C_17  and  C_18 
REMARK       I    between atoms: C_18  and  N_19 
ROOT
HETATM    1  C   UNL     1     -40.738  54.779 -52.909  1.00  0.00     0.036 A 
HETATM    2  C   UNL     1     -40.512  53.636 -52.132  1.00  0.00     0.046 A 
HETATM    3  C   UNL     1     -40.200  52.411 -52.763  1.00  0.00     0.030 A 
HETATM    4  C   UNL     1     -40.139  52.369 -54.150  1.00  0.00     0.063 A 
HETATM    5  N   UNL     1     -39.830  51.073 -54.460  1.00  0.00    -0.277 N 
HETATM    6  H   UNL     1     -39.709  50.676 -55.385  1.00  0.00     0.189 HD
HETATM    7  N   UNL     1     -39.668  50.270 -53.397  1.00  0.00    -0.168 NA
HETATM    8  C   UNL     1     -39.893  51.082 -52.339  1.00  0.00     0.156 A 
HETATM    9  C   UNL     1     -40.365  53.484 -54.957  1.00  0.00     0.034 A 
HETATM   10  C   UNL     1     -40.659  54.689 -54.306  1.00  0.00     0.032 A 
ENDROOT
BRANCH   1  11
HETATM   11  N   UNL     1     -41.040  56.051 -52.371  1.00  0.00    -0.323 N 
HETATM   12  C   UNL     1     -42.246  56.473 -51.842  1.00  0.00     0.256 C 
HETATM   13  O   UNL     1     -43.270  55.807 -51.738  1.00  0.00    -0.267 OA
HETATM   14  H   UNL     1     -40.265  56.698 -52.331  1.00  0.00     0.169 HD
BRANCH  12  15
HETATM   15  C   UNL     1     -42.273  57.873 -51.320  1.00  0.00     0.035 A 
HETATM   16  C   UNL     1     -43.487  58.573 -51.400  1.00  0.00     0.053 A 
HETATM   17  C   UNL     1     -43.580  59.885 -50.936  1.00  0.00     0.069 A 
HETATM   18  C   UNL     1     -42.451  60.494 -50.384  1.00  0.00     0.037 A 
HETATM   19  C   UNL     1     -41.234  59.813 -50.317  1.00  0.00     0.004 A 
HETATM   20  C   UNL     1     -41.139  58.504 -50.792  1.00  0.00     0.017 A 
BRANCH  17  21
HETATM   21  O   UNL     1     -44.700  60.669 -50.965  1.00  0.00    -0.351 OA
BRANCH  21  22
HETATM   22  C   UNL     1     -45.596  60.553 -49.856  1.00  0.00     0.179 C 
BRANCH  22  23
HETATM   23  C   UNL     1     -45.695  61.914 -49.149  1.00  0.00     0.002 C 
HETATM   24  C   UNL     1     -45.226  63.051 -50.060  1.00  0.00     0.011 C 
HETATM   25  C   UNL     1     -44.881  61.900 -47.855  1.00  0.00     0.011 C 
ENDBRANCH  22  23
ENDBRANCH  21  22
ENDBRANCH  17  21
ENDBRANCH  12  15
ENDBRANCH   1  11
BRANCH   8  26
HETATM   26  C   UNL     1     -39.799  50.580 -50.961  1.00  0.00     0.270 C 
HETATM   27  N   UNL     1     -39.060  49.435 -50.834  1.00  0.00    -0.365 N 
HETATM   28  H   UNL     1     -38.638  49.035 -51.664  1.00  0.00     0.159 HD
HETATM   29  H   UNL     1     -38.928  49.025 -49.923  1.00  0.00     0.159 HD
HETATM   30  O   UNL     1     -40.315  51.110 -49.983  1.00  0.00    -0.266 OA
ENDBRANCH   8  26
TORSDOF 6
ENDMDL
MODEL 7
REMARK VINA RESULT:      -7.5      3.268      9.457
REMARK  6 active torsions:
REMARK  status: ('A' for Active; 'I' for Inactive)
REMARK    1  A    between atoms: C_2  and  C_3 
REMARK    2  A    between atoms: C_3  and  O_4 
REMARK    3  A    between atoms: O_4  and  C_5 
REMARK    4  A    between atoms: C_7  and  C_8 
REMARK       I    between atoms: C_8  and  N_9 
REMARK    5  A    between atoms: N_9  and  C_10 
REMARK    6  A    between atoms: C_17  and  C_18 
REMARK       I    between atoms: C_18  and  N_19 
ROOT
HETATM    1  C   UNL     1     -42.780  56.511 -58.024  1.00  0.00     0.036 A 
HETATM    2  C   UNL     1     -42.448  57.851 -58.260  1.00  0.00     0.046 A 
HETATM    3  C   UNL     1     -43.078  58.554 -59.312  1.00  0.00     0.030 A 
HETATM    4  C   UNL     1     -44.006  57.886 -60.101  1.00  0.00     0.063 A 
HETATM    5  N   UNL     1     -44.428  58.806 -61.021  1.00  0.00    -0.277 N 
HETATM    6  H   UNL     1     -45.105  58.665 -61.762  1.00  0.00     0.189 HD
HETATM    7  N   UNL     1     -43.868  60.019 -60.892  1.00  0.00    -0.168 NA
HETATM    8  C   UNL     1     -43.031  59.880 -59.839  1.00  0.00     0.156 A 
HETATM    9  C   UNL     1     -44.356  56.550 -59.901  1.00  0.00     0.034 A 
HETATM   10  C   UNL     1     -43.728  55.881 -58.842  1.00  0.00     0.032 A 
ENDROOT
BRANCH   1  11
HETATM   11  N   UNL     1     -42.218  55.731 -56.987  1.00  0.00    -0.323 N 
HETATM   12  C   UNL     1     -42.662  55.629 -55.681  1.00  0.00     0.256 C 
HETATM   13  O   UNL     1     -43.634  56.194 -55.194  1.00  0.00    -0.267 OA
HETATM   14  H   UNL     1     -41.434  55.154 -57.257  1.00  0.00     0.169 HD
BRANCH  12  15
HETATM   15  C   UNL     1     -41.883  54.706 -54.801  1.00  0.00     0.035 A 
HETATM   16  C   UNL     1     -42.234  54.653 -53.442  1.00  0.00     0.053 A 
HETATM   17  C   UNL     1     -41.544  53.817 -52.565  1.00  0.00     0.069 A 
HETATM   18  C   UNL     1     -40.502  53.027 -53.054  1.00  0.00     0.037 A 
HETATM   19  C   UNL     1     -40.132  53.086 -54.399  1.00  0.00     0.004 A 
HETATM   20  C   UNL     1     -40.816  53.932 -55.274  1.00  0.00     0.017 A 
BRANCH  17  21
HETATM   21  O   UNL     1     -41.788  53.683 -51.226  1.00  0.00    -0.351 OA
BRANCH  21  22
HETATM   22  C   UNL     1     -40.688  53.276 -50.407  1.00  0.00     0.179 C 
BRANCH  22  23
HETATM   23  C   UNL     1     -40.319  54.427 -49.458  1.00  0.00     0.002 C 
HETATM   24  C   UNL     1     -40.262  53.954 -48.004  1.00  0.00     0.011 C 
HETATM   25  C   UNL     1     -41.317  55.576 -49.603  1.00  0.00     0.011 C 
ENDBRANCH  22  23
ENDBRANCH  21  22
ENDBRANCH  17  21
ENDBRANCH  12  15
ENDBRANCH   1  11
BRANCH   8  26
HETATM   26  C   UNL     1     -42.222  61.009 -59.357  1.00  0.00     0.270 C 
HETATM   27  N   UNL     1     -42.704  61.593 -58.217  1.00  0.00    -0.365 N 
HETATM   28  H   UNL     1     -43.545  61.217 -57.796  1.00  0.00     0.159 HD
HETATM   29  H   UNL     1     -42.205  62.366 -57.804  1.00  0.00     0.159 HD
HETATM   30  O   UNL     1     -41.198  61.418 -59.892  1.00  0.00    -0.266 OA
ENDBRANCH   8  26
TORSDOF 6
ENDMDL
MODEL 8
REMARK VINA RESULT:      -7.4      3.411      9.253
REMARK  6 active torsions:
REMARK  status: ('A' for Active; 'I' for Inactive)
REMARK    1  A    between atoms: C_2  and  C_3 
REMARK    2  A    between atoms: C_3  and  O_4 
REMARK    3  A    between atoms: O_4  and  C_5 
REMARK    4  A    between atoms: C_7  and  C_8 
REMARK       I    between atoms: C_8  and  N_9 
REMARK    5  A    between atoms: N_9  and  C_10 
REMARK    6  A    between atoms: C_17  and  C_18 
REMARK       I    between atoms: C_18  and  N_19 
ROOT
HETATM    1  C   UNL     1     -42.269  57.456 -57.968  1.00  0.00     0.036 A 
HETATM    2  C   UNL     1     -41.806  58.778 -57.969  1.00  0.00     0.046 A 
HETATM    3  C   UNL     1     -41.948  59.569 -59.131  1.00  0.00     0.030 A 
HETATM    4  C   UNL     1     -42.536  59.006 -60.256  1.00  0.00     0.063 A 
HETATM    5  N   UNL     1     -42.527  59.993 -61.202  1.00  0.00    -0.277 N 
HETATM    6  H   UNL     1     -42.874  59.935 -62.152  1.00  0.00     0.189 HD
HETATM    7  N   UNL     1     -41.999  61.156 -60.788  1.00  0.00    -0.168 NA
HETATM    8  C   UNL     1     -41.637  60.911 -59.508  1.00  0.00     0.156 A 
HETATM    9  C   UNL     1     -43.003  57.692 -60.295  1.00  0.00     0.034 A 
HETATM   10  C   UNL     1     -42.862  56.933 -59.126  1.00  0.00     0.032 A 
ENDROOT
BRANCH   1  11
HETATM   11  N   UNL     1     -42.187  56.593 -56.851  1.00  0.00    -0.323 N 
HETATM   12  C   UNL     1     -43.062  56.520 -55.782  1.00  0.00     0.256 C 
HETATM   13  O   UNL     1     -44.076  57.190 -55.622  1.00  0.00    -0.267 OA
HETATM   14  H   UNL     1     -41.426  55.929 -56.873  1.00  0.00     0.169 HD
BRANCH  12  15
HETATM   15  C   UNL     1     -42.739  55.491 -54.748  1.00  0.00     0.035 A 
HETATM   16  C   UNL     1     -41.699  54.592 -55.028  1.00  0.00     0.053 A 
HETATM   17  C   UNL     1     -41.350  53.603 -54.108  1.00  0.00     0.069 A 
HETATM   18  C   UNL     1     -42.044  53.523 -52.899  1.00  0.00     0.037 A 
HETATM   19  C   UNL     1     -43.092  54.401 -52.618  1.00  0.00     0.004 A 
HETATM   20  C   UNL     1     -43.449  55.382 -53.545  1.00  0.00     0.017 A 
BRANCH  17  21
HETATM   21  O   UNL     1     -40.363  52.670 -54.269  1.00  0.00    -0.351 OA
BRANCH  21  22
HETATM   22  C   UNL     1     -39.918  51.992 -53.090  1.00  0.00     0.179 C 
BRANCH  22  23
HETATM   23  C   UNL     1     -39.522  50.554 -53.461  1.00  0.00     0.002 C 
HETATM   24  C   UNL     1     -40.404  50.004 -54.584  1.00  0.00     0.011 C 
HETATM   25  C   UNL     1     -39.599  49.649 -52.232  1.00  0.00     0.011 C 
ENDBRANCH  22  23
ENDBRANCH  21  22
ENDBRANCH  17  21
ENDBRANCH  12  15
ENDBRANCH   1  11
BRANCH   8  26
HETATM   26  C   UNL     1     -41.018  61.955 -58.679  1.00  0.00     0.270 C 
HETATM   27  N   UNL     1     -41.822  62.417 -57.672  1.00  0.00    -0.365 N 
HETATM   28  H   UNL     1     -42.747  62.016 -57.567  1.00  0.00     0.159 HD
HETATM   29  H   UNL     1     -41.476  63.124 -57.043  1.00  0.00     0.159 HD
HETATM   30  O   UNL     1     -39.886  62.397 -58.837  1.00  0.00    -0.266 OA
ENDBRANCH   8  26
TORSDOF 6
ENDMDL
MODEL 9
REMARK VINA RESULT:      -7.2      4.724      6.088
REMARK  6 active torsions:
REMARK  status: ('A' for Active; 'I' for Inactive)
REMARK    1  A    between atoms: C_2  and  C_3 
REMARK    2  A    between atoms: C_3  and  O_4 
REMARK    3  A    between atoms: O_4  and  C_5 
REMARK    4  A    between atoms: C_7  and  C_8 
REMARK       I    between atoms: C_8  and  N_9 
REMARK    5  A    between atoms: N_9  and  C_10 
REMARK    6  A    between atoms: C_17  and  C_18 
REMARK       I    between atoms: C_18  and  N_19 
ROOT
HETATM    1  C   UNL     1     -40.683  54.581 -52.974  1.00  0.00     0.036 A 
HETATM    2  C   UNL     1     -40.451  53.449 -52.182  1.00  0.00     0.046 A 
HETATM    3  C   UNL     1     -40.160  52.211 -52.797  1.00  0.00     0.030 A 
HETATM    4  C   UNL     1     -40.126  52.145 -54.184  1.00  0.00     0.063 A 
HETATM    5  N   UNL     1     -39.833  50.842 -54.477  1.00  0.00    -0.277 N 
HETATM    6  H   UNL     1     -39.734  50.428 -55.397  1.00  0.00     0.189 HD
HETATM    7  N   UNL     1     -39.658  50.055 -53.404  1.00  0.00    -0.168 NA
HETATM    8  C   UNL     1     -39.855  50.888 -52.356  1.00  0.00     0.156 A 
HETATM    9  C   UNL     1     -40.359  53.248 -55.006  1.00  0.00     0.034 A 
HETATM   10  C   UNL     1     -40.631  54.467 -54.370  1.00  0.00     0.032 A 
ENDROOT
BRANCH   1  11
HETATM   11  N   UNL     1     -40.964  55.864 -52.452  1.00  0.00    -0.323 N 
HETATM   12  C   UNL     1     -41.981  56.210 -51.581  1.00  0.00     0.256 C 
HETATM   13  O   UNL     1     -42.817  55.455 -51.098  1.00  0.00    -0.267 OA
HETATM   14  H   UNL     1     -40.313  56.590 -52.715  1.00  0.00     0.169 HD
BRANCH  12  15
HETATM   15  C   UNL     1     -42.027  57.647 -51.174  1.00  0.00     0.035 A 
HETATM   16  C   UNL     1     -43.172  58.384 -51.518  1.00  0.00     0.053 A 
HETATM   17  C   UNL     1     -43.278  59.731 -51.175  1.00  0.00     0.069 A 
HETATM   18  C   UNL     1     -42.233  60.340 -50.476  1.00  0.00     0.037 A 
HETATM   19  C   UNL     1     -41.082  59.622 -50.145  1.00  0.00     0.004 A 
HETATM   20  C   UNL     1     -40.972  58.276 -50.501  1.00  0.00     0.017 A 
BRANCH  17  21
HETATM   21  O   UNL     1     -44.335  60.551 -51.458  1.00  0.00    -0.351 OA
BRANCH  21  22
HETATM   22  C   UNL     1     -45.266  60.087 -52.440  1.00  0.00     0.179 C 
BRANCH  22  23
HETATM   23  C   UNL     1     -45.541  61.220 -53.441  1.00  0.00     0.002 C 
HETATM   24  C   UNL     1     -46.874  61.912 -53.148  1.00  0.00     0.011 C 
HETATM   25  C   UNL     1     -45.527  60.680 -54.871  1.00  0.00     0.011 C 
ENDBRANCH  22  23
ENDBRANCH  21  22
ENDBRANCH  17  21
ENDBRANCH  12  15
ENDBRANCH   1  11
BRANCH   8  26
HETATM   26  C   UNL     1     -39.739  50.408 -50.971  1.00  0.00     0.270 C 
HETATM   27  N   UNL     1     -38.844  49.385 -50.809  1.00  0.00    -0.365 N 
HETATM   28  H   UNL     1     -38.337  49.050 -51.620  1.00  0.00     0.159 HD
HETATM   29  H   UNL     1     -38.687  49.002 -49.890  1.00  0.00     0.159 HD
HETATM   30  O   UNL     1     -40.363  50.859 -50.017  1.00  0.00    -0.266 OA
ENDBRANCH   8  26
TORSDOF 6
ENDMDL
MODEL 10
REMARK VINA RESULT:      -7.2      2.069      3.557
REMARK  6 active torsions:
REMARK  status: ('A' for Active; 'I' for Inactive)
REMARK    1  A    between atoms: C_2  and  C_3 
REMARK    2  A    between atoms: C_3  and  O_4 
REMARK    3  A    between atoms: O_4  and  C_5 
REMARK    4  A    between atoms: C_7  and  C_8 
REMARK       I    between atoms: C_8  and  N_9 
REMARK    5  A    between atoms: N_9  and  C_10 
REMARK    6  A    between atoms: C_17  and  C_18 
REMARK       I    between atoms: C_18  and  N_19 
ROOT
HETATM    1  C   UNL     1     -41.506  55.399 -53.967  1.00  0.00     0.036 A 
HETATM    2  C   UNL     1     -40.889  54.161 -53.750  1.00  0.00     0.046 A 
HETATM    3  C   UNL     1     -40.625  53.732 -52.430  1.00  0.00     0.030 A 
HETATM    4  C   UNL     1     -40.972  54.564 -51.373  1.00  0.00     0.063 A 
HETATM    5  N   UNL     1     -40.593  53.894 -50.244  1.00  0.00    -0.277 N 
HETATM    6  H   UNL     1     -40.689  54.205 -49.284  1.00  0.00     0.189 HD
HETATM    7  N   UNL     1     -40.042  52.691 -50.469  1.00  0.00    -0.168 NA
HETATM    8  C   UNL     1     -40.055  52.575 -51.817  1.00  0.00     0.156 A 
HETATM    9  C   UNL     1     -41.581  55.807 -51.550  1.00  0.00     0.034 A 
HETATM   10  C   UNL     1     -41.845  56.203 -52.869  1.00  0.00     0.032 A 
ENDROOT
BRANCH   1  11
HETATM   11  N   UNL     1     -41.826  55.907 -55.247  1.00  0.00    -0.323 N 
HETATM   12  C   UNL     1     -42.669  55.341 -56.186  1.00  0.00     0.256 C 
HETATM   13  O   UNL     1     -43.299  54.296 -56.066  1.00  0.00    -0.267 OA
HETATM   14  H   UNL     1     -41.424  56.807 -55.469  1.00  0.00     0.169 HD
BRANCH  12  15
HETATM   15  C   UNL     1     -42.841  56.113 -57.454  1.00  0.00     0.035 A 
HETATM   16  C   UNL     1     -42.795  57.513 -57.373  1.00  0.00     0.053 A 
HETATM   17  C   UNL     1     -42.955  58.294 -58.518  1.00  0.00     0.069 A 
HETATM   18  C   UNL     1     -43.154  57.666 -59.749  1.00  0.00     0.037 A 
HETATM   19  C   UNL     1     -43.219  56.274 -59.837  1.00  0.00     0.004 A 
HETATM   20  C   UNL     1     -43.072  55.494 -58.689  1.00  0.00     0.017 A 
BRANCH  17  21
HETATM   21  O   UNL     1     -42.935  59.661 -58.566  1.00  0.00    -0.351 OA
BRANCH  21  22
HETATM   22  C   UNL     1     -41.708  60.301 -58.204  1.00  0.00     0.179 C 
BRANCH  22  23
HETATM   23  C   UNL     1     -41.527  61.559 -59.069  1.00  0.00     0.002 C 
HETATM   24  C   UNL     1     -41.609  61.227 -60.560  1.00  0.00     0.011 C 
HETATM   25  C   UNL     1     -40.195  62.236 -58.748  1.00  0.00     0.011 C 
ENDBRANCH  22  23
ENDBRANCH  21  22
ENDBRANCH  17  21
ENDBRANCH  12  15
ENDBRANCH   1  11
BRANCH   8  26
HETATM   26  C   UNL     1     -39.539  51.369 -52.481  1.00  0.00     0.270 C 
HETATM   27  N   UNL     1     -39.513  50.259 -51.681  1.00  0.00    -0.365 N 
HETATM   28  H   UNL     1     -39.846  50.340 -50.728  1.00  0.00     0.159 HD
HETATM   29  H   UNL     1     -39.189  49.382 -52.056  1.00  0.00     0.159 HD
HETATM   30  O   UNL     1     -39.163  51.317 -53.647  1.00  0.00    -0.266 OA
ENDBRANCH   8  26
TORSDOF 6
ENDMDL
