MODEL 1
REMARK VINA RESULT:      -9.2      0.000      0.000
REMARK  7 active torsions:
REMARK  status: ('A' for Active; 'I' for Inactive)
REMARK    1  A    between atoms: C_2  and  C_3 
REMARK    2  A    between atoms: N_21  and  N_23 
REMARK       I    between atoms: N_23  and  C_24 
REMARK    3  A    between atoms: C_24  and  C_25 
REMARK    4  A    between atoms: C_25  and  N_26 
REMARK    5  A    between atoms: C_25  and  C_34 
REMARK       I    between atoms: N_26  and  C_27 
REMARK    6  A    between atoms: C_27  and  O_28 
REMARK    7  A    between atoms: O_28  and  C_29 
ROOT
HETATM    1  C   UNL     1     -44.841  58.534 -57.972  1.00  0.00    -0.041 C 
HETATM    2  C   UNL     1     -43.778  59.466 -57.564  1.00  0.00     0.005 C 
HETATM    3  C   UNL     1     -42.468  58.983 -57.505  1.00  0.00     0.091 C 
HETATM    4  C   UNL     1     -41.382  59.845 -57.627  1.00  0.00     0.075 C 
HETATM    5  C   UNL     1     -41.631  61.213 -57.729  1.00  0.00     0.079 C 
HETATM    6  C   UNL     1     -42.901  61.726 -57.454  1.00  0.00    -0.024 C 
HETATM    7  C   UNL     1     -43.130  63.211 -57.352  1.00  0.00     0.044 C 
HETATM    8  C   UNL     1     -41.871  63.999 -57.705  1.00  0.00     0.043 C 
HETATM    9  C   UNL     1     -41.062  63.259 -58.784  1.00  0.00     0.068 C 
HETATM   10  C   UNL     1     -41.889  63.060 -60.089  1.00  0.00     0.038 C 
HETATM   11  C   UNL     1     -41.083  62.406 -61.207  1.00  0.00     0.003 C 
HETATM   12  C   UNL     1     -39.846  63.228 -61.530  1.00  0.00     0.000 C 
HETATM   13  C   UNL     1     -38.992  63.453 -60.286  1.00  0.00     0.003 C 
HETATM   14  C   UNL     1     -39.795  64.070 -59.135  1.00  0.00     0.038 C 
HETATM   15  O   UNL     1     -40.615  62.001 -58.208  1.00  0.00    -0.340 OA
HETATM   16  C   UNL     1     -43.984  60.841 -57.406  1.00  0.00     0.024 C 
HETATM   17  O   UNL     1     -42.209  57.603 -57.361  1.00  0.00    -0.292 OA
HETATM   18  C   UNL     1     -43.256  56.740 -57.562  1.00  0.00     0.163 C 
HETATM   19  N   UNL     1     -43.007  55.503 -57.343  1.00  0.00    -0.277 N 
HETATM   20  H   UNL     1     -43.706  54.803 -57.646  1.00  0.00     0.189 HD
HETATM   21  C   UNL     1     -44.551  57.226 -58.027  1.00  0.00     0.065 C 
ENDROOT
BRANCH  19  22
HETATM   22  N   UNL     1     -41.949  55.012 -56.556  1.00  0.00    -0.266 N 
HETATM   23  C   UNL     1     -42.342  54.644 -55.277  1.00  0.00     0.263 C 
HETATM   24  O   UNL     1     -43.509  54.282 -55.085  1.00  0.00    -0.269 OA
HETATM   25  H   UNL     1     -41.014  55.337 -56.787  1.00  0.00     0.190 HD
BRANCH  23  26
HETATM   26  C   UNL     1     -41.339  54.976 -54.145  1.00  0.00     0.214 C 
BRANCH  26  27
HETATM   27  N   UNL     1     -42.051  55.798 -53.180  1.00  0.00    -0.319 N 
HETATM   28  C   UNL     1     -42.021  57.156 -53.226  1.00  0.00     0.362 C 
HETATM   29  O   UNL     1     -41.400  57.783 -54.075  1.00  0.00    -0.238 OA
HETATM   30  H   UNL     1     -42.641  55.375 -52.474  1.00  0.00     0.166 HD
BRANCH  28  31
HETATM   31  O   UNL     1     -42.834  57.650 -52.273  1.00  0.00    -0.294 OA
BRANCH  31  32
HETATM   32  C   UNL     1     -44.102  58.276 -52.598  1.00  0.00     0.061 C 
HETATM   33  C   UNL     1     -44.720  57.672 -53.865  1.00  0.00     0.046 C 
HETATM   34  C   UNL     1     -45.019  57.954 -51.407  1.00  0.00     0.046 C 
HETATM   35  C   UNL     1     -43.942  59.794 -52.709  1.00  0.00     0.046 C 
ENDBRANCH  31  32
ENDBRANCH  28  31
ENDBRANCH  26  27
BRANCH  26  36
HETATM   36  C   UNL     1     -40.769  53.755 -53.461  1.00  0.00    -0.026 A 
HETATM   37  C   UNL     1     -40.280  52.689 -54.234  1.00  0.00     0.010 A 
HETATM   38  C   UNL     1     -39.686  51.582 -53.626  1.00  0.00     0.001 A 
HETATM   39  C   UNL     1     -39.566  51.526 -52.239  1.00  0.00     0.000 A 
HETATM   40  C   UNL     1     -40.033  52.580 -51.460  1.00  0.00     0.001 A 
HETATM   41  C   UNL     1     -40.625  53.690 -52.064  1.00  0.00     0.010 A 
ENDBRANCH  26  36
ENDBRANCH  23  26
ENDBRANCH  19  22
BRANCH   1  42
HETATM   42  C   UNL     1     -46.143  59.062 -58.532  1.00  0.00     0.035 C 
HETATM   43  C   UNL     1     -47.353  58.639 -57.716  1.00  0.00     0.010 C 
ENDBRANCH   1  42
TORSDOF 7
ENDMDL
MODEL 2
REMARK VINA RESULT:      -8.3      1.597      2.054
REMARK  7 active torsions:
REMARK  status: ('A' for Active; 'I' for Inactive)
REMARK    1  A    between atoms: C_2  and  C_3 
REMARK    2  A    between atoms: N_21  and  N_23 
REMARK       I    between atoms: N_23  and  C_24 
REMARK    3  A    between atoms: C_24  and  C_25 
REMARK    4  A    between atoms: C_25  and  N_26 
REMARK    5  A    between atoms: C_25  and  C_34 
REMARK       I    between atoms: N_26  and  C_27 
REMARK    6  A    between atoms: C_27  and  O_28 
REMARK    7  A    between atoms: O_28  and  C_29 
ROOT
HETATM    1  C   UNL     1     -44.200  56.926 -58.810  1.00  0.00    -0.041 C 
HETATM    2  C   UNL     1     -43.924  58.306 -58.378  1.00  0.00     0.005 C 
HETATM    3  C   UNL     1     -42.760  58.544 -57.641  1.00  0.00     0.091 C 
HETATM    4  C   UNL     1     -42.169  59.804 -57.626  1.00  0.00     0.075 C 
HETATM    5  C   UNL     1     -42.809  60.844 -58.298  1.00  0.00     0.079 C 
HETATM    6  C   UNL     1     -44.124  60.696 -58.746  1.00  0.00    -0.024 C 
HETATM    7  C   UNL     1     -44.896  61.874 -59.279  1.00  0.00     0.044 C 
HETATM    8  C   UNL     1     -44.025  63.125 -59.365  1.00  0.00     0.043 C 
HETATM    9  C   UNL     1     -42.573  62.742 -59.699  1.00  0.00     0.068 C 
HETATM   10  C   UNL     1     -42.472  61.989 -61.059  1.00  0.00     0.038 C 
HETATM   11  C   UNL     1     -41.034  61.675 -61.457  1.00  0.00     0.003 C 
HETATM   12  C   UNL     1     -40.208  62.948 -61.538  1.00  0.00     0.000 C 
HETATM   13  C   UNL     1     -40.265  63.727 -60.228  1.00  0.00     0.003 C 
HETATM   14  C   UNL     1     -41.704  64.017 -59.788  1.00  0.00     0.038 C 
HETATM   15  O   UNL     1     -42.062  61.958 -58.586  1.00  0.00    -0.340 OA
HETATM   16  C   UNL     1     -44.667  59.408 -58.815  1.00  0.00     0.024 C 
HETATM   17  O   UNL     1     -42.130  57.504 -56.925  1.00  0.00    -0.292 OA
HETATM   18  C   UNL     1     -42.524  56.218 -57.200  1.00  0.00     0.163 C 
HETATM   19  N   UNL     1     -41.992  55.306 -56.475  1.00  0.00    -0.277 N 
HETATM   20  H   UNL     1     -42.124  54.320 -56.756  1.00  0.00     0.189 HD
HETATM   21  C   UNL     1     -43.469  55.937 -58.276  1.00  0.00     0.065 C 
ENDROOT
BRANCH  19  22
HETATM   22  N   UNL     1     -41.395  55.511 -55.217  1.00  0.00    -0.266 N 
HETATM   23  C   UNL     1     -40.459  54.540 -54.890  1.00  0.00     0.263 C 
HETATM   24  O   UNL     1     -39.863  53.947 -55.796  1.00  0.00    -0.269 OA
HETATM   25  H   UNL     1     -41.936  56.028 -54.529  1.00  0.00     0.190 HD
BRANCH  23  26
HETATM   26  C   UNL     1     -40.438  54.101 -53.405  1.00  0.00     0.214 C 
BRANCH  26  27
HETATM   27  N   UNL     1     -41.695  54.535 -52.820  1.00  0.00    -0.319 N 
HETATM   28  C   UNL     1     -41.754  55.154 -51.612  1.00  0.00     0.362 C 
HETATM   29  O   UNL     1     -40.764  55.391 -50.932  1.00  0.00    -0.238 OA
HETATM   30  H   UNL     1     -42.565  54.437 -53.330  1.00  0.00     0.166 HD
BRANCH  28  31
HETATM   31  O   UNL     1     -43.026  55.520 -51.363  1.00  0.00    -0.294 OA
BRANCH  31  32
HETATM   32  C   UNL     1     -43.558  56.793 -51.812  1.00  0.00     0.061 C 
HETATM   33  C   UNL     1     -44.020  56.727 -53.274  1.00  0.00     0.046 C 
HETATM   34  C   UNL     1     -44.787  57.044 -50.924  1.00  0.00     0.046 C 
HETATM   35  C   UNL     1     -42.541  57.914 -51.586  1.00  0.00     0.046 C 
ENDBRANCH  31  32
ENDBRANCH  28  31
ENDBRANCH  26  27
BRANCH  26  36
HETATM   36  C   UNL     1     -40.267  52.611 -53.215  1.00  0.00    -0.026 A 
HETATM   37  C   UNL     1     -40.572  51.735 -54.270  1.00  0.00     0.010 A 
HETATM   38  C   UNL     1     -40.356  50.362 -54.140  1.00  0.00     0.001 A 
HETATM   39  C   UNL     1     -39.827  49.845 -52.960  1.00  0.00     0.000 A 
HETATM   40  C   UNL     1     -39.507  50.702 -51.911  1.00  0.00     0.001 A 
HETATM   41  C   UNL     1     -39.718  52.075 -52.037  1.00  0.00     0.010 A 
ENDBRANCH  26  36
ENDBRANCH  23  26
ENDBRANCH  19  22
BRANCH   1  42
HETATM   42  C   UNL     1     -45.117  56.664 -59.984  1.00  0.00     0.035 C 
HETATM   43  C   UNL     1     -44.993  55.251 -60.527  1.00  0.00     0.010 C 
ENDBRANCH   1  42
TORSDOF 7
ENDMDL
MODEL 3
REMARK VINA RESULT:      -8.1      1.415      2.146
REMARK  7 active torsions:
REMARK  status: ('A' for Active; 'I' for Inactive)
REMARK    1  A    between atoms: C_2  and  C_3 
REMARK    2  A    between atoms: N_21  and  N_23 
REMARK       I    between atoms: N_23  and  C_24 
REMARK    3  A    between atoms: C_24  and  C_25 
REMARK    4  A    between atoms: C_25  and  N_26 
REMARK    5  A    between atoms: C_25  and  C_34 
REMARK       I    between atoms: N_26  and  C_27 
REMARK    6  A    between atoms: C_27  and  O_28 
REMARK    7  A    between atoms: O_28  and  C_29 
ROOT
HETATM    1  C   UNL     1     -44.365  57.022 -58.696  1.00  0.00    -0.041 C 
HETATM    2  C   UNL     1     -43.942  58.349 -58.220  1.00  0.00     0.005 C 
HETATM    3  C   UNL     1     -42.705  58.453 -57.579  1.00  0.00     0.091 C 
HETATM    4  C   UNL     1     -42.015  59.661 -57.550  1.00  0.00     0.075 C 
HETATM    5  C   UNL     1     -42.623  60.785 -58.107  1.00  0.00     0.079 C 
HETATM    6  C   UNL     1     -43.979  60.764 -58.443  1.00  0.00    -0.024 C 
HETATM    7  C   UNL     1     -44.696  62.027 -58.842  1.00  0.00     0.044 C 
HETATM    8  C   UNL     1     -43.737  63.212 -58.940  1.00  0.00     0.043 C 
HETATM    9  C   UNL     1     -42.354  62.740 -59.422  1.00  0.00     0.068 C 
HETATM   10  C   UNL     1     -42.431  62.063 -60.823  1.00  0.00     0.038 C 
HETATM   11  C   UNL     1     -41.062  61.664 -61.364  1.00  0.00     0.003 C 
HETATM   12  C   UNL     1     -40.145  62.873 -61.452  1.00  0.00     0.000 C 
HETATM   13  C   UNL     1     -40.027  63.576 -60.104  1.00  0.00     0.003 C 
HETATM   14  C   UNL     1     -41.396  63.948 -59.522  1.00  0.00     0.038 C 
HETATM   15  O   UNL     1     -41.816  61.854 -58.402  1.00  0.00    -0.340 OA
HETATM   16  C   UNL     1     -44.628  59.528 -58.530  1.00  0.00     0.024 C 
HETATM   17  O   UNL     1     -42.102  57.328 -56.977  1.00  0.00    -0.292 OA
HETATM   18  C   UNL     1     -42.621  56.095 -57.282  1.00  0.00     0.163 C 
HETATM   19  N   UNL     1     -42.104  55.103 -56.657  1.00  0.00    -0.277 N 
HETATM   20  H   UNL     1     -42.340  54.148 -56.976  1.00  0.00     0.189 HD
HETATM   21  C   UNL     1     -43.674  55.950 -58.283  1.00  0.00     0.065 C 
ENDROOT
BRANCH  19  22
HETATM   22  N   UNL     1     -41.388  55.187 -55.448  1.00  0.00    -0.266 N 
HETATM   23  C   UNL     1     -42.183  55.005 -54.326  1.00  0.00     0.263 C 
HETATM   24  O   UNL     1     -43.211  54.324 -54.419  1.00  0.00    -0.269 OA
HETATM   25  H   UNL     1     -40.539  55.747 -55.454  1.00  0.00     0.190 HD
BRANCH  23  26
HETATM   26  C   UNL     1     -41.842  55.899 -53.109  1.00  0.00     0.214 C 
BRANCH  26  27
HETATM   27  N   UNL     1     -43.075  56.558 -52.713  1.00  0.00    -0.319 N 
HETATM   28  C   UNL     1     -43.440  57.769 -53.210  1.00  0.00     0.362 C 
HETATM   29  O   UNL     1     -42.765  58.389 -54.022  1.00  0.00    -0.238 OA
HETATM   30  H   UNL     1     -43.731  56.101 -52.090  1.00  0.00     0.166 HD
BRANCH  28  31
HETATM   31  O   UNL     1     -44.659  58.093 -52.739  1.00  0.00    -0.294 OA
BRANCH  31  32
HETATM   32  C   UNL     1     -44.865  59.238 -51.872  1.00  0.00     0.061 C 
HETATM   33  C   UNL     1     -43.537  59.771 -51.317  1.00  0.00     0.046 C 
HETATM   34  C   UNL     1     -45.481  60.316 -52.779  1.00  0.00     0.046 C 
HETATM   35  C   UNL     1     -45.855  58.900 -50.755  1.00  0.00     0.046 C 
ENDBRANCH  31  32
ENDBRANCH  28  31
ENDBRANCH  26  27
BRANCH  26  36
HETATM   36  C   UNL     1     -41.265  55.138 -51.938  1.00  0.00    -0.026 A 
HETATM   37  C   UNL     1     -41.445  55.625 -50.633  1.00  0.00     0.010 A 
HETATM   38  C   UNL     1     -40.981  54.903 -49.533  1.00  0.00     0.001 A 
HETATM   39  C   UNL     1     -40.337  53.682 -49.718  1.00  0.00     0.000 A 
HETATM   40  C   UNL     1     -40.162  53.179 -51.004  1.00  0.00     0.001 A 
HETATM   41  C   UNL     1     -40.628  53.896 -52.107  1.00  0.00     0.010 A 
ENDBRANCH  26  36
ENDBRANCH  23  26
ENDBRANCH  19  22
BRANCH   1  42
HETATM   42  C   UNL     1     -45.397  56.901 -59.796  1.00  0.00     0.035 C 
HETATM   43  C   UNL     1     -45.206  55.660 -60.651  1.00  0.00     0.010 C 
ENDBRANCH   1  42
TORSDOF 7
ENDMDL
MODEL 4
REMARK VINA RESULT:      -7.9      1.746      4.248
REMARK  7 active torsions:
REMARK  status: ('A' for Active; 'I' for Inactive)
REMARK    1  A    between atoms: C_2  and  C_3 
REMARK    2  A    between atoms: N_21  and  N_23 
REMARK       I    between atoms: N_23  and  C_24 
REMARK    3  A    between atoms: C_24  and  C_25 
REMARK    4  A    between atoms: C_25  and  N_26 
REMARK    5  A    between atoms: C_25  and  C_34 
REMARK       I    between atoms: N_26  and  C_27 
REMARK    6  A    between atoms: C_27  and  O_28 
REMARK    7  A    between atoms: O_28  and  C_29 
ROOT
HETATM    1  C   UNL     1     -43.657  57.047 -58.871  1.00  0.00    -0.041 C 
HETATM    2  C   UNL     1     -43.679  58.385 -58.257  1.00  0.00     0.005 C 
HETATM    3  C   UNL     1     -42.848  58.617 -57.158  1.00  0.00     0.091 C 
HETATM    4  C   UNL     1     -42.426  59.904 -56.840  1.00  0.00     0.075 C 
HETATM    5  C   UNL     1     -42.917  60.968 -57.595  1.00  0.00     0.079 C 
HETATM    6  C   UNL     1     -43.993  60.782 -58.467  1.00  0.00    -0.024 C 
HETATM    7  C   UNL     1     -44.667  61.957 -59.124  1.00  0.00     0.044 C 
HETATM    8  C   UNL     1     -43.948  63.267 -58.809  1.00  0.00     0.043 C 
HETATM    9  C   UNL     1     -42.435  63.025 -58.672  1.00  0.00     0.068 C 
HETATM   10  C   UNL     1     -41.822  62.441 -59.979  1.00  0.00     0.038 C 
HETATM   11  C   UNL     1     -40.309  62.273 -59.901  1.00  0.00     0.003 C 
HETATM   12  C   UNL     1     -39.636  63.601 -59.594  1.00  0.00     0.000 C 
HETATM   13  C   UNL     1     -40.194  64.221 -58.317  1.00  0.00     0.003 C 
HETATM   14  C   UNL     1     -41.720  64.359 -58.358  1.00  0.00     0.038 C 
HETATM   15  O   UNL     1     -42.235  62.156 -57.523  1.00  0.00    -0.340 OA
HETATM   16  C   UNL     1     -44.349  59.476 -58.821  1.00  0.00     0.024 C 
HETATM   17  O   UNL     1     -42.380  57.548 -56.364  1.00  0.00    -0.292 OA
HETATM   18  C   UNL     1     -42.531  56.278 -56.862  1.00  0.00     0.163 C 
HETATM   19  N   UNL     1     -42.171  55.328 -56.081  1.00  0.00    -0.277 N 
HETATM   20  H   UNL     1     -42.103  54.374 -56.473  1.00  0.00     0.189 HD
HETATM   21  C   UNL     1     -43.042  56.056 -58.211  1.00  0.00     0.065 C 
ENDROOT
BRANCH  19  22
HETATM   22  N   UNL     1     -42.038  55.429 -54.683  1.00  0.00    -0.266 N 
HETATM   23  C   UNL     1     -43.211  55.141 -54.000  1.00  0.00     0.263 C 
HETATM   24  O   UNL     1     -44.038  54.380 -54.515  1.00  0.00    -0.269 OA
HETATM   25  H   UNL     1     -41.321  56.058 -54.333  1.00  0.00     0.190 HD
BRANCH  23  26
HETATM   26  C   UNL     1     -43.495  56.017 -52.755  1.00  0.00     0.214 C 
BRANCH  26  27
HETATM   27  N   UNL     1     -42.324  55.925 -51.900  1.00  0.00    -0.319 N 
HETATM   28  C   UNL     1     -42.367  55.336 -50.676  1.00  0.00     0.362 C 
HETATM   29  O   UNL     1     -43.385  54.843 -50.207  1.00  0.00    -0.238 OA
HETATM   30  H   UNL     1     -41.420  56.251 -52.222  1.00  0.00     0.166 HD
BRANCH  28  31
HETATM   31  O   UNL     1     -41.128  55.316 -50.150  1.00  0.00    -0.294 OA
BRANCH  31  32
HETATM   32  C   UNL     1     -40.450  54.072 -49.834  1.00  0.00     0.061 C 
HETATM   33  C   UNL     1     -40.875  52.944 -50.783  1.00  0.00     0.046 C 
HETATM   34  C   UNL     1     -38.959  54.365 -50.063  1.00  0.00     0.046 C 
HETATM   35  C   UNL     1     -40.667  53.696 -48.367  1.00  0.00     0.046 C 
ENDBRANCH  31  32
ENDBRANCH  28  31
ENDBRANCH  26  27
BRANCH  26  36
HETATM   36  C   UNL     1     -43.782  57.464 -53.084  1.00  0.00    -0.026 A 
HETATM   37  C   UNL     1     -44.777  57.781 -54.023  1.00  0.00     0.010 A 
HETATM   38  C   UNL     1     -45.107  59.110 -54.291  1.00  0.00     0.001 A 
HETATM   39  C   UNL     1     -44.454  60.142 -53.620  1.00  0.00     0.000 A 
HETATM   40  C   UNL     1     -43.476  59.844 -52.676  1.00  0.00     0.001 A 
HETATM   41  C   UNL     1     -43.145  58.516 -52.404  1.00  0.00     0.010 A 
ENDBRANCH  26  36
ENDBRANCH  23  26
ENDBRANCH  19  22
BRANCH   1  42
HETATM   42  C   UNL     1     -44.112  56.859 -60.301  1.00  0.00     0.035 C 
HETATM   43  C   UNL     1     -44.415  55.409 -60.639  1.00  0.00     0.010 C 
ENDBRANCH   1  42
TORSDOF 7
ENDMDL
MODEL 5
REMARK VINA RESULT:      -7.9      3.503      8.092
REMARK  7 active torsions:
REMARK  status: ('A' for Active; 'I' for Inactive)
REMARK    1  A    between atoms: C_2  and  C_3 
REMARK    2  A    between atoms: N_21  and  N_23 
REMARK       I    between atoms: N_23  and  C_24 
REMARK    3  A    between atoms: C_24  and  C_25 
REMARK    4  A    between atoms: C_25  and  N_26 
REMARK    5  A    between atoms: C_25  and  C_34 
REMARK       I    between atoms: N_26  and  C_27 
REMARK    6  A    between atoms: C_27  and  O_28 
REMARK    7  A    between atoms: O_28  and  C_29 
ROOT
HETATM    1  C   UNL     1     -41.186  58.937 -50.760  1.00  0.00    -0.041 C 
HETATM    2  C   UNL     1     -42.210  59.947 -51.074  1.00  0.00     0.005 C 
HETATM    3  C   UNL     1     -43.455  59.502 -51.527  1.00  0.00     0.091 C 
HETATM    4  C   UNL     1     -44.594  60.286 -51.370  1.00  0.00     0.075 C 
HETATM    5  C   UNL     1     -44.451  61.560 -50.823  1.00  0.00     0.079 C 
HETATM    6  C   UNL     1     -43.185  62.133 -50.681  1.00  0.00    -0.024 C 
HETATM    7  C   UNL     1     -43.031  63.580 -50.294  1.00  0.00     0.044 C 
HETATM    8  C   UNL     1     -44.379  64.224 -49.976  1.00  0.00     0.043 C 
HETATM    9  C   UNL     1     -45.327  63.192 -49.342  1.00  0.00     0.068 C 
HETATM   10  C   UNL     1     -44.747  62.610 -48.019  1.00  0.00     0.038 C 
HETATM   11  C   UNL     1     -45.704  61.648 -47.324  1.00  0.00     0.003 C 
HETATM   12  C   UNL     1     -47.027  62.333 -47.020  1.00  0.00     0.000 C 
HETATM   13  C   UNL     1     -47.648  62.921 -48.283  1.00  0.00     0.003 C 
HETATM   14  C   UNL     1     -46.684  63.857 -49.021  1.00  0.00     0.038 C 
HETATM   15  O   UNL     1     -45.583  62.165 -50.340  1.00  0.00    -0.340 OA
HETATM   16  C   UNL     1     -42.061  61.306 -50.776  1.00  0.00     0.024 C 
HETATM   17  O   UNL     1     -43.598  58.229 -52.120  1.00  0.00    -0.292 OA
HETATM   18  C   UNL     1     -42.557  57.347 -51.982  1.00  0.00     0.163 C 
HETATM   19  N   UNL     1     -42.686  56.233 -52.601  1.00  0.00    -0.277 N 
HETATM   20  H   UNL     1     -42.014  55.476 -52.388  1.00  0.00     0.189 HD
HETATM   21  C   UNL     1     -41.402  57.672 -51.151  1.00  0.00     0.065 C 
ENDROOT
BRANCH  19  22
HETATM   22  N   UNL     1     -43.549  56.001 -53.688  1.00  0.00    -0.266 N 
HETATM   23  C   UNL     1     -42.940  56.190 -54.920  1.00  0.00     0.263 C 
HETATM   24  O   UNL     1     -41.719  56.027 -55.022  1.00  0.00    -0.269 OA
HETATM   25  H   UNL     1     -44.543  56.133 -53.524  1.00  0.00     0.190 HD
BRANCH  23  26
HETATM   26  C   UNL     1     -43.820  56.851 -56.010  1.00  0.00     0.214 C 
BRANCH  26  27
HETATM   27  N   UNL     1     -44.176  58.172 -55.518  1.00  0.00    -0.319 N 
HETATM   28  C   UNL     1     -45.342  58.780 -55.862  1.00  0.00     0.362 C 
HETATM   29  O   UNL     1     -46.172  58.267 -56.602  1.00  0.00    -0.238 OA
HETATM   30  H   UNL     1     -43.583  58.655 -54.854  1.00  0.00     0.166 HD
BRANCH  28  31
HETATM   31  O   UNL     1     -45.446  59.946 -55.195  1.00  0.00    -0.294 OA
BRANCH  31  32
HETATM   32  C   UNL     1     -44.799  61.157 -55.666  1.00  0.00     0.061 C 
HETATM   33  C   UNL     1     -44.507  61.090 -57.171  1.00  0.00     0.046 C 
HETATM   34  C   UNL     1     -45.825  62.275 -55.419  1.00  0.00     0.046 C 
HETATM   35  C   UNL     1     -43.537  61.447 -54.851  1.00  0.00     0.046 C 
ENDBRANCH  31  32
ENDBRANCH  28  31
ENDBRANCH  26  27
BRANCH  26  36
HETATM   36  C   UNL     1     -43.138  56.967 -57.354  1.00  0.00    -0.026 A 
HETATM   37  C   UNL     1     -43.317  55.958 -58.314  1.00  0.00     0.010 A 
HETATM   38  C   UNL     1     -42.754  56.077 -59.586  1.00  0.00     0.001 A 
HETATM   39  C   UNL     1     -42.011  57.208 -59.919  1.00  0.00     0.000 A 
HETATM   40  C   UNL     1     -41.837  58.223 -58.983  1.00  0.00     0.001 A 
HETATM   41  C   UNL     1     -42.401  58.109 -57.712  1.00  0.00     0.010 A 
ENDBRANCH  26  36
ENDBRANCH  23  26
ENDBRANCH  19  22
BRANCH   1  42
HETATM   42  C   UNL     1     -40.044  59.274 -49.827  1.00  0.00     0.035 C 
HETATM   43  C   UNL     1     -38.736  59.520 -50.558  1.00  0.00     0.010 C 
ENDBRANCH   1  42
TORSDOF 7
ENDMDL
MODEL 6
REMARK VINA RESULT:      -7.8      2.441      7.760
REMARK  7 active torsions:
REMARK  status: ('A' for Active; 'I' for Inactive)
REMARK    1  A    between atoms: C_2  and  C_3 
REMARK    2  A    between atoms: N_21  and  N_23 
REMARK       I    between atoms: N_23  and  C_24 
REMARK    3  A    between atoms: C_24  and  C_25 
REMARK    4  A    between atoms: C_25  and  N_26 
REMARK    5  A    between atoms: C_25  and  C_34 
REMARK       I    between atoms: N_26  and  C_27 
REMARK    6  A    between atoms: C_27  and  O_28 
REMARK    7  A    between atoms: O_28  and  C_29 
ROOT
HETATM    1  C   UNL     1     -41.725  55.505 -55.494  1.00  0.00    -0.041 C 
HETATM    2  C   UNL     1     -42.039  56.909 -55.183  1.00  0.00     0.005 C 
HETATM    3  C   UNL     1     -43.172  57.476 -55.774  1.00  0.00     0.091 C 
HETATM    4  C   UNL     1     -43.816  58.561 -55.187  1.00  0.00     0.075 C 
HETATM    5  C   UNL     1     -43.258  59.122 -54.040  1.00  0.00     0.079 C 
HETATM    6  C   UNL     1     -41.963  58.782 -53.642  1.00  0.00    -0.024 C 
HETATM    7  C   UNL     1     -41.272  59.534 -52.536  1.00  0.00     0.044 C 
HETATM    8  C   UNL     1     -42.200  60.557 -51.885  1.00  0.00     0.043 C 
HETATM    9  C   UNL     1     -43.649  60.041 -51.889  1.00  0.00     0.068 C 
HETATM   10  C   UNL     1     -43.787  58.699 -51.109  1.00  0.00     0.038 C 
HETATM   11  C   UNL     1     -45.228  58.209 -51.023  1.00  0.00     0.003 C 
HETATM   12  C   UNL     1     -46.113  59.254 -50.362  1.00  0.00     0.000 C 
HETATM   13  C   UNL     1     -46.023  60.592 -51.089  1.00  0.00     0.003 C 
HETATM   14  C   UNL     1     -44.577  61.082 -51.224  1.00  0.00     0.038 C 
HETATM   15  O   UNL     1     -44.067  59.925 -53.277  1.00  0.00    -0.340 OA
HETATM   16  C   UNL     1     -41.368  57.644 -54.200  1.00  0.00     0.024 C 
HETATM   17  O   UNL     1     -43.718  56.937 -56.958  1.00  0.00    -0.292 OA
HETATM   18  C   UNL     1     -43.282  55.696 -57.348  1.00  0.00     0.163 C 
HETATM   19  N   UNL     1     -43.736  55.273 -58.469  1.00  0.00    -0.277 N 
HETATM   20  H   UNL     1     -43.576  54.282 -58.718  1.00  0.00     0.189 HD
HETATM   21  C   UNL     1     -42.383  54.917 -56.503  1.00  0.00     0.065 C 
ENDROOT
BRANCH  19  22
HETATM   22  N   UNL     1     -44.276  56.083 -59.486  1.00  0.00    -0.266 N 
HETATM   23  C   UNL     1     -43.320  56.837 -60.150  1.00  0.00     0.263 C 
HETATM   24  O   UNL     1     -42.157  56.423 -60.207  1.00  0.00    -0.269 OA
HETATM   25  H   UNL     1     -45.247  56.365 -59.383  1.00  0.00     0.190 HD
BRANCH  23  26
HETATM   26  C   UNL     1     -43.750  58.273 -60.540  1.00  0.00     0.214 C 
BRANCH  26  27
HETATM   27  N   UNL     1     -45.066  58.489 -59.963  1.00  0.00    -0.319 N 
HETATM   28  C   UNL     1     -45.931  59.413 -60.460  1.00  0.00     0.362 C 
HETATM   29  O   UNL     1     -45.669  60.124 -61.422  1.00  0.00    -0.238 OA
HETATM   30  H   UNL     1     -45.399  57.911 -59.201  1.00  0.00     0.166 HD
BRANCH  28  31
HETATM   31  O   UNL     1     -47.096  59.334 -59.791  1.00  0.00    -0.294 OA
BRANCH  31  32
HETATM   32  C   UNL     1     -47.186  59.629 -58.373  1.00  0.00     0.061 C 
HETATM   33  C   UNL     1     -46.135  60.661 -57.945  1.00  0.00     0.046 C 
HETATM   34  C   UNL     1     -48.580  60.249 -58.185  1.00  0.00     0.046 C 
HETATM   35  C   UNL     1     -47.095  58.345 -57.546  1.00  0.00     0.046 C 
ENDBRANCH  31  32
ENDBRANCH  28  31
ENDBRANCH  26  27
BRANCH  26  36
HETATM   36  C   UNL     1     -42.795  59.344 -60.063  1.00  0.00    -0.026 A 
HETATM   37  C   UNL     1     -42.263  60.262 -60.983  1.00  0.00     0.010 A 
HETATM   38  C   UNL     1     -41.435  61.300 -60.555  1.00  0.00     0.001 A 
HETATM   39  C   UNL     1     -41.132  61.442 -59.202  1.00  0.00     0.000 A 
HETATM   40  C   UNL     1     -41.662  60.548 -58.276  1.00  0.00     0.001 A 
HETATM   41  C   UNL     1     -42.493  59.510 -58.700  1.00  0.00     0.010 A 
ENDBRANCH  26  36
ENDBRANCH  23  26
ENDBRANCH  19  22
BRANCH   1  42
HETATM   42  C   UNL     1     -40.859  54.693 -54.557  1.00  0.00     0.035 C 
HETATM   43  C   UNL     1     -41.374  53.279 -54.352  1.00  0.00     0.010 C 
ENDBRANCH   1  42
TORSDOF 7
ENDMDL
MODEL 7
REMARK VINA RESULT:      -7.7      3.948      7.256
REMARK  7 active torsions:
REMARK  status: ('A' for Active; 'I' for Inactive)
REMARK    1  A    between atoms: C_2  and  C_3 
REMARK    2  A    between atoms: N_21  and  N_23 
REMARK       I    between atoms: N_23  and  C_24 
REMARK    3  A    between atoms: C_24  and  C_25 
REMARK    4  A    between atoms: C_25  and  N_26 
REMARK    5  A    between atoms: C_25  and  C_34 
REMARK       I    between atoms: N_26  and  C_27 
REMARK    6  A    between atoms: C_27  and  O_28 
REMARK    7  A    between atoms: O_28  and  C_29 
ROOT
HETATM    1  C   UNL     1     -43.383  62.284 -51.520  1.00  0.00    -0.041 C 
HETATM    2  C   UNL     1     -44.569  62.051 -52.360  1.00  0.00     0.005 C 
HETATM    3  C   UNL     1     -45.266  60.850 -52.196  1.00  0.00     0.091 C 
HETATM    4  C   UNL     1     -46.610  60.750 -52.543  1.00  0.00     0.075 C 
HETATM    5  C   UNL     1     -47.225  61.853 -53.133  1.00  0.00     0.079 C 
HETATM    6  C   UNL     1     -46.461  62.925 -53.602  1.00  0.00    -0.024 C 
HETATM    7  C   UNL     1     -47.088  64.017 -54.428  1.00  0.00     0.044 C 
HETATM    8  C   UNL     1     -48.601  63.840 -54.541  1.00  0.00     0.043 C 
HETATM    9  C   UNL     1     -49.163  63.215 -53.252  1.00  0.00     0.068 C 
HETATM   10  C   UNL     1     -48.873  64.103 -52.005  1.00  0.00     0.038 C 
HETATM   11  C   UNL     1     -49.494  63.551 -50.727  1.00  0.00     0.003 C 
HETATM   12  C   UNL     1     -50.999  63.400 -50.883  1.00  0.00     0.000 C 
HETATM   13  C   UNL     1     -51.344  62.532 -52.089  1.00  0.00     0.003 C 
HETATM   14  C   UNL     1     -50.693  63.046 -53.378  1.00  0.00     0.038 C 
HETATM   15  O   UNL     1     -48.597  61.881 -53.132  1.00  0.00    -0.340 OA
HETATM   16  C   UNL     1     -45.132  63.035 -53.180  1.00  0.00     0.024 C 
HETATM   17  O   UNL     1     -44.636  59.717 -51.637  1.00  0.00    -0.292 OA
HETATM   18  C   UNL     1     -43.431  59.909 -51.010  1.00  0.00     0.163 C 
HETATM   19  N   UNL     1     -42.849  58.849 -50.587  1.00  0.00    -0.277 N 
HETATM   20  H   UNL     1     -42.032  58.957 -49.962  1.00  0.00     0.189 HD
HETATM   21  C   UNL     1     -42.886  61.250 -50.825  1.00  0.00     0.065 C 
ENDROOT
BRANCH  19  22
HETATM   22  N   UNL     1     -43.103  57.543 -51.045  1.00  0.00    -0.266 N 
HETATM   23  C   UNL     1     -42.105  57.050 -51.874  1.00  0.00     0.263 C 
HETATM   24  O   UNL     1     -40.951  57.474 -51.748  1.00  0.00    -0.269 OA
HETATM   25  H   UNL     1     -44.076  57.255 -51.100  1.00  0.00     0.190 HD
BRANCH  23  26
HETATM   26  C   UNL     1     -42.589  56.192 -53.069  1.00  0.00     0.214 C 
BRANCH  26  27
HETATM   27  N   UNL     1     -42.466  57.020 -54.258  1.00  0.00    -0.319 N 
HETATM   28  C   UNL     1     -43.523  57.691 -54.784  1.00  0.00     0.362 C 
HETATM   29  O   UNL     1     -44.648  57.651 -54.301  1.00  0.00    -0.238 OA
HETATM   30  H   UNL     1     -41.564  57.164 -54.697  1.00  0.00     0.166 HD
BRANCH  28  31
HETATM   31  O   UNL     1     -43.102  58.439 -55.821  1.00  0.00    -0.294 OA
BRANCH  31  32
HETATM   32  C   UNL     1     -42.941  59.878 -55.711  1.00  0.00     0.061 C 
HETATM   33  C   UNL     1     -42.164  60.262 -54.445  1.00  0.00     0.046 C 
HETATM   34  C   UNL     1     -42.103  60.277 -56.936  1.00  0.00     0.046 C 
HETATM   35  C   UNL     1     -44.299  60.580 -55.782  1.00  0.00     0.046 C 
ENDBRANCH  31  32
ENDBRANCH  28  31
ENDBRANCH  26  27
BRANCH  26  36
HETATM   36  C   UNL     1     -41.811  54.909 -53.251  1.00  0.00    -0.026 A 
HETATM   37  C   UNL     1     -41.361  54.543 -54.530  1.00  0.00     0.010 A 
HETATM   38  C   UNL     1     -40.582  53.398 -54.710  1.00  0.00     0.001 A 
HETATM   39  C   UNL     1     -40.235  52.609 -53.616  1.00  0.00     0.000 A 
HETATM   40  C   UNL     1     -40.661  52.966 -52.340  1.00  0.00     0.001 A 
HETATM   41  C   UNL     1     -41.438  54.110 -52.156  1.00  0.00     0.010 A 
ENDBRANCH  26  36
ENDBRANCH  23  26
ENDBRANCH  19  22
BRANCH   1  42
HETATM   42  C   UNL     1     -42.890  63.692 -51.273  1.00  0.00     0.035 C 
HETATM   43  C   UNL     1     -42.860  64.058 -49.799  1.00  0.00     0.010 C 
ENDBRANCH   1  42
TORSDOF 7
ENDMDL
MODEL 8
REMARK VINA RESULT:      -7.6      2.918      5.714
REMARK  7 active torsions:
REMARK  status: ('A' for Active; 'I' for Inactive)
REMARK    1  A    between atoms: C_2  and  C_3 
REMARK    2  A    between atoms: N_21  and  N_23 
REMARK       I    between atoms: N_23  and  C_24 
REMARK    3  A    between atoms: C_24  and  C_25 
REMARK    4  A    between atoms: C_25  and  N_26 
REMARK    5  A    between atoms: C_25  and  C_34 
REMARK       I    between atoms: N_26  and  C_27 
REMARK    6  A    between atoms: C_27  and  O_28 
REMARK    7  A    between atoms: O_28  and  C_29 
ROOT
HETATM    1  C   UNL     1     -43.261  60.748 -51.496  1.00  0.00    -0.041 C 
HETATM    2  C   UNL     1     -43.678  60.664 -52.905  1.00  0.00     0.005 C 
HETATM    3  C   UNL     1     -44.450  59.567 -53.297  1.00  0.00     0.091 C 
HETATM    4  C   UNL     1     -45.283  59.641 -54.409  1.00  0.00     0.075 C 
HETATM    5  C   UNL     1     -45.269  60.808 -55.171  1.00  0.00     0.079 C 
HETATM    6  C   UNL     1     -44.268  61.765 -54.984  1.00  0.00    -0.024 C 
HETATM    7  C   UNL     1     -44.117  62.921 -55.938  1.00  0.00     0.044 C 
HETATM    8  C   UNL     1     -45.234  62.943 -56.978  1.00  0.00     0.043 C 
HETATM    9  C   UNL     1     -46.543  62.412 -56.367  1.00  0.00     0.068 C 
HETATM   10  C   UNL     1     -47.000  63.268 -55.149  1.00  0.00     0.038 C 
HETATM   11  C   UNL     1     -48.340  62.818 -54.578  1.00  0.00     0.003 C 
HETATM   12  C   UNL     1     -49.422  62.863 -55.644  1.00  0.00     0.000 C 
HETATM   13  C   UNL     1     -49.030  62.035 -56.864  1.00  0.00     0.003 C 
HETATM   14  C   UNL     1     -47.665  62.444 -57.428  1.00  0.00     0.038 C 
HETATM   15  O   UNL     1     -46.327  61.017 -56.020  1.00  0.00    -0.340 OA
HETATM   16  C   UNL     1     -43.492  61.704 -53.822  1.00  0.00     0.024 C 
HETATM   17  O   UNL     1     -44.437  58.368 -52.553  1.00  0.00    -0.292 OA
HETATM   18  C   UNL     1     -43.876  58.407 -51.301  1.00  0.00     0.163 C 
HETATM   19  N   UNL     1     -43.808  57.285 -50.688  1.00  0.00    -0.277 N 
HETATM   20  H   UNL     1     -43.556  57.292 -49.685  1.00  0.00     0.189 HD
HETATM   21  C   UNL     1     -43.425  59.667 -50.720  1.00  0.00     0.065 C 
ENDROOT
BRANCH  19  22
HETATM   22  N   UNL     1     -43.861  56.018 -51.299  1.00  0.00    -0.266 N 
HETATM   23  C   UNL     1     -42.618  55.550 -51.699  1.00  0.00     0.263 C 
HETATM   24  O   UNL     1     -41.607  55.933 -51.099  1.00  0.00    -0.269 OA
HETATM   25  H   UNL     1     -44.734  55.762 -51.753  1.00  0.00     0.190 HD
BRANCH  23  26
HETATM   26  C   UNL     1     -42.590  54.785 -53.045  1.00  0.00     0.214 C 
BRANCH  26  27
HETATM   27  N   UNL     1     -42.378  55.775 -54.088  1.00  0.00    -0.319 N 
HETATM   28  C   UNL     1     -43.405  56.299 -54.807  1.00  0.00     0.362 C 
HETATM   29  O   UNL     1     -44.575  55.981 -54.631  1.00  0.00    -0.238 OA
HETATM   30  H   UNL     1     -41.453  56.146 -54.269  1.00  0.00     0.166 HD
BRANCH  28  31
HETATM   31  O   UNL     1     -42.928  57.248 -55.634  1.00  0.00    -0.294 OA
BRANCH  31  32
HETATM   32  C   UNL     1     -43.176  57.212 -57.064  1.00  0.00     0.061 C 
HETATM   33  C   UNL     1     -44.560  57.775 -57.410  1.00  0.00     0.046 C 
HETATM   34  C   UNL     1     -42.109  58.135 -57.673  1.00  0.00     0.046 C 
HETATM   35  C   UNL     1     -42.982  55.795 -57.610  1.00  0.00     0.046 C 
ENDBRANCH  31  32
ENDBRANCH  28  31
ENDBRANCH  26  27
BRANCH  26  36
HETATM   36  C   UNL     1     -41.518  53.722 -53.117  1.00  0.00    -0.026 A 
HETATM   37  C   UNL     1     -40.886  53.289 -51.940  1.00  0.00     0.010 A 
HETATM   38  C   UNL     1     -39.943  52.260 -51.974  1.00  0.00     0.001 A 
HETATM   39  C   UNL     1     -39.624  51.644 -53.181  1.00  0.00     0.000 A 
HETATM   40  C   UNL     1     -40.252  52.051 -54.355  1.00  0.00     0.001 A 
HETATM   41  C   UNL     1     -41.197  53.077 -54.324  1.00  0.00     0.010 A 
ENDBRANCH  26  36
ENDBRANCH  23  26
ENDBRANCH  19  22
BRANCH   1  42
HETATM   42  C   UNL     1     -42.879  62.082 -50.893  1.00  0.00     0.035 C 
HETATM   43  C   UNL     1     -43.914  62.606 -49.913  1.00  0.00     0.010 C 
ENDBRANCH   1  42
TORSDOF 7
ENDMDL
MODEL 9
REMARK VINA RESULT:      -7.5      3.382      8.564
REMARK  7 active torsions:
REMARK  status: ('A' for Active; 'I' for Inactive)
REMARK    1  A    between atoms: C_2  and  C_3 
REMARK    2  A    between atoms: N_21  and  N_23 
REMARK       I    between atoms: N_23  and  C_24 
REMARK    3  A    between atoms: C_24  and  C_25 
REMARK    4  A    between atoms: C_25  and  N_26 
REMARK    5  A    between atoms: C_25  and  C_34 
REMARK       I    between atoms: N_26  and  C_27 
REMARK    6  A    between atoms: C_27  and  O_28 
REMARK    7  A    between atoms: O_28  and  C_29 
ROOT
HETATM    1  C   UNL     1     -41.696  58.843 -51.348  1.00  0.00    -0.041 C 
HETATM    2  C   UNL     1     -42.543  60.041 -51.466  1.00  0.00     0.005 C 
HETATM    3  C   UNL     1     -43.814  59.894 -52.029  1.00  0.00     0.091 C 
HETATM    4  C   UNL     1     -44.834  60.795 -51.737  1.00  0.00     0.075 C 
HETATM    5  C   UNL     1     -44.536  61.893 -50.932  1.00  0.00     0.079 C 
HETATM    6  C   UNL     1     -43.209  62.225 -50.646  1.00  0.00    -0.024 C 
HETATM    7  C   UNL     1     -42.868  63.522 -49.962  1.00  0.00     0.044 C 
HETATM    8  C   UNL     1     -44.122  64.287 -49.546  1.00  0.00     0.043 C 
HETATM    9  C   UNL     1     -45.243  63.305 -49.163  1.00  0.00     0.068 C 
HETATM   10  C   UNL     1     -44.824  62.384 -47.978  1.00  0.00     0.038 C 
HETATM   11  C   UNL     1     -45.948  61.460 -47.520  1.00  0.00     0.003 C 
HETATM   12  C   UNL     1     -47.171  62.264 -47.109  1.00  0.00     0.000 C 
HETATM   13  C   UNL     1     -47.631  63.183 -48.235  1.00  0.00     0.003 C 
HETATM   14  C   UNL     1     -46.504  64.092 -48.739  1.00  0.00     0.038 C 
HETATM   15  O   UNL     1     -45.592  62.555 -50.358  1.00  0.00    -0.340 OA
HETATM   16  C   UNL     1     -42.214  61.272 -50.888  1.00  0.00     0.024 C 
HETATM   17  O   UNL     1     -44.110  58.806 -52.878  1.00  0.00    -0.292 OA
HETATM   18  C   UNL     1     -43.216  57.765 -52.905  1.00  0.00     0.163 C 
HETATM   19  N   UNL     1     -43.473  56.833 -53.746  1.00  0.00    -0.277 N 
HETATM   20  H   UNL     1     -42.931  55.954 -53.681  1.00  0.00     0.189 HD
HETATM   21  C   UNL     1     -42.072  57.733 -52.000  1.00  0.00     0.065 C 
ENDROOT
BRANCH  19  22
HETATM   22  N   UNL     1     -44.302  56.962 -54.876  1.00  0.00    -0.266 N 
HETATM   23  C   UNL     1     -43.594  57.056 -56.066  1.00  0.00     0.263 C 
HETATM   24  O   UNL     1     -42.474  56.539 -56.144  1.00  0.00    -0.269 OA
HETATM   25  H   UNL     1     -45.219  57.376 -54.731  1.00  0.00     0.190 HD
BRANCH  23  26
HETATM   26  C   UNL     1     -44.171  58.039 -57.114  1.00  0.00     0.214 C 
BRANCH  26  27
HETATM   27  N   UNL     1     -43.057  58.832 -57.605  1.00  0.00    -0.319 N 
HETATM   28  C   UNL     1     -42.616  59.940 -56.953  1.00  0.00     0.362 C 
HETATM   29  O   UNL     1     -43.117  60.348 -55.913  1.00  0.00    -0.238 OA
HETATM   30  H   UNL     1     -42.538  58.545 -58.427  1.00  0.00     0.166 HD
BRANCH  28  31
HETATM   31  O   UNL     1     -41.526  60.419 -57.582  1.00  0.00    -0.294 OA
BRANCH  31  32
HETATM   32  C   UNL     1     -41.626  61.401 -58.646  1.00  0.00     0.061 C 
HETATM   33  C   UNL     1     -42.796  62.366 -58.413  1.00  0.00     0.046 C 
HETATM   34  C   UNL     1     -40.315  62.200 -58.572  1.00  0.00     0.046 C 
HETATM   35  C   UNL     1     -41.716  60.713 -60.010  1.00  0.00     0.046 C 
ENDBRANCH  31  32
ENDBRANCH  28  31
ENDBRANCH  26  27
BRANCH  26  36
HETATM   36  C   UNL     1     -44.867  57.355 -58.269  1.00  0.00    -0.026 A 
HETATM   37  C   UNL     1     -46.210  57.656 -58.549  1.00  0.00     0.010 A 
HETATM   38  C   UNL     1     -46.852  57.089 -59.652  1.00  0.00     0.001 A 
HETATM   39  C   UNL     1     -46.161  56.221 -60.494  1.00  0.00     0.000 A 
HETATM   40  C   UNL     1     -44.825  55.924 -60.238  1.00  0.00     0.001 A 
HETATM   41  C   UNL     1     -44.179  56.491 -59.138  1.00  0.00     0.010 A 
ENDBRANCH  26  36
ENDBRANCH  23  26
ENDBRANCH  19  22
BRANCH   1  42
HETATM   42  C   UNL     1     -40.569  58.804 -50.341  1.00  0.00     0.035 C 
HETATM   43  C   UNL     1     -39.244  59.275 -50.917  1.00  0.00     0.010 C 
ENDBRANCH   1  42
TORSDOF 7
ENDMDL
MODEL 10
REMARK VINA RESULT:      -7.4      2.450      9.546
REMARK  7 active torsions:
REMARK  status: ('A' for Active; 'I' for Inactive)
REMARK    1  A    between atoms: C_2  and  C_3 
REMARK    2  A    between atoms: N_21  and  N_23 
REMARK       I    between atoms: N_23  and  C_24 
REMARK    3  A    between atoms: C_24  and  C_25 
REMARK    4  A    between atoms: C_25  and  N_26 
REMARK    5  A    between atoms: C_25  and  C_34 
REMARK       I    between atoms: N_26  and  C_27 
REMARK    6  A    between atoms: C_27  and  O_28 
REMARK    7  A    between atoms: O_28  and  C_29 
ROOT
HETATM    1  C   UNL     1     -43.316  60.184 -52.888  1.00  0.00    -0.041 C 
HETATM    2  C   UNL     1     -43.395  58.714 -52.937  1.00  0.00     0.005 C 
HETATM    3  C   UNL     1     -42.611  58.044 -53.880  1.00  0.00     0.091 C 
HETATM    4  C   UNL     1     -42.236  56.719 -53.685  1.00  0.00     0.075 C 
HETATM    5  C   UNL     1     -42.727  56.049 -52.566  1.00  0.00     0.079 C 
HETATM    6  C   UNL     1     -43.766  56.598 -51.810  1.00  0.00    -0.024 C 
HETATM    7  C   UNL     1     -44.447  55.794 -50.734  1.00  0.00     0.044 C 
HETATM    8  C   UNL     1     -43.775  54.438 -50.534  1.00  0.00     0.043 C 
HETATM    9  C   UNL     1     -42.262  54.548 -50.789  1.00  0.00     0.068 C 
HETATM   10  C   UNL     1     -41.587  55.568 -49.824  1.00  0.00     0.038 C 
HETATM   11  C   UNL     1     -40.073  55.634 -49.997  1.00  0.00     0.003 C 
HETATM   12  C   UNL     1     -39.447  54.265 -49.781  1.00  0.00     0.000 C 
HETATM   13  C   UNL     1     -40.068  53.223 -50.706  1.00  0.00     0.003 C 
HETATM   14  C   UNL     1     -41.595  53.171 -50.580  1.00  0.00     0.038 C 
HETATM   15  O   UNL     1     -42.081  54.899 -52.189  1.00  0.00    -0.340 OA
HETATM   16  C   UNL     1     -44.074  57.952 -51.979  1.00  0.00     0.024 C 
HETATM   17  O   UNL     1     -42.145  58.706 -55.036  1.00  0.00    -0.292 OA
HETATM   18  C   UNL     1     -42.243  60.074 -55.065  1.00  0.00     0.163 C 
HETATM   19  N   UNL     1     -41.887  60.635 -56.160  1.00  0.00    -0.277 N 
HETATM   20  H   UNL     1     -41.779  61.663 -56.169  1.00  0.00     0.189 HD
HETATM   21  C   UNL     1     -42.698  60.819 -53.895  1.00  0.00     0.065 C 
ENDROOT
BRANCH  19  22
HETATM   22  N   UNL     1     -41.808  59.998 -57.413  1.00  0.00    -0.266 N 
HETATM   23  C   UNL     1     -41.266  60.804 -58.404  1.00  0.00     0.263 C 
HETATM   24  O   UNL     1     -40.478  61.702 -58.087  1.00  0.00    -0.269 OA
HETATM   25  H   UNL     1     -42.474  59.252 -57.593  1.00  0.00     0.190 HD
BRANCH  23  26
HETATM   26  C   UNL     1     -41.911  60.669 -59.805  1.00  0.00     0.214 C 
BRANCH  26  27
HETATM   27  N   UNL     1     -43.291  60.266 -59.596  1.00  0.00    -0.319 N 
HETATM   28  C   UNL     1     -43.776  59.081 -60.053  1.00  0.00     0.362 C 
HETATM   29  O   UNL     1     -43.092  58.272 -60.667  1.00  0.00    -0.238 OA
HETATM   30  H   UNL     1     -43.921  60.841 -59.049  1.00  0.00     0.166 HD
BRANCH  28  31
HETATM   31  O   UNL     1     -45.049  58.936 -59.642  1.00  0.00    -0.294 OA
BRANCH  31  32
HETATM   32  C   UNL     1     -45.460  57.827 -58.800  1.00  0.00     0.061 C 
HETATM   33  C   UNL     1     -44.415  57.526 -57.718  1.00  0.00     0.046 C 
HETATM   34  C   UNL     1     -46.748  58.308 -58.112  1.00  0.00     0.046 C 
HETATM   35  C   UNL     1     -45.777  56.593 -59.648  1.00  0.00     0.046 C 
ENDBRANCH  31  32
ENDBRANCH  28  31
ENDBRANCH  26  27
BRANCH  26  36
HETATM   36  C   UNL     1     -41.862  61.940 -60.621  1.00  0.00    -0.026 A 
HETATM   37  C   UNL     1     -42.753  62.987 -60.334  1.00  0.00     0.010 A 
HETATM   38  C   UNL     1     -42.680  64.196 -61.028  1.00  0.00     0.001 A 
HETATM   39  C   UNL     1     -41.713  64.380 -62.013  1.00  0.00     0.000 A 
HETATM   40  C   UNL     1     -40.813  63.357 -62.300  1.00  0.00     0.001 A 
HETATM   41  C   UNL     1     -40.881  62.148 -61.606  1.00  0.00     0.010 A 
ENDBRANCH  26  36
ENDBRANCH  23  26
ENDBRANCH  19  22
BRANCH   1  42
HETATM   42  C   UNL     1     -43.713  60.926 -51.632  1.00  0.00     0.035 C 
HETATM   43  C   UNL     1     -42.571  61.065 -50.641  1.00  0.00     0.010 C 
ENDBRANCH   1  42
TORSDOF 7
ENDMDL
