MODEL 1
REMARK VINA RESULT:      -8.2      0.000      0.000
REMARK  3 active torsions:
REMARK  status: ('A' for Active; 'I' for Inactive)
REMARK    1  A    between atoms: C_6  and  N_7 
REMARK       I    between atoms: N_7  and  C_8 
REMARK    2  A    between atoms: C_8  and  C_9 
REMARK    3  A    between atoms: C_9  and  C_10 
ROOT
HETATM    1  C   UNL     1     -42.866  56.239 -55.767  1.00  0.00     0.286 C 
HETATM    2  N   UNL     1     -42.262  56.152 -57.167  1.00  0.00    -0.056 N 
HETATM    3  H   UNL     1     -41.666  57.000 -57.293  1.00  0.00     0.278 HD
HETATM    4  H   UNL     1     -41.609  55.361 -57.223  1.00  0.00     0.278 HD
HETATM    5  C   UNL     1     -43.298  56.077 -58.259  1.00  0.00     0.209 C 
HETATM    6  C   UNL     1     -44.249  57.297 -58.147  1.00  0.00     0.115 C 
HETATM    7  N   UNL     1     -44.784  57.449 -56.795  1.00  0.00    -0.353 N 
HETATM    8  C   UNL     1     -44.058  57.213 -55.656  1.00  0.00     0.249 C 
HETATM    9  O   UNL     1     -44.410  57.692 -54.584  1.00  0.00    -0.271 OA
HETATM   10  C   UNL     1     -42.598  56.004 -59.616  1.00  0.00     0.035 C 
HETATM   11  C   UNL     1     -41.948  57.322 -60.034  1.00  0.00     0.002 C 
HETATM   12  C   UNL     1     -42.937  58.480 -59.968  1.00  0.00     0.002 C 
HETATM   13  C   UNL     1     -43.576  58.605 -58.590  1.00  0.00     0.027 C 
HETATM   14  H   UNL     1     -45.560  58.096 -56.658  1.00  0.00     0.163 HD
ENDROOT
BRANCH   1  15
HETATM   15  C   UNL     1     -41.799  56.604 -54.728  1.00  0.00     0.146 C 
BRANCH  15  16
HETATM   16  C   UNL     1     -40.922  55.394 -54.496  1.00  0.00     0.224 C 
HETATM   17  N   UNL     1     -41.385  54.511 -53.554  1.00  0.00    -0.327 N 
HETATM   18  H   UNL     1     -42.193  54.782 -53.000  1.00  0.00     0.169 HD
HETATM   19  O   UNL     1     -39.863  55.333 -55.124  1.00  0.00    -0.273 OA
BRANCH  17  20
HETATM   20  C   UNL     1     -40.772  53.299 -53.161  1.00  0.00     0.036 A 
HETATM   21  C   UNL     1     -40.514  52.239 -54.034  1.00  0.00     0.053 A 
HETATM   22  C   UNL     1     -39.903  51.074 -53.561  1.00  0.00     0.036 A 
HETATM   23  C   UNL     1     -39.548  50.951 -52.221  1.00  0.00     0.024 A 
HETATM   24 CL   UNL     1     -39.593  49.777 -54.649  1.00  0.00    -0.084 Cl
HETATM   25  C   UNL     1     -39.808  51.999 -51.343  1.00  0.00     0.004 A 
HETATM   26  C   UNL     1     -40.423  53.165 -51.810  1.00  0.00     0.029 A 
ENDBRANCH  17  20
ENDBRANCH  15  16
ENDBRANCH   1  15
TORSDOF 3
ENDMDL
MODEL 2
REMARK VINA RESULT:      -8.1      2.685      4.928
REMARK  3 active torsions:
REMARK  status: ('A' for Active; 'I' for Inactive)
REMARK    1  A    between atoms: C_6  and  N_7 
REMARK       I    between atoms: N_7  and  C_8 
REMARK    2  A    between atoms: C_8  and  C_9 
REMARK    3  A    between atoms: C_9  and  C_10 
ROOT
HETATM    1  C   UNL     1     -42.558  57.205 -53.975  1.00  0.00     0.286 C 
HETATM    2  N   UNL     1     -41.562  57.106 -52.823  1.00  0.00    -0.056 N 
HETATM    3  H   UNL     1     -41.289  56.103 -52.743  1.00  0.00     0.278 HD
HETATM    4  H   UNL     1     -40.692  57.598 -53.063  1.00  0.00     0.278 HD
HETATM    5  C   UNL     1     -42.117  57.600 -51.511  1.00  0.00     0.209 C 
HETATM    6  C   UNL     1     -43.416  56.821 -51.181  1.00  0.00     0.115 C 
HETATM    7  N   UNL     1     -44.360  56.835 -52.297  1.00  0.00    -0.353 N 
HETATM    8  C   UNL     1     -43.986  56.745 -53.613  1.00  0.00     0.249 C 
HETATM    9  O   UNL     1     -44.795  56.396 -54.466  1.00  0.00    -0.271 OA
HETATM   10  C   UNL     1     -41.053  57.452 -50.424  1.00  0.00     0.035 C 
HETATM   11  C   UNL     1     -40.805  56.001 -50.013  1.00  0.00     0.002 C 
HETATM   12  C   UNL     1     -42.102  55.296 -49.637  1.00  0.00     0.002 C 
HETATM   13  C   UNL     1     -43.137  55.373 -50.754  1.00  0.00     0.027 C 
HETATM   14  H   UNL     1     -45.314  56.521 -52.121  1.00  0.00     0.163 HD
ENDROOT
BRANCH   1  15
HETATM   15  C   UNL     1     -42.060  56.433 -55.202  1.00  0.00     0.146 C 
BRANCH  15  16
HETATM   16  C   UNL     1     -41.062  55.394 -54.743  1.00  0.00     0.224 C 
HETATM   17  N   UNL     1     -41.606  54.297 -54.124  1.00  0.00    -0.327 N 
HETATM   18  H   UNL     1     -42.598  54.313 -53.907  1.00  0.00     0.169 HD
HETATM   19  O   UNL     1     -39.867  55.642 -54.914  1.00  0.00    -0.273 OA
BRANCH  17  20
HETATM   20  C   UNL     1     -40.903  53.179 -53.618  1.00  0.00     0.036 A 
HETATM   21  C   UNL     1     -40.580  52.053 -54.380  1.00  0.00     0.053 A 
HETATM   22  C   UNL     1     -39.883  50.990 -53.801  1.00  0.00     0.036 A 
HETATM   23  C   UNL     1     -39.502  51.035 -52.462  1.00  0.00     0.024 A 
HETATM   24 CL   UNL     1     -39.494  49.610 -54.753  1.00  0.00    -0.084 Cl
HETATM   25  C   UNL     1     -39.826  52.149 -51.694  1.00  0.00     0.004 A 
HETATM   26  C   UNL     1     -40.528  53.213 -52.268  1.00  0.00     0.029 A 
ENDBRANCH  17  20
ENDBRANCH  15  16
ENDBRANCH   1  15
TORSDOF 3
ENDMDL
MODEL 3
REMARK VINA RESULT:      -7.7      3.209      4.176
REMARK  3 active torsions:
REMARK  status: ('A' for Active; 'I' for Inactive)
REMARK    1  A    between atoms: C_6  and  N_7 
REMARK       I    between atoms: N_7  and  C_8 
REMARK    2  A    between atoms: C_8  and  C_9 
REMARK    3  A    between atoms: C_9  and  C_10 
ROOT
HETATM    1  C   UNL     1     -42.215  57.045 -51.424  1.00  0.00     0.286 C 
HETATM    2  N   UNL     1     -43.011  56.074 -52.292  1.00  0.00    -0.056 N 
HETATM    3  H   UNL     1     -42.384  55.265 -52.497  1.00  0.00     0.278 HD
HETATM    4  H   UNL     1     -43.789  55.673 -51.754  1.00  0.00     0.278 HD
HETATM    5  C   UNL     1     -43.503  56.689 -53.578  1.00  0.00     0.209 C 
HETATM    6  C   UNL     1     -42.296  57.265 -54.363  1.00  0.00     0.115 C 
HETATM    7  N   UNL     1     -41.471  58.141 -53.532  1.00  0.00    -0.353 N 
HETATM    8  C   UNL     1     -41.202  57.905 -52.209  1.00  0.00     0.249 C 
HETATM    9  O   UNL     1     -40.240  58.438 -51.665  1.00  0.00    -0.271 OA
HETATM   10  C   UNL     1     -44.275  55.641 -54.378  1.00  0.00     0.035 C 
HETATM   11  C   UNL     1     -43.380  54.566 -54.990  1.00  0.00     0.002 C 
HETATM   12  C   UNL     1     -42.246  55.177 -55.804  1.00  0.00     0.002 C 
HETATM   13  C   UNL     1     -41.423  56.163 -54.982  1.00  0.00     0.027 C 
HETATM   14  H   UNL     1     -40.769  58.717 -53.996  1.00  0.00     0.163 HD
ENDROOT
BRANCH   1  15
HETATM   15  C   UNL     1     -41.498  56.306 -50.287  1.00  0.00     0.146 C 
BRANCH  15  16
HETATM   16  C   UNL     1     -41.444  54.835 -50.630  1.00  0.00     0.224 C 
HETATM   17  N   UNL     1     -40.506  54.489 -51.569  1.00  0.00    -0.327 N 
HETATM   18  H   UNL     1     -40.013  55.235 -52.051  1.00  0.00     0.169 HD
HETATM   19  O   UNL     1     -42.266  54.096 -50.085  1.00  0.00    -0.273 OA
BRANCH  17  20
HETATM   20  C   UNL     1     -40.237  53.187 -52.053  1.00  0.00     0.036 A 
HETATM   21  C   UNL     1     -39.882  52.111 -51.236  1.00  0.00     0.053 A 
HETATM   22  C   UNL     1     -39.633  50.856 -51.797  1.00  0.00     0.036 A 
HETATM   23  C   UNL     1     -39.731  50.660 -53.172  1.00  0.00     0.024 A 
HETATM   24 CL   UNL     1     -39.195  49.541 -50.777  1.00  0.00    -0.084 Cl
HETATM   25  C   UNL     1     -40.076  51.728 -53.994  1.00  0.00     0.004 A 
HETATM   26  C   UNL     1     -40.322  52.987 -53.438  1.00  0.00     0.029 A 
ENDBRANCH  17  20
ENDBRANCH  15  16
ENDBRANCH   1  15
TORSDOF 3
ENDMDL
MODEL 4
REMARK VINA RESULT:      -7.7      2.892      7.850
REMARK  3 active torsions:
REMARK  status: ('A' for Active; 'I' for Inactive)
REMARK    1  A    between atoms: C_6  and  N_7 
REMARK       I    between atoms: N_7  and  C_8 
REMARK    2  A    between atoms: C_8  and  C_9 
REMARK    3  A    between atoms: C_9  and  C_10 
ROOT
HETATM    1  C   UNL     1     -41.499  53.489 -53.740  1.00  0.00     0.286 C 
HETATM    2  N   UNL     1     -41.945  54.369 -52.575  1.00  0.00    -0.056 N 
HETATM    3  H   UNL     1     -41.233  55.125 -52.475  1.00  0.00     0.278 HD
HETATM    4  H   UNL     1     -42.817  54.858 -52.813  1.00  0.00     0.278 HD
HETATM    5  C   UNL     1     -42.087  53.613 -51.278  1.00  0.00     0.209 C 
HETATM    6  C   UNL     1     -40.746  52.906 -50.950  1.00  0.00     0.115 C 
HETATM    7  N   UNL     1     -40.256  52.115 -52.078  1.00  0.00    -0.353 N 
HETATM    8  C   UNL     1     -40.364  52.505 -53.387  1.00  0.00     0.249 C 
HETATM    9  O   UNL     1     -39.637  52.014 -54.244  1.00  0.00    -0.271 OA
HETATM   10  C   UNL     1     -42.524  54.577 -50.176  1.00  0.00     0.035 C 
HETATM   11  C   UNL     1     -41.421  55.539 -49.739  1.00  0.00     0.002 C 
HETATM   12  C   UNL     1     -40.144  54.794 -49.366  1.00  0.00     0.002 C 
HETATM   13  C   UNL     1     -39.660  53.893 -50.497  1.00  0.00     0.027 C 
HETATM   14  H   UNL     1     -39.491  51.462 -51.907  1.00  0.00     0.163 HD
ENDROOT
BRANCH   1  15
HETATM   15  C   UNL     1     -41.092  54.340 -54.949  1.00  0.00     0.146 C 
BRANCH  15  16
HETATM   16  C   UNL     1     -42.338  54.692 -55.729  1.00  0.00     0.224 C 
HETATM   17  N   UNL     1     -42.142  55.539 -56.790  1.00  0.00    -0.327 N 
HETATM   18  H   UNL     1     -41.226  55.963 -56.901  1.00  0.00     0.169 HD
HETATM   19  O   UNL     1     -43.409  54.237 -55.322  1.00  0.00    -0.273 OA
BRANCH  17  20
HETATM   20  C   UNL     1     -43.129  56.008 -57.689  1.00  0.00     0.036 A 
HETATM   21  C   UNL     1     -43.492  55.343 -58.862  1.00  0.00     0.053 A 
HETATM   22  C   UNL     1     -44.479  55.878 -59.694  1.00  0.00     0.036 A 
HETATM   23  C   UNL     1     -45.109  57.076 -59.372  1.00  0.00     0.024 A 
HETATM   24 CL   UNL     1     -44.914  55.046 -61.137  1.00  0.00    -0.084 Cl
HETATM   25  C   UNL     1     -44.748  57.749 -58.208  1.00  0.00     0.004 A 
HETATM   26  C   UNL     1     -43.758  57.221 -57.374  1.00  0.00     0.029 A 
ENDBRANCH  17  20
ENDBRANCH  15  16
ENDBRANCH   1  15
TORSDOF 3
ENDMDL
MODEL 5
REMARK VINA RESULT:      -7.5      2.689      4.361
REMARK  3 active torsions:
REMARK  status: ('A' for Active; 'I' for Inactive)
REMARK    1  A    between atoms: C_6  and  N_7 
REMARK       I    between atoms: N_7  and  C_8 
REMARK    2  A    between atoms: C_8  and  C_9 
REMARK    3  A    between atoms: C_9  and  C_10 
ROOT
HETATM    1  C   UNL     1     -43.007  56.824 -55.233  1.00  0.00     0.286 C 
HETATM    2  N   UNL     1     -42.133  57.905 -54.604  1.00  0.00    -0.056 N 
HETATM    3  H   UNL     1     -41.355  57.417 -54.109  1.00  0.00     0.278 HD
HETATM    4  H   UNL     1     -41.672  58.459 -55.337  1.00  0.00     0.278 HD
HETATM    5  C   UNL     1     -42.883  58.796 -53.646  1.00  0.00     0.209 C 
HETATM    6  C   UNL     1     -43.547  57.922 -52.550  1.00  0.00     0.115 C 
HETATM    7  N   UNL     1     -44.331  56.830 -53.124  1.00  0.00    -0.353 N 
HETATM    8  C   UNL     1     -43.954  56.122 -54.236  1.00  0.00     0.249 C 
HETATM    9  O   UNL     1     -44.429  55.014 -54.458  1.00  0.00    -0.271 OA
HETATM   10  C   UNL     1     -41.924  59.834 -53.064  1.00  0.00     0.035 C 
HETATM   11  C   UNL     1     -40.926  59.246 -52.068  1.00  0.00     0.002 C 
HETATM   12  C   UNL     1     -41.629  58.450 -50.975  1.00  0.00     0.002 C 
HETATM   13  C   UNL     1     -42.524  57.359 -51.552  1.00  0.00     0.027 C 
HETATM   14  H   UNL     1     -44.959  56.316 -52.506  1.00  0.00     0.163 HD
ENDROOT
BRANCH   1  15
HETATM   15  C   UNL     1     -42.153  55.779 -55.961  1.00  0.00     0.146 C 
BRANCH  15  16
HETATM   16  C   UNL     1     -41.220  55.139 -54.958  1.00  0.00     0.224 C 
HETATM   17  N   UNL     1     -41.616  53.911 -54.493  1.00  0.00    -0.327 N 
HETATM   18  H   UNL     1     -42.543  53.580 -54.745  1.00  0.00     0.169 HD
HETATM   19  O   UNL     1     -40.229  55.787 -54.614  1.00  0.00    -0.273 OA
BRANCH  17  20
HETATM   20  C   UNL     1     -40.923  53.095 -53.570  1.00  0.00     0.036 A 
HETATM   21  C   UNL     1     -40.955  53.284 -52.186  1.00  0.00     0.053 A 
HETATM   22  C   UNL     1     -40.239  52.429 -51.344  1.00  0.00     0.036 A 
HETATM   23  C   UNL     1     -39.485  51.383 -51.867  1.00  0.00     0.024 A 
HETATM   24 CL   UNL     1     -40.289  52.677 -49.641  1.00  0.00    -0.084 Cl
HETATM   25  C   UNL     1     -39.441  51.192 -53.245  1.00  0.00     0.004 A 
HETATM   26  C   UNL     1     -40.152  52.047 -54.092  1.00  0.00     0.029 A 
ENDBRANCH  17  20
ENDBRANCH  15  16
ENDBRANCH   1  15
TORSDOF 3
ENDMDL
MODEL 6
REMARK VINA RESULT:      -7.4      2.810      4.500
REMARK  3 active torsions:
REMARK  status: ('A' for Active; 'I' for Inactive)
REMARK    1  A    between atoms: C_6  and  N_7 
REMARK       I    between atoms: N_7  and  C_8 
REMARK    2  A    between atoms: C_8  and  C_9 
REMARK    3  A    between atoms: C_9  and  C_10 
ROOT
HETATM    1  C   UNL     1     -42.253  57.653 -54.590  1.00  0.00     0.286 C 
HETATM    2  N   UNL     1     -41.208  57.741 -53.481  1.00  0.00    -0.056 N 
HETATM    3  H   UNL     1     -41.631  57.312 -52.630  1.00  0.00     0.278 HD
HETATM    4  H   UNL     1     -40.402  57.144 -53.705  1.00  0.00     0.278 HD
HETATM    5  C   UNL     1     -40.767  59.154 -53.188  1.00  0.00     0.209 C 
HETATM    6  C   UNL     1     -42.010  60.014 -52.841  1.00  0.00     0.115 C 
HETATM    7  N   UNL     1     -43.060  59.889 -53.850  1.00  0.00    -0.353 N 
HETATM    8  C   UNL     1     -43.367  58.717 -54.491  1.00  0.00     0.249 C 
HETATM    9  O   UNL     1     -44.456  58.572 -55.034  1.00  0.00    -0.271 OA
HETATM   10  C   UNL     1     -39.734  59.138 -52.063  1.00  0.00     0.035 C 
HETATM   11  C   UNL     1     -40.333  58.817 -50.695  1.00  0.00     0.002 C 
HETATM   12  C   UNL     1     -41.509  59.729 -50.369  1.00  0.00     0.002 C 
HETATM   13  C   UNL     1     -42.581  59.683 -51.454  1.00  0.00     0.027 C 
HETATM   14  H   UNL     1     -43.834  60.553 -53.820  1.00  0.00     0.163 HD
ENDROOT
BRANCH   1  15
HETATM   15  C   UNL     1     -42.875  56.253 -54.651  1.00  0.00     0.146 C 
BRANCH  15  16
HETATM   16  C   UNL     1     -41.772  55.231 -54.493  1.00  0.00     0.224 C 
HETATM   17  N   UNL     1     -42.001  54.268 -53.543  1.00  0.00    -0.327 N 
HETATM   18  H   UNL     1     -42.811  54.375 -52.939  1.00  0.00     0.169 HD
HETATM   19  O   UNL     1     -40.760  55.379 -55.181  1.00  0.00    -0.273 OA
BRANCH  17  20
HETATM   20  C   UNL     1     -41.146  53.192 -53.209  1.00  0.00     0.036 A 
HETATM   21  C   UNL     1     -40.842  52.142 -54.079  1.00  0.00     0.053 A 
HETATM   22  C   UNL     1     -39.986  51.117 -53.668  1.00  0.00     0.036 A 
HETATM   23  C   UNL     1     -39.429  51.124 -52.392  1.00  0.00     0.024 A 
HETATM   24 CL   UNL     1     -39.622  49.829 -54.751  1.00  0.00    -0.084 Cl
HETATM   25  C   UNL     1     -39.732  52.163 -51.517  1.00  0.00     0.004 A 
HETATM   26  C   UNL     1     -40.592  53.189 -51.922  1.00  0.00     0.029 A 
ENDBRANCH  17  20
ENDBRANCH  15  16
ENDBRANCH   1  15
TORSDOF 3
ENDMDL
MODEL 7
REMARK VINA RESULT:      -7.3      3.186      7.973
REMARK  3 active torsions:
REMARK  status: ('A' for Active; 'I' for Inactive)
REMARK    1  A    between atoms: C_6  and  N_7 
REMARK       I    between atoms: N_7  and  C_8 
REMARK    2  A    between atoms: C_8  and  C_9 
REMARK    3  A    between atoms: C_9  and  C_10 
ROOT
HETATM    1  C   UNL     1     -41.334  53.235 -53.633  1.00  0.00     0.286 C 
HETATM    2  N   UNL     1     -41.869  54.190 -52.570  1.00  0.00    -0.056 N 
HETATM    3  H   UNL     1     -41.186  54.975 -52.496  1.00  0.00     0.278 HD
HETATM    4  H   UNL     1     -42.740  54.629 -52.894  1.00  0.00     0.278 HD
HETATM    5  C   UNL     1     -42.061  53.538 -51.224  1.00  0.00     0.209 C 
HETATM    6  C   UNL     1     -40.721  52.905 -50.769  1.00  0.00     0.115 C 
HETATM    7  N   UNL     1     -40.146  52.041 -51.800  1.00  0.00    -0.353 N 
HETATM    8  C   UNL     1     -40.192  52.321 -53.141  1.00  0.00     0.249 C 
HETATM    9  O   UNL     1     -39.405  51.787 -53.915  1.00  0.00    -0.271 OA
HETATM   10  C   UNL     1     -42.586  54.573 -50.231  1.00  0.00     0.035 C 
HETATM   11  C   UNL     1     -41.537  55.602 -49.817  1.00  0.00     0.002 C 
HETATM   12  C   UNL     1     -40.262  54.934 -49.316  1.00  0.00     0.002 C 
HETATM   13  C   UNL     1     -39.691  53.960 -50.341  1.00  0.00     0.027 C 
HETATM   14  H   UNL     1     -39.373  51.431 -51.536  1.00  0.00     0.163 HD
ENDROOT
BRANCH   1  15
HETATM   15  C   UNL     1     -40.885  53.998 -54.885  1.00  0.00     0.146 C 
BRANCH  15  16
HETATM   16  C   UNL     1     -42.114  54.513 -55.599  1.00  0.00     0.224 C 
HETATM   17  N   UNL     1     -41.917  55.632 -56.368  1.00  0.00    -0.327 N 
HETATM   18  H   UNL     1     -41.018  56.102 -56.307  1.00  0.00     0.169 HD
HETATM   19  O   UNL     1     -43.177  53.924 -55.392  1.00  0.00    -0.273 OA
BRANCH  17  20
HETATM   20  C   UNL     1     -42.887  56.302 -57.148  1.00  0.00     0.036 A 
HETATM   21  C   UNL     1     -43.591  57.429 -56.716  1.00  0.00     0.053 A 
HETATM   22  C   UNL     1     -44.535  58.030 -57.553  1.00  0.00     0.036 A 
HETATM   23  C   UNL     1     -44.789  57.517 -58.822  1.00  0.00     0.024 A 
HETATM   24 CL   UNL     1     -45.394  59.417 -57.005  1.00  0.00    -0.084 Cl
HETATM   25  C   UNL     1     -44.098  56.390 -59.257  1.00  0.00     0.004 A 
HETATM   26  C   UNL     1     -43.156  55.782 -58.422  1.00  0.00     0.029 A 
ENDBRANCH  17  20
ENDBRANCH  15  16
ENDBRANCH   1  15
TORSDOF 3
ENDMDL
MODEL 8
REMARK VINA RESULT:      -7.1      2.714      7.551
REMARK  3 active torsions:
REMARK  status: ('A' for Active; 'I' for Inactive)
REMARK    1  A    between atoms: C_6  and  N_7 
REMARK       I    between atoms: N_7  and  C_8 
REMARK    2  A    between atoms: C_8  and  C_9 
REMARK    3  A    between atoms: C_9  and  C_10 
ROOT
HETATM    1  C   UNL     1     -41.477  53.864 -53.162  1.00  0.00     0.286 C 
HETATM    2  N   UNL     1     -41.043  52.480 -53.637  1.00  0.00    -0.056 N 
HETATM    3  H   UNL     1     -41.679  51.790 -53.182  1.00  0.00     0.278 HD
HETATM    4  H   UNL     1     -41.221  52.379 -54.644  1.00  0.00     0.278 HD
HETATM    5  C   UNL     1     -39.607  52.160 -53.308  1.00  0.00     0.209 C 
HETATM    6  C   UNL     1     -39.388  52.309 -51.780  1.00  0.00     0.115 C 
HETATM    7  N   UNL     1     -39.864  53.599 -51.283  1.00  0.00    -0.353 N 
HETATM    8  C   UNL     1     -41.000  54.219 -51.737  1.00  0.00     0.249 C 
HETATM    9  O   UNL     1     -41.550  55.082 -51.062  1.00  0.00    -0.271 OA
HETATM   10  C   UNL     1     -39.273  50.757 -53.812  1.00  0.00     0.035 C 
HETATM   11  C   UNL     1     -39.928  49.647 -52.993  1.00  0.00     0.002 C 
HETATM   12  C   UNL     1     -39.632  49.799 -51.506  1.00  0.00     0.002 C 
HETATM   13  C   UNL     1     -40.041  51.171 -50.982  1.00  0.00     0.027 C 
HETATM   14  H   UNL     1     -39.597  53.876 -50.339  1.00  0.00     0.163 HD
ENDROOT
BRANCH   1  15
HETATM   15  C   UNL     1     -42.999  54.027 -53.255  1.00  0.00     0.146 C 
BRANCH  15  16
HETATM   16  C   UNL     1     -43.305  55.088 -54.287  1.00  0.00     0.224 C 
HETATM   17  N   UNL     1     -42.631  54.958 -55.475  1.00  0.00    -0.327 N 
HETATM   18  H   UNL     1     -41.899  54.256 -55.536  1.00  0.00     0.169 HD
HETATM   19  O   UNL     1     -44.079  55.990 -53.960  1.00  0.00    -0.273 OA
BRANCH  17  20
HETATM   20  C   UNL     1     -42.746  55.799 -56.607  1.00  0.00     0.036 A 
HETATM   21  C   UNL     1     -43.281  55.388 -57.830  1.00  0.00     0.053 A 
HETATM   22  C   UNL     1     -43.357  56.284 -58.899  1.00  0.00     0.036 A 
HETATM   23  C   UNL     1     -42.901  57.593 -58.764  1.00  0.00     0.024 A 
HETATM   24 CL   UNL     1     -44.017  55.762 -60.400  1.00  0.00    -0.084 Cl
HETATM   25  C   UNL     1     -42.360  58.009 -57.551  1.00  0.00     0.004 A 
HETATM   26  C   UNL     1     -42.278  57.114 -56.479  1.00  0.00     0.029 A 
ENDBRANCH  17  20
ENDBRANCH  15  16
ENDBRANCH   1  15
TORSDOF 3
ENDMDL
MODEL 9
REMARK VINA RESULT:      -7.1      3.384      4.929
REMARK  3 active torsions:
REMARK  status: ('A' for Active; 'I' for Inactive)
REMARK    1  A    between atoms: C_6  and  N_7 
REMARK       I    between atoms: N_7  and  C_8 
REMARK    2  A    between atoms: C_8  and  C_9 
REMARK    3  A    between atoms: C_9  and  C_10 
ROOT
HETATM    1  C   UNL     1     -42.535  57.616 -52.775  1.00  0.00     0.286 C 
HETATM    2  N   UNL     1     -43.947  57.980 -52.322  1.00  0.00    -0.056 N 
HETATM    3  H   UNL     1     -44.464  58.303 -53.169  1.00  0.00     0.278 HD
HETATM    4  H   UNL     1     -44.448  57.139 -52.013  1.00  0.00     0.278 HD
HETATM    5  C   UNL     1     -43.975  59.048 -51.258  1.00  0.00     0.209 C 
HETATM    6  C   UNL     1     -43.223  60.302 -51.773  1.00  0.00     0.115 C 
HETATM    7  N   UNL     1     -41.893  59.971 -52.284  1.00  0.00    -0.353 N 
HETATM    8  C   UNL     1     -41.611  58.833 -52.994  1.00  0.00     0.249 C 
HETATM    9  O   UNL     1     -40.610  58.772 -53.699  1.00  0.00    -0.271 OA
HETATM   10  C   UNL     1     -45.425  59.349 -50.881  1.00  0.00     0.035 C 
HETATM   11  C   UNL     1     -46.186  60.112 -51.963  1.00  0.00     0.002 C 
HETATM   12  C   UNL     1     -45.440  61.370 -52.392  1.00  0.00     0.002 C 
HETATM   13  C   UNL     1     -44.018  61.060 -52.847  1.00  0.00     0.027 C 
HETATM   14  H   UNL     1     -41.247  60.738 -52.467  1.00  0.00     0.163 HD
ENDROOT
BRANCH   1  15
HETATM   15  C   UNL     1     -42.569  56.755 -54.043  1.00  0.00     0.146 C 
BRANCH  15  16
HETATM   16  C   UNL     1     -42.342  55.313 -53.649  1.00  0.00     0.224 C 
HETATM   17  N   UNL     1     -41.030  54.954 -53.477  1.00  0.00    -0.327 N 
HETATM   18  H   UNL     1     -40.312  55.623 -53.742  1.00  0.00     0.169 HD
HETATM   19  O   UNL     1     -43.334  54.586 -53.568  1.00  0.00    -0.273 OA
BRANCH  17  20
HETATM   20  C   UNL     1     -40.546  53.682 -53.093  1.00  0.00     0.036 A 
HETATM   21  C   UNL     1     -40.361  52.620 -53.982  1.00  0.00     0.053 A 
HETATM   22  C   UNL     1     -39.878  51.393 -53.518  1.00  0.00     0.036 A 
HETATM   23  C   UNL     1     -39.577  51.211 -52.171  1.00  0.00     0.024 A 
HETATM   24 CL   UNL     1     -39.657  50.094 -54.625  1.00  0.00    -0.084 Cl
HETATM   25  C   UNL     1     -39.765  52.261 -51.278  1.00  0.00     0.004 A 
HETATM   26  C   UNL     1     -40.252  53.489 -51.736  1.00  0.00     0.029 A 
ENDBRANCH  17  20
ENDBRANCH  15  16
ENDBRANCH   1  15
TORSDOF 3
ENDMDL
MODEL 10
REMARK VINA RESULT:      -7.1      3.713      6.715
REMARK  3 active torsions:
REMARK  status: ('A' for Active; 'I' for Inactive)
REMARK    1  A    between atoms: C_6  and  N_7 
REMARK       I    between atoms: N_7  and  C_8 
REMARK    2  A    between atoms: C_8  and  C_9 
REMARK    3  A    between atoms: C_9  and  C_10 
ROOT
HETATM    1  C   UNL     1     -42.249  57.260 -51.643  1.00  0.00     0.286 C 
HETATM    2  N   UNL     1     -41.345  56.456 -52.573  1.00  0.00    -0.056 N 
HETATM    3  H   UNL     1     -41.551  56.774 -53.545  1.00  0.00     0.278 HD
HETATM    4  H   UNL     1     -40.361  56.706 -52.416  1.00  0.00     0.278 HD
HETATM    5  C   UNL     1     -41.549  54.966 -52.460  1.00  0.00     0.209 C 
HETATM    6  C   UNL     1     -43.041  54.633 -52.720  1.00  0.00     0.115 C 
HETATM    7  N   UNL     1     -43.934  55.445 -51.894  1.00  0.00    -0.353 N 
HETATM    8  C   UNL     1     -43.710  56.765 -51.600  1.00  0.00     0.249 C 
HETATM    9  O   UNL     1     -44.632  57.485 -51.232  1.00  0.00    -0.271 OA
HETATM   10  C   UNL     1     -40.612  54.252 -53.433  1.00  0.00     0.035 C 
HETATM   11  C   UNL     1     -41.024  54.409 -54.895  1.00  0.00     0.002 C 
HETATM   12  C   UNL     1     -42.478  54.009 -55.114  1.00  0.00     0.002 C 
HETATM   13  C   UNL     1     -43.423  54.781 -54.200  1.00  0.00     0.027 C 
HETATM   14  H   UNL     1     -44.916  55.176 -51.846  1.00  0.00     0.163 HD
ENDROOT
BRANCH   1  15
HETATM   15  C   UNL     1     -42.217  58.752 -51.997  1.00  0.00     0.146 C 
BRANCH  15  16
HETATM   16  C   UNL     1     -41.682  58.898 -53.404  1.00  0.00     0.224 C 
HETATM   17  N   UNL     1     -42.599  58.682 -54.402  1.00  0.00    -0.327 N 
HETATM   18  H   UNL     1     -43.513  58.324 -54.142  1.00  0.00     0.169 HD
HETATM   19  O   UNL     1     -40.481  59.144 -53.531  1.00  0.00    -0.273 OA
BRANCH  17  20
HETATM   20  C   UNL     1     -42.368  58.772 -55.794  1.00  0.00     0.036 A 
HETATM   21  C   UNL     1     -41.989  59.949 -56.445  1.00  0.00     0.053 A 
HETATM   22  C   UNL     1     -41.781  59.950 -57.827  1.00  0.00     0.036 A 
HETATM   23  C   UNL     1     -41.949  58.786 -58.572  1.00  0.00     0.024 A 
HETATM   24 CL   UNL     1     -41.316  61.408 -58.615  1.00  0.00    -0.084 Cl
HETATM   25  C   UNL     1     -42.333  57.611 -57.933  1.00  0.00     0.004 A 
HETATM   26  C   UNL     1     -42.547  57.606 -56.551  1.00  0.00     0.029 A 
ENDBRANCH  17  20
ENDBRANCH  15  16
ENDBRANCH   1  15
TORSDOF 3
ENDMDL
