MODEL 1
REMARK VINA RESULT:      -9.2      0.000      0.000
REMARK  5 active torsions:
REMARK  status: ('A' for Active; 'I' for Inactive)
REMARK       I    between atoms: C_2  and  N_3 
REMARK    1  A    between atoms: N_3  and  C_4 
REMARK    2  A    between atoms: C_5  and  C_6 
REMARK    3  A    between atoms: C_15  and  C_16 
REMARK       I    between atoms: C_16  and  N_17 
REMARK    4  A    between atoms: N_17  and  C_18 
REMARK    5  A    between atoms: C_18  and  C_19 
ROOT
HETATM    1  C   UNL     1     -42.950  57.802 -58.535  1.00  0.00     0.138 A 
HETATM    2  N   UNL     1     -42.823  58.262 -57.318  1.00  0.00    -0.240 NA
HETATM    3  C   UNL     1     -42.615  57.351 -56.269  1.00  0.00     0.084 A 
HETATM    4  C   UNL     1     -42.533  55.970 -56.480  1.00  0.00     0.065 A 
HETATM    5  N   UNL     1     -42.652  55.474 -57.778  1.00  0.00    -0.320 N 
HETATM    6  C   UNL     1     -42.838  56.301 -58.857  1.00  0.00     0.275 A 
HETATM    7  O   UNL     1     -42.897  55.877 -60.001  1.00  0.00    -0.266 OA
HETATM    8  C   UNL     1     -42.479  57.839 -54.969  1.00  0.00     0.035 A 
HETATM    9  C   UNL     1     -42.265  56.965 -53.892  1.00  0.00     0.019 A 
HETATM   10  C   UNL     1     -42.193  55.584 -54.114  1.00  0.00     0.034 A 
HETATM   11  C   UNL     1     -42.321  55.089 -55.420  1.00  0.00     0.049 A 
HETATM   12  H   UNL     1     -42.566  54.485 -57.969  1.00  0.00     0.169 HD
ENDROOT
BRANCH  10  13
HETATM   13  C   UNL     1     -41.940  54.595 -53.027  1.00  0.00     0.252 C 
HETATM   14  N   UNL     1     -40.631  54.292 -52.729  1.00  0.00    -0.353 N 
HETATM   15  H   UNL     1     -39.868  54.685 -53.257  1.00  0.00     0.163 HD
HETATM   16  O   UNL     1     -42.890  54.099 -52.428  1.00  0.00    -0.268 OA
BRANCH  14  17
HETATM   17  C   UNL     1     -40.332  53.224 -51.799  1.00  0.00     0.163 C 
BRANCH  17  18
HETATM   18  C   UNL     1     -40.041  51.923 -52.500  1.00  0.00    -0.019 A 
HETATM   19  C   UNL     1     -39.913  50.705 -51.814  1.00  0.00     0.042 A 
HETATM   20 CL   UNL     1     -40.121  50.600 -50.102  1.00  0.00    -0.084 Cl
HETATM   21  C   UNL     1     -39.621  49.525 -52.506  1.00  0.00     0.024 A 
HETATM   22  C   UNL     1     -39.460  49.544 -53.891  1.00  0.00     0.002 A 
HETATM   23  C   UNL     1     -39.598  50.742 -54.586  1.00  0.00     0.001 A 
HETATM   24  C   UNL     1     -39.889  51.921 -53.898  1.00  0.00     0.010 A 
ENDBRANCH  17  18
ENDBRANCH  14  17
ENDBRANCH  10  13
BRANCH   1  25
HETATM   25  C   UNL     1     -43.174  58.763 -59.655  1.00  0.00     0.025 A 
HETATM   26  C   UNL     1     -44.466  59.273 -59.925  1.00  0.00     0.047 A 
HETATM   27  C   UNL     1     -44.614  60.170 -60.988  1.00  0.00     0.030 A 
HETATM   28  C   UNL     1     -43.513  60.571 -61.753  1.00  0.00     0.002 A 
HETATM   29  C   UNL     1     -42.246  60.068 -61.477  1.00  0.00     0.001 A 
HETATM   30  C   UNL     1     -42.077  59.158 -60.436  1.00  0.00     0.016 A 
BRANCH  26  31
HETATM   31  N   UNL     1     -45.556  58.818 -59.151  1.00  0.00    -0.327 N 
HETATM   32  C   UNL     1     -46.349  57.711 -59.201  1.00  0.00     0.218 C 
HETATM   33  C   UNL     1     -46.337  56.802 -60.396  1.00  0.00     0.117 C 
HETATM   34  O   UNL     1     -47.123  57.493 -58.266  1.00  0.00    -0.274 OA
HETATM   35  H   UNL     1     -45.805  59.423 -58.366  1.00  0.00     0.169 HD
ENDBRANCH  26  31
ENDBRANCH   1  25
TORSDOF 5
ENDMDL
MODEL 2
REMARK VINA RESULT:      -8.9      1.586      2.451
REMARK  5 active torsions:
REMARK  status: ('A' for Active; 'I' for Inactive)
REMARK       I    between atoms: C_2  and  N_3 
REMARK    1  A    between atoms: N_3  and  C_4 
REMARK    2  A    between atoms: C_5  and  C_6 
REMARK    3  A    between atoms: C_15  and  C_16 
REMARK       I    between atoms: C_16  and  N_17 
REMARK    4  A    between atoms: N_17  and  C_18 
REMARK    5  A    between atoms: C_18  and  C_19 
ROOT
HETATM    1  C   UNL     1     -44.277  57.327 -57.749  1.00  0.00     0.138 A 
HETATM    2  N   UNL     1     -44.374  57.692 -56.497  1.00  0.00    -0.240 NA
HETATM    3  C   UNL     1     -43.825  56.860 -55.506  1.00  0.00     0.084 A 
HETATM    4  C   UNL     1     -43.173  55.660 -55.811  1.00  0.00     0.065 A 
HETATM    5  N   UNL     1     -43.053  55.273 -57.146  1.00  0.00    -0.320 N 
HETATM    6  C   UNL     1     -43.547  56.040 -58.170  1.00  0.00     0.275 A 
HETATM    7  O   UNL     1     -43.404  55.730 -59.343  1.00  0.00    -0.266 OA
HETATM    8  C   UNL     1     -43.926  57.247 -54.169  1.00  0.00     0.035 A 
HETATM    9  C   UNL     1     -43.387  56.450 -53.148  1.00  0.00     0.019 A 
HETATM   10  C   UNL     1     -42.745  55.246 -53.464  1.00  0.00     0.034 A 
HETATM   11  C   UNL     1     -42.633  54.857 -54.807  1.00  0.00     0.049 A 
HETATM   12  H   UNL     1     -42.561  54.428 -57.402  1.00  0.00     0.169 HD
ENDROOT
BRANCH  10  13
HETATM   13  C   UNL     1     -42.123  54.359 -52.439  1.00  0.00     0.252 C 
HETATM   14  N   UNL     1     -40.768  54.129 -52.527  1.00  0.00    -0.353 N 
HETATM   15  H   UNL     1     -40.221  54.506 -53.286  1.00  0.00     0.163 HD
HETATM   16  O   UNL     1     -42.821  53.880 -51.550  1.00  0.00    -0.268 OA
BRANCH  14  17
HETATM   17  C   UNL     1     -40.145  53.154 -51.661  1.00  0.00     0.163 C 
BRANCH  17  18
HETATM   18  C   UNL     1     -39.928  51.833 -52.352  1.00  0.00    -0.019 A 
HETATM   19  C   UNL     1     -39.881  50.613 -51.659  1.00  0.00     0.042 A 
HETATM   20 CL   UNL     1     -40.111  50.531 -49.948  1.00  0.00    -0.084 Cl
HETATM   21  C   UNL     1     -39.655  49.414 -52.342  1.00  0.00     0.024 A 
HETATM   22  C   UNL     1     -39.481  49.416 -53.725  1.00  0.00     0.002 A 
HETATM   23  C   UNL     1     -39.538  50.616 -54.428  1.00  0.00     0.001 A 
HETATM   24  C   UNL     1     -39.763  51.814 -53.749  1.00  0.00     0.010 A 
ENDBRANCH  17  18
ENDBRANCH  14  17
ENDBRANCH  10  13
BRANCH   1  25
HETATM   25  C   UNL     1     -44.861  58.203 -58.807  1.00  0.00     0.025 A 
HETATM   26  C   UNL     1     -44.129  59.296 -59.329  1.00  0.00     0.047 A 
HETATM   27  C   UNL     1     -44.728  60.082 -60.318  1.00  0.00     0.030 A 
HETATM   28  C   UNL     1     -46.009  59.786 -60.797  1.00  0.00     0.002 A 
HETATM   29  C   UNL     1     -46.719  58.707 -60.281  1.00  0.00     0.001 A 
HETATM   30  C   UNL     1     -46.151  57.921 -59.282  1.00  0.00     0.016 A 
BRANCH  26  31
HETATM   31  N   UNL     1     -42.853  59.582 -58.795  1.00  0.00    -0.327 N 
HETATM   32  C   UNL     1     -42.409  60.406 -57.805  1.00  0.00     0.218 C 
HETATM   33  C   UNL     1     -43.302  61.457 -57.212  1.00  0.00     0.117 C 
HETATM   34  O   UNL     1     -41.236  60.311 -57.434  1.00  0.00    -0.274 OA
HETATM   35  H   UNL     1     -42.086  59.049 -59.212  1.00  0.00     0.169 HD
ENDBRANCH  26  31
ENDBRANCH   1  25
TORSDOF 5
ENDMDL
MODEL 3
REMARK VINA RESULT:      -8.9      6.095      9.906
REMARK  5 active torsions:
REMARK  status: ('A' for Active; 'I' for Inactive)
REMARK       I    between atoms: C_2  and  N_3 
REMARK    1  A    between atoms: N_3  and  C_4 
REMARK    2  A    between atoms: C_5  and  C_6 
REMARK    3  A    between atoms: C_15  and  C_16 
REMARK       I    between atoms: C_16  and  N_17 
REMARK    4  A    between atoms: N_17  and  C_18 
REMARK    5  A    between atoms: C_18  and  C_19 
ROOT
HETATM    1  C   UNL     1     -41.688  55.046 -52.237  1.00  0.00     0.138 A 
HETATM    2  N   UNL     1     -41.085  56.206 -52.232  1.00  0.00    -0.240 NA
HETATM    3  C   UNL     1     -41.806  57.341 -51.821  1.00  0.00     0.084 A 
HETATM    4  C   UNL     1     -43.142  57.272 -51.410  1.00  0.00     0.065 A 
HETATM    5  N   UNL     1     -43.786  56.034 -51.399  1.00  0.00    -0.320 N 
HETATM    6  C   UNL     1     -43.144  54.880 -51.770  1.00  0.00     0.275 A 
HETATM    7  O   UNL     1     -43.688  53.787 -51.718  1.00  0.00    -0.266 OA
HETATM    8  C   UNL     1     -41.166  58.580 -51.813  1.00  0.00     0.035 A 
HETATM    9  C   UNL     1     -41.846  59.737 -51.405  1.00  0.00     0.019 A 
HETATM   10  C   UNL     1     -43.186  59.659 -51.005  1.00  0.00     0.034 A 
HETATM   11  C   UNL     1     -43.831  58.413 -51.002  1.00  0.00     0.049 A 
HETATM   12  H   UNL     1     -44.740  55.945 -51.079  1.00  0.00     0.169 HD
ENDROOT
BRANCH  10  13
HETATM   13  C   UNL     1     -43.967  60.837 -50.531  1.00  0.00     0.252 C 
HETATM   14  N   UNL     1     -44.370  60.852 -49.215  1.00  0.00    -0.353 N 
HETATM   15  H   UNL     1     -44.188  60.072 -48.603  1.00  0.00     0.163 HD
HETATM   16  O   UNL     1     -44.211  61.754 -51.311  1.00  0.00    -0.268 OA
BRANCH  14  17
HETATM   17  C   UNL     1     -45.264  61.888 -48.746  1.00  0.00     0.163 C 
BRANCH  17  18
HETATM   18  C   UNL     1     -45.110  62.149 -47.271  1.00  0.00    -0.019 A 
HETATM   19  C   UNL     1     -45.298  63.418 -46.702  1.00  0.00     0.042 A 
HETATM   20 CL   UNL     1     -45.764  64.782 -47.656  1.00  0.00    -0.084 Cl
HETATM   21  C   UNL     1     -45.123  63.617 -45.329  1.00  0.00     0.024 A 
HETATM   22  C   UNL     1     -44.765  62.550 -44.505  1.00  0.00     0.002 A 
HETATM   23  C   UNL     1     -44.589  61.282 -45.052  1.00  0.00     0.001 A 
HETATM   24  C   UNL     1     -44.764  61.082 -46.422  1.00  0.00     0.010 A 
ENDBRANCH  17  18
ENDBRANCH  14  17
ENDBRANCH  10  13
BRANCH   1  25
HETATM   25  C   UNL     1     -40.930  53.837 -52.676  1.00  0.00     0.025 A 
HETATM   26  C   UNL     1     -40.587  53.650 -54.036  1.00  0.00     0.047 A 
HETATM   27  C   UNL     1     -39.877  52.497 -54.388  1.00  0.00     0.030 A 
HETATM   28  C   UNL     1     -39.496  51.562 -53.419  1.00  0.00     0.002 A 
HETATM   29  C   UNL     1     -39.833  51.756 -52.084  1.00  0.00     0.001 A 
HETATM   30  C   UNL     1     -40.557  52.887 -51.713  1.00  0.00     0.016 A 
BRANCH  26  31
HETATM   31  N   UNL     1     -41.019  54.601 -54.987  1.00  0.00    -0.327 N 
HETATM   32  C   UNL     1     -42.217  54.860 -55.582  1.00  0.00     0.218 C 
HETATM   33  C   UNL     1     -43.358  53.888 -55.484  1.00  0.00     0.117 C 
HETATM   34  O   UNL     1     -42.337  55.888 -56.253  1.00  0.00    -0.274 OA
HETATM   35  H   UNL     1     -40.299  55.261 -55.290  1.00  0.00     0.169 HD
ENDBRANCH  26  31
ENDBRANCH   1  25
TORSDOF 5
ENDMDL
MODEL 4
REMARK VINA RESULT:      -8.8      5.482      7.892
REMARK  5 active torsions:
REMARK  status: ('A' for Active; 'I' for Inactive)
REMARK       I    between atoms: C_2  and  N_3 
REMARK    1  A    between atoms: N_3  and  C_4 
REMARK    2  A    between atoms: C_5  and  C_6 
REMARK    3  A    between atoms: C_15  and  C_16 
REMARK       I    between atoms: C_16  and  N_17 
REMARK    4  A    between atoms: N_17  and  C_18 
REMARK    5  A    between atoms: C_18  and  C_19 
ROOT
HETATM    1  C   UNL     1     -43.178  61.135 -50.787  1.00  0.00     0.138 A 
HETATM    2  N   UNL     1     -42.317  60.270 -50.316  1.00  0.00    -0.240 NA
HETATM    3  C   UNL     1     -42.048  59.110 -51.063  1.00  0.00     0.084 A 
HETATM    4  C   UNL     1     -42.661  58.850 -52.293  1.00  0.00     0.065 A 
HETATM    5  N   UNL     1     -43.569  59.776 -52.808  1.00  0.00    -0.320 N 
HETATM    6  C   UNL     1     -43.870  60.940 -52.147  1.00  0.00     0.275 A 
HETATM    7  O   UNL     1     -44.628  61.777 -52.615  1.00  0.00    -0.266 OA
HETATM    8  C   UNL     1     -41.129  58.186 -50.563  1.00  0.00     0.035 A 
HETATM    9  C   UNL     1     -40.826  57.017 -51.277  1.00  0.00     0.019 A 
HETATM   10  C   UNL     1     -41.453  56.763 -52.504  1.00  0.00     0.034 A 
HETATM   11  C   UNL     1     -42.370  57.693 -53.014  1.00  0.00     0.049 A 
HETATM   12  H   UNL     1     -44.005  59.634 -53.708  1.00  0.00     0.169 HD
ENDROOT
BRANCH  10  13
HETATM   13  C   UNL     1     -41.163  55.559 -53.334  1.00  0.00     0.252 C 
HETATM   14  N   UNL     1     -40.911  54.374 -52.680  1.00  0.00    -0.353 N 
HETATM   15  H   UNL     1     -40.875  54.328 -51.674  1.00  0.00     0.163 HD
HETATM   16  O   UNL     1     -41.172  55.653 -54.559  1.00  0.00    -0.268 OA
BRANCH  14  17
HETATM   17  C   UNL     1     -40.467  53.218 -53.428  1.00  0.00     0.163 C 
BRANCH  17  18
HETATM   18  C   UNL     1     -40.180  52.038 -52.537  1.00  0.00    -0.019 A 
HETATM   19  C   UNL     1     -39.844  50.772 -53.040  1.00  0.00     0.042 A 
HETATM   20 CL   UNL     1     -39.696  50.478 -54.736  1.00  0.00    -0.084 Cl
HETATM   21  C   UNL     1     -39.607  49.700 -52.173  1.00  0.00     0.024 A 
HETATM   22  C   UNL     1     -39.695  49.881 -50.793  1.00  0.00     0.002 A 
HETATM   23  C   UNL     1     -40.012  51.134 -50.278  1.00  0.00     0.001 A 
HETATM   24  C   UNL     1     -40.249  52.205 -51.142  1.00  0.00     0.010 A 
ENDBRANCH  17  18
ENDBRANCH  14  17
ENDBRANCH  10  13
BRANCH   1  25
HETATM   25  C   UNL     1     -43.472  62.368 -49.999  1.00  0.00     0.025 A 
HETATM   26  C   UNL     1     -44.414  62.346 -48.943  1.00  0.00     0.047 A 
HETATM   27  C   UNL     1     -44.649  63.533 -48.241  1.00  0.00     0.030 A 
HETATM   28  C   UNL     1     -43.957  64.707 -48.558  1.00  0.00     0.002 A 
HETATM   29  C   UNL     1     -43.030  64.718 -49.594  1.00  0.00     0.001 A 
HETATM   30  C   UNL     1     -42.793  63.554 -50.321  1.00  0.00     0.016 A 
BRANCH  26  31
HETATM   31  N   UNL     1     -45.115  61.149 -48.677  1.00  0.00    -0.327 N 
HETATM   32  C   UNL     1     -45.541  60.542 -47.534  1.00  0.00     0.218 C 
HETATM   33  C   UNL     1     -45.054  60.994 -46.188  1.00  0.00     0.117 C 
HETATM   34  O   UNL     1     -46.300  59.573 -47.624  1.00  0.00    -0.274 OA
HETATM   35  H   UNL     1     -45.391  60.621 -49.508  1.00  0.00     0.169 HD
ENDBRANCH  26  31
ENDBRANCH   1  25
TORSDOF 5
ENDMDL
MODEL 5
REMARK VINA RESULT:      -8.8      4.532      6.992
REMARK  5 active torsions:
REMARK  status: ('A' for Active; 'I' for Inactive)
REMARK       I    between atoms: C_2  and  N_3 
REMARK    1  A    between atoms: N_3  and  C_4 
REMARK    2  A    between atoms: C_5  and  C_6 
REMARK    3  A    between atoms: C_15  and  C_16 
REMARK       I    between atoms: C_16  and  N_17 
REMARK    4  A    between atoms: N_17  and  C_18 
REMARK    5  A    between atoms: C_18  and  C_19 
ROOT
HETATM    1  C   UNL     1     -42.608  60.118 -51.125  1.00  0.00     0.138 A 
HETATM    2  N   UNL     1     -43.185  59.683 -52.215  1.00  0.00    -0.240 NA
HETATM    3  C   UNL     1     -42.716  58.494 -52.800  1.00  0.00     0.084 A 
HETATM    4  C   UNL     1     -41.658  57.757 -52.255  1.00  0.00     0.065 A 
HETATM    5  N   UNL     1     -41.048  58.209 -51.084  1.00  0.00    -0.320 N 
HETATM    6  C   UNL     1     -41.462  59.350 -50.445  1.00  0.00     0.275 A 
HETATM    7  O   UNL     1     -40.963  59.726 -49.395  1.00  0.00    -0.266 OA
HETATM    8  C   UNL     1     -43.330  58.026 -53.962  1.00  0.00     0.035 A 
HETATM    9  C   UNL     1     -42.897  56.842 -54.576  1.00  0.00     0.019 A 
HETATM   10  C   UNL     1     -41.831  56.117 -54.027  1.00  0.00     0.034 A 
HETATM   11  C   UNL     1     -41.216  56.578 -52.854  1.00  0.00     0.049 A 
HETATM   12  H   UNL     1     -40.303  57.684 -50.648  1.00  0.00     0.169 HD
ENDROOT
BRANCH  10  13
HETATM   13  C   UNL     1     -41.333  54.835 -54.604  1.00  0.00     0.252 C 
HETATM   14  N   UNL     1     -40.911  53.859 -53.730  1.00  0.00    -0.353 N 
HETATM   15  H   UNL     1     -40.892  54.020 -52.735  1.00  0.00     0.163 HD
HETATM   16  O   UNL     1     -41.328  54.682 -55.823  1.00  0.00    -0.268 OA
BRANCH  14  17
HETATM   17  C   UNL     1     -40.270  52.666 -54.236  1.00  0.00     0.163 C 
BRANCH  17  18
HETATM   18  C   UNL     1     -40.021  51.649 -53.153  1.00  0.00    -0.019 A 
HETATM   19  C   UNL     1     -39.767  50.296 -53.427  1.00  0.00     0.042 A 
HETATM   20 CL   UNL     1     -39.681  49.697 -55.046  1.00  0.00    -0.084 Cl
HETATM   21  C   UNL     1     -39.563  49.384 -52.386  1.00  0.00     0.024 A 
HETATM   22  C   UNL     1     -39.603  49.812 -51.060  1.00  0.00     0.002 A 
HETATM   23  C   UNL     1     -39.839  51.153 -50.772  1.00  0.00     0.001 A 
HETATM   24  C   UNL     1     -40.043  52.065 -51.809  1.00  0.00     0.010 A 
ENDBRANCH  17  18
ENDBRANCH  14  17
ENDBRANCH  10  13
BRANCH   1  25
HETATM   25  C   UNL     1     -43.099  61.382 -50.500  1.00  0.00     0.025 A 
HETATM   26  C   UNL     1     -44.334  61.418 -49.811  1.00  0.00     0.047 A 
HETATM   27  C   UNL     1     -44.742  62.631 -49.247  1.00  0.00     0.030 A 
HETATM   28  C   UNL     1     -43.942  63.775 -49.341  1.00  0.00     0.002 A 
HETATM   29  C   UNL     1     -42.728  63.729 -50.016  1.00  0.00     0.001 A 
HETATM   30  C   UNL     1     -42.309  62.538 -50.603  1.00  0.00     0.016 A 
BRANCH  26  31
HETATM   31  N   UNL     1     -45.127  60.250 -49.768  1.00  0.00    -0.327 N 
HETATM   32  C   UNL     1     -46.040  59.700 -50.617  1.00  0.00     0.218 C 
HETATM   33  C   UNL     1     -46.595  60.482 -51.773  1.00  0.00     0.117 C 
HETATM   34  O   UNL     1     -46.449  58.558 -50.390  1.00  0.00    -0.274 OA
HETATM   35  H   UNL     1     -44.984  59.666 -48.941  1.00  0.00     0.169 HD
ENDBRANCH  26  31
ENDBRANCH   1  25
TORSDOF 5
ENDMDL
MODEL 6
REMARK VINA RESULT:      -8.8      6.326     10.454
REMARK  5 active torsions:
REMARK  status: ('A' for Active; 'I' for Inactive)
REMARK       I    between atoms: C_2  and  N_3 
REMARK    1  A    between atoms: N_3  and  C_4 
REMARK    2  A    between atoms: C_5  and  C_6 
REMARK    3  A    between atoms: C_15  and  C_16 
REMARK       I    between atoms: C_16  and  N_17 
REMARK    4  A    between atoms: N_17  and  C_18 
REMARK    5  A    between atoms: C_18  and  C_19 
ROOT
HETATM    1  C   UNL     1     -41.979  55.797 -52.863  1.00  0.00     0.138 A 
HETATM    2  N   UNL     1     -41.392  56.689 -52.109  1.00  0.00    -0.240 NA
HETATM    3  C   UNL     1     -42.098  57.857 -51.771  1.00  0.00     0.084 A 
HETATM    4  C   UNL     1     -43.406  58.096 -52.206  1.00  0.00     0.065 A 
HETATM    5  N   UNL     1     -44.042  57.140 -52.999  1.00  0.00    -0.320 N 
HETATM    6  C   UNL     1     -43.426  55.967 -53.356  1.00  0.00     0.275 A 
HETATM    7  O   UNL     1     -43.994  55.107 -54.011  1.00  0.00    -0.266 OA
HETATM    8  C   UNL     1     -41.475  58.811 -50.965  1.00  0.00     0.035 A 
HETATM    9  C   UNL     1     -42.144  59.989 -50.599  1.00  0.00     0.019 A 
HETATM   10  C   UNL     1     -43.450  60.222 -51.048  1.00  0.00     0.034 A 
HETATM   11  C   UNL     1     -44.083  59.261 -51.851  1.00  0.00     0.049 A 
HETATM   12  H   UNL     1     -44.997  57.267 -53.304  1.00  0.00     0.169 HD
ENDROOT
BRANCH  10  13
HETATM   13  C   UNL     1     -44.236  61.434 -50.679  1.00  0.00     0.252 C 
HETATM   14  N   UNL     1     -45.342  61.261 -49.877  1.00  0.00    -0.353 N 
HETATM   15  H   UNL     1     -45.642  60.342 -49.589  1.00  0.00     0.163 HD
HETATM   16  O   UNL     1     -43.872  62.536 -51.079  1.00  0.00    -0.268 OA
BRANCH  14  17
HETATM   17  C   UNL     1     -46.229  62.374 -49.623  1.00  0.00     0.163 C 
BRANCH  17  18
HETATM   18  C   UNL     1     -46.314  62.712 -48.158  1.00  0.00    -0.019 A 
HETATM   19  C   UNL     1     -47.399  63.408 -47.602  1.00  0.00     0.042 A 
HETATM   20 CL   UNL     1     -48.750  63.901 -48.560  1.00  0.00    -0.084 Cl
HETATM   21  C   UNL     1     -47.424  63.718 -46.238  1.00  0.00     0.024 A 
HETATM   22  C   UNL     1     -46.370  63.331 -45.411  1.00  0.00     0.002 A 
HETATM   23  C   UNL     1     -45.295  62.628 -45.944  1.00  0.00     0.001 A 
HETATM   24  C   UNL     1     -45.268  62.317 -47.305  1.00  0.00     0.010 A 
ENDBRANCH  17  18
ENDBRANCH  14  17
ENDBRANCH  10  13
BRANCH   1  25
HETATM   25  C   UNL     1     -41.235  54.555 -53.230  1.00  0.00     0.025 A 
HETATM   26  C   UNL     1     -41.046  53.518 -52.287  1.00  0.00     0.047 A 
HETATM   27  C   UNL     1     -40.341  52.379 -52.688  1.00  0.00     0.030 A 
HETATM   28  C   UNL     1     -39.851  52.256 -53.993  1.00  0.00     0.002 A 
HETATM   29  C   UNL     1     -40.045  53.279 -54.914  1.00  0.00     0.001 A 
HETATM   30  C   UNL     1     -40.728  54.432 -54.533  1.00  0.00     0.016 A 
BRANCH  26  31
HETATM   31  N   UNL     1     -41.527  53.695 -50.970  1.00  0.00    -0.327 N 
HETATM   32  C   UNL     1     -40.951  54.097 -49.804  1.00  0.00     0.218 C 
HETATM   33  C   UNL     1     -39.458  54.196 -49.670  1.00  0.00     0.117 C 
HETATM   34  O   UNL     1     -41.675  54.331 -48.833  1.00  0.00    -0.274 OA
HETATM   35  H   UNL     1     -42.525  53.507 -50.851  1.00  0.00     0.169 HD
ENDBRANCH  26  31
ENDBRANCH   1  25
TORSDOF 5
ENDMDL
MODEL 7
REMARK VINA RESULT:      -8.6      5.811      7.003
REMARK  5 active torsions:
REMARK  status: ('A' for Active; 'I' for Inactive)
REMARK       I    between atoms: C_2  and  N_3 
REMARK    1  A    between atoms: N_3  and  C_4 
REMARK    2  A    between atoms: C_5  and  C_6 
REMARK    3  A    between atoms: C_15  and  C_16 
REMARK       I    between atoms: C_16  and  N_17 
REMARK    4  A    between atoms: N_17  and  C_18 
REMARK    5  A    between atoms: C_18  and  C_19 
ROOT
HETATM    1  C   UNL     1     -44.649  60.001 -51.697  1.00  0.00     0.138 A 
HETATM    2  N   UNL     1     -44.997  58.771 -51.422  1.00  0.00    -0.240 NA
HETATM    3  C   UNL     1     -43.990  57.810 -51.229  1.00  0.00     0.084 A 
HETATM    4  C   UNL     1     -42.628  58.123 -51.314  1.00  0.00     0.065 A 
HETATM    5  N   UNL     1     -42.251  59.437 -51.593  1.00  0.00    -0.320 N 
HETATM    6  C   UNL     1     -43.175  60.434 -51.776  1.00  0.00     0.275 A 
HETATM    7  O   UNL     1     -42.850  61.595 -51.974  1.00  0.00    -0.266 OA
HETATM    8  C   UNL     1     -44.358  56.497 -50.934  1.00  0.00     0.035 A 
HETATM    9  C   UNL     1     -43.385  55.508 -50.728  1.00  0.00     0.019 A 
HETATM   10  C   UNL     1     -42.026  55.830 -50.825  1.00  0.00     0.034 A 
HETATM   11  C   UNL     1     -41.650  57.151 -51.113  1.00  0.00     0.049 A 
HETATM   12  H   UNL     1     -41.276  59.703 -51.630  1.00  0.00     0.169 HD
ENDROOT
BRANCH  10  13
HETATM   13  C   UNL     1     -40.934  54.842 -50.592  1.00  0.00     0.252 C 
HETATM   14  N   UNL     1     -40.877  53.742 -51.418  1.00  0.00    -0.353 N 
HETATM   15  H   UNL     1     -41.577  53.582 -52.126  1.00  0.00     0.163 HD
HETATM   16  O   UNL     1     -40.119  55.042 -49.696  1.00  0.00    -0.268 OA
BRANCH  14  17
HETATM   17  C   UNL     1     -39.941  52.676 -51.136  1.00  0.00     0.163 C 
BRANCH  17  18
HETATM   18  C   UNL     1     -39.856  51.679 -52.262  1.00  0.00    -0.019 A 
HETATM   19  C   UNL     1     -39.589  50.317 -52.051  1.00  0.00     0.042 A 
HETATM   20 CL   UNL     1     -39.375  49.669 -50.464  1.00  0.00    -0.084 Cl
HETATM   21  C   UNL     1     -39.498  49.433 -53.131  1.00  0.00     0.024 A 
HETATM   22  C   UNL     1     -39.679  49.895 -54.434  1.00  0.00     0.002 A 
HETATM   23  C   UNL     1     -39.959  51.240 -54.659  1.00  0.00     0.001 A 
HETATM   24  C   UNL     1     -40.050  52.124 -53.582  1.00  0.00     0.010 A 
ENDBRANCH  17  18
ENDBRANCH  14  17
ENDBRANCH  10  13
BRANCH   1  25
HETATM   25  C   UNL     1     -45.713  61.026 -51.907  1.00  0.00     0.025 A 
HETATM   26  C   UNL     1     -46.242  61.757 -50.817  1.00  0.00     0.047 A 
HETATM   27  C   UNL     1     -47.238  62.704 -51.075  1.00  0.00     0.030 A 
HETATM   28  C   UNL     1     -47.688  62.941 -52.379  1.00  0.00     0.002 A 
HETATM   29  C   UNL     1     -47.159  62.221 -53.445  1.00  0.00     0.001 A 
HETATM   30  C   UNL     1     -46.180  61.259 -53.211  1.00  0.00     0.016 A 
BRANCH  26  31
HETATM   31  N   UNL     1     -45.786  61.464 -49.513  1.00  0.00    -0.327 N 
HETATM   32  C   UNL     1     -44.951  62.099 -48.643  1.00  0.00     0.218 C 
HETATM   33  C   UNL     1     -44.083  63.239 -49.093  1.00  0.00     0.117 C 
HETATM   34  O   UNL     1     -44.878  61.687 -47.482  1.00  0.00    -0.274 OA
HETATM   35  H   UNL     1     -46.170  60.608 -49.107  1.00  0.00     0.169 HD
ENDBRANCH  26  31
ENDBRANCH   1  25
TORSDOF 5
ENDMDL
MODEL 8
REMARK VINA RESULT:      -8.3      1.941      2.923
REMARK  5 active torsions:
REMARK  status: ('A' for Active; 'I' for Inactive)
REMARK       I    between atoms: C_2  and  N_3 
REMARK    1  A    between atoms: N_3  and  C_4 
REMARK    2  A    between atoms: C_5  and  C_6 
REMARK    3  A    between atoms: C_15  and  C_16 
REMARK       I    between atoms: C_16  and  N_17 
REMARK    4  A    between atoms: N_17  and  C_18 
REMARK    5  A    between atoms: C_18  and  C_19 
ROOT
HETATM    1  C   UNL     1     -45.322  57.640 -59.200  1.00  0.00     0.138 A 
HETATM    2  N   UNL     1     -45.504  57.992 -57.954  1.00  0.00    -0.240 NA
HETATM    3  C   UNL     1     -44.570  57.573 -56.990  1.00  0.00     0.084 A 
HETATM    4  C   UNL     1     -43.451  56.799 -57.316  1.00  0.00     0.065 A 
HETATM    5  N   UNL     1     -43.244  56.433 -58.647  1.00  0.00    -0.320 N 
HETATM    6  C   UNL     1     -44.101  56.818 -59.647  1.00  0.00     0.275 A 
HETATM    7  O   UNL     1     -43.899  56.540 -60.819  1.00  0.00    -0.266 OA
HETATM    8  C   UNL     1     -44.761  57.948 -55.660  1.00  0.00     0.035 A 
HETATM    9  C   UNL     1     -43.852  57.557 -54.666  1.00  0.00     0.019 A 
HETATM   10  C   UNL     1     -42.740  56.774 -55.002  1.00  0.00     0.034 A 
HETATM   11  C   UNL     1     -42.539  56.402 -56.340  1.00  0.00     0.049 A 
HETATM   12  H   UNL     1     -42.429  55.901 -58.920  1.00  0.00     0.169 HD
ENDROOT
BRANCH  10  13
HETATM   13  C   UNL     1     -41.714  56.343 -54.009  1.00  0.00     0.252 C 
HETATM   14  N   UNL     1     -41.763  55.042 -53.561  1.00  0.00    -0.353 N 
HETATM   15  H   UNL     1     -42.495  54.415 -53.854  1.00  0.00     0.163 HD
HETATM   16  O   UNL     1     -40.859  57.142 -53.638  1.00  0.00    -0.268 OA
BRANCH  14  17
HETATM   17  C   UNL     1     -40.898  54.619 -52.482  1.00  0.00     0.163 C 
BRANCH  17  18
HETATM   18  C   UNL     1     -40.452  53.189 -52.637  1.00  0.00    -0.019 A 
HETATM   19  C   UNL     1     -40.062  52.394 -51.547  1.00  0.00     0.042 A 
HETATM   20 CL   UNL     1     -40.102  52.991 -49.927  1.00  0.00    -0.084 Cl
HETATM   21  C   UNL     1     -39.634  51.077 -51.744  1.00  0.00     0.024 A 
HETATM   22  C   UNL     1     -39.597  50.534 -53.028  1.00  0.00     0.002 A 
HETATM   23  C   UNL     1     -39.994  51.305 -54.116  1.00  0.00     0.001 A 
HETATM   24  C   UNL     1     -40.422  52.620 -53.923  1.00  0.00     0.010 A 
ENDBRANCH  17  18
ENDBRANCH  14  17
ENDBRANCH  10  13
BRANCH   1  25
HETATM   25  C   UNL     1     -46.311  58.077 -60.229  1.00  0.00     0.025 A 
HETATM   26  C   UNL     1     -46.368  59.427 -60.652  1.00  0.00     0.047 A 
HETATM   27  C   UNL     1     -47.316  59.777 -61.619  1.00  0.00     0.030 A 
HETATM   28  C   UNL     1     -48.172  58.818 -62.171  1.00  0.00     0.002 A 
HETATM   29  C   UNL     1     -48.105  57.494 -61.753  1.00  0.00     0.001 A 
HETATM   30  C   UNL     1     -47.183  57.124 -60.777  1.00  0.00     0.016 A 
BRANCH  26  31
HETATM   31  N   UNL     1     -45.510  60.370 -60.046  1.00  0.00    -0.327 N 
HETATM   32  C   UNL     1     -44.300  60.897 -60.386  1.00  0.00     0.218 C 
HETATM   33  C   UNL     1     -43.472  60.294 -61.484  1.00  0.00     0.117 C 
HETATM   34  O   UNL     1     -43.866  61.853 -59.738  1.00  0.00    -0.274 OA
HETATM   35  H   UNL     1     -45.864  60.773 -59.176  1.00  0.00     0.169 HD
ENDBRANCH  26  31
ENDBRANCH   1  25
TORSDOF 5
ENDMDL
MODEL 9
REMARK VINA RESULT:      -8.2      5.261      7.239
REMARK  5 active torsions:
REMARK  status: ('A' for Active; 'I' for Inactive)
REMARK       I    between atoms: C_2  and  N_3 
REMARK    1  A    between atoms: N_3  and  C_4 
REMARK    2  A    between atoms: C_5  and  C_6 
REMARK    3  A    between atoms: C_15  and  C_16 
REMARK       I    between atoms: C_16  and  N_17 
REMARK    4  A    between atoms: N_17  and  C_18 
REMARK    5  A    between atoms: C_18  and  C_19 
ROOT
HETATM    1  C   UNL     1     -44.128  60.070 -50.648  1.00  0.00     0.138 A 
HETATM    2  N   UNL     1     -44.590  58.899 -51.000  1.00  0.00    -0.240 NA
HETATM    3  C   UNL     1     -43.727  58.000 -51.650  1.00  0.00     0.084 A 
HETATM    4  C   UNL     1     -42.391  58.309 -51.927  1.00  0.00     0.065 A 
HETATM    5  N   UNL     1     -41.888  59.552 -51.539  1.00  0.00    -0.320 N 
HETATM    6  C   UNL     1     -42.663  60.475 -50.885  1.00  0.00     0.275 A 
HETATM    7  O   UNL     1     -42.216  61.546 -50.502  1.00  0.00    -0.266 OA
HETATM    8  C   UNL     1     -44.217  56.749 -52.028  1.00  0.00     0.035 A 
HETATM    9  C   UNL     1     -43.389  55.818 -52.674  1.00  0.00     0.019 A 
HETATM   10  C   UNL     1     -42.056  56.142 -52.954  1.00  0.00     0.034 A 
HETATM   11  C   UNL     1     -41.556  57.395 -52.569  1.00  0.00     0.049 A 
HETATM   12  H   UNL     1     -40.919  59.794 -51.696  1.00  0.00     0.169 HD
ENDROOT
BRANCH  10  13
HETATM   13  C   UNL     1     -41.107  55.198 -53.611  1.00  0.00     0.252 C 
HETATM   14  N   UNL     1     -41.302  53.850 -53.409  1.00  0.00    -0.353 N 
HETATM   15  H   UNL     1     -42.029  53.511 -52.800  1.00  0.00     0.163 HD
HETATM   16  O   UNL     1     -40.204  55.641 -54.315  1.00  0.00    -0.268 OA
BRANCH  14  17
HETATM   17  C   UNL     1     -40.321  52.901 -53.887  1.00  0.00     0.163 C 
BRANCH  17  18
HETATM   18  C   UNL     1     -40.061  51.799 -52.894  1.00  0.00    -0.019 A 
HETATM   19  C   UNL     1     -39.800  50.475 -53.280  1.00  0.00     0.042 A 
HETATM   20 CL   UNL     1     -39.718  50.013 -54.943  1.00  0.00    -0.084 Cl
HETATM   21  C   UNL     1     -39.587  49.481 -52.319  1.00  0.00     0.024 A 
HETATM   22  C   UNL     1     -39.623  49.798 -50.962  1.00  0.00     0.002 A 
HETATM   23  C   UNL     1     -39.866  51.109 -50.563  1.00  0.00     0.001 A 
HETATM   24  C   UNL     1     -40.080  52.102 -51.520  1.00  0.00     0.010 A 
ENDBRANCH  17  18
ENDBRANCH  14  17
ENDBRANCH  10  13
BRANCH   1  25
HETATM   25  C   UNL     1     -45.039  61.032 -49.960  1.00  0.00     0.025 A 
HETATM   26  C   UNL     1     -45.899  61.874 -50.703  1.00  0.00     0.047 A 
HETATM   27  C   UNL     1     -46.729  62.756 -50.004  1.00  0.00     0.030 A 
HETATM   28  C   UNL     1     -46.727  62.792 -48.605  1.00  0.00     0.002 A 
HETATM   29  C   UNL     1     -45.881  61.958 -47.883  1.00  0.00     0.001 A 
HETATM   30  C   UNL     1     -45.031  61.085 -48.557  1.00  0.00     0.016 A 
BRANCH  26  31
HETATM   31  N   UNL     1     -45.847  61.830 -52.114  1.00  0.00    -0.327 N 
HETATM   32  C   UNL     1     -45.128  62.510 -53.051  1.00  0.00     0.218 C 
HETATM   33  C   UNL     1     -44.351  63.743 -52.689  1.00  0.00     0.117 C 
HETATM   34  O   UNL     1     -45.165  62.124 -54.223  1.00  0.00    -0.274 OA
HETATM   35  H   UNL     1     -46.455  61.130 -52.543  1.00  0.00     0.169 HD
ENDBRANCH  26  31
ENDBRANCH   1  25
TORSDOF 5
ENDMDL
MODEL 10
REMARK VINA RESULT:      -8.0     16.106     19.177
REMARK  5 active torsions:
REMARK  status: ('A' for Active; 'I' for Inactive)
REMARK       I    between atoms: C_2  and  N_3 
REMARK    1  A    between atoms: N_3  and  C_4 
REMARK    2  A    between atoms: C_5  and  C_6 
REMARK    3  A    between atoms: C_15  and  C_16 
REMARK       I    between atoms: C_16  and  N_17 
REMARK    4  A    between atoms: N_17  and  C_18 
REMARK    5  A    between atoms: C_18  and  C_19 
ROOT
HETATM    1  C   UNL     1     -35.536  40.713 -53.988  1.00  0.00     0.138 A 
HETATM    2  N   UNL     1     -35.264  39.466 -53.702  1.00  0.00    -0.240 NA
HETATM    3  C   UNL     1     -34.848  39.148 -52.397  1.00  0.00     0.084 A 
HETATM    4  C   UNL     1     -34.721  40.115 -51.393  1.00  0.00     0.065 A 
HETATM    5  N   UNL     1     -35.023  41.444 -51.690  1.00  0.00    -0.320 N 
HETATM    6  C   UNL     1     -35.453  41.830 -52.935  1.00  0.00     0.275 A 
HETATM    7  O   UNL     1     -35.763  42.984 -53.187  1.00  0.00    -0.266 OA
HETATM    8  C   UNL     1     -34.559  37.818 -52.088  1.00  0.00     0.035 A 
HETATM    9  C   UNL     1     -34.146  37.456 -50.797  1.00  0.00     0.019 A 
HETATM   10  C   UNL     1     -34.012  38.433 -49.803  1.00  0.00     0.034 A 
HETATM   11  C   UNL     1     -34.311  39.769 -50.107  1.00  0.00     0.049 A 
HETATM   12  H   UNL     1     -34.972  42.162 -50.980  1.00  0.00     0.169 HD
ENDROOT
BRANCH  10  13
HETATM   13  C   UNL     1     -33.607  38.122 -48.402  1.00  0.00     0.252 C 
HETATM   14  N   UNL     1     -32.264  38.161 -48.100  1.00  0.00    -0.353 N 
HETATM   15  H   UNL     1     -31.572  38.344 -48.809  1.00  0.00     0.163 HD
HETATM   16  O   UNL     1     -34.468  37.861 -47.567  1.00  0.00    -0.268 OA
BRANCH  14  17
HETATM   17  C   UNL     1     -31.803  37.713 -46.804  1.00  0.00     0.163 C 
BRANCH  17  18
HETATM   18  C   UNL     1     -31.127  38.812 -46.028  1.00  0.00    -0.019 A 
HETATM   19  C   UNL     1     -31.091  38.839 -44.625  1.00  0.00     0.042 A 
HETATM   20 CL   UNL     1     -31.794  37.579 -43.674  1.00  0.00    -0.084 Cl
HETATM   21  C   UNL     1     -30.469  39.892 -43.947  1.00  0.00     0.024 A 
HETATM   22  C   UNL     1     -29.868  40.929 -44.661  1.00  0.00     0.002 A 
HETATM   23  C   UNL     1     -29.883  40.910 -46.053  1.00  0.00     0.001 A 
HETATM   24  C   UNL     1     -30.503  39.859 -46.731  1.00  0.00     0.010 A 
ENDBRANCH  17  18
ENDBRANCH  14  17
ENDBRANCH  10  13
BRANCH   1  25
HETATM   25  C   UNL     1     -35.975  41.059 -55.372  1.00  0.00     0.025 A 
HETATM   26  C   UNL     1     -35.031  41.211 -56.416  1.00  0.00     0.047 A 
HETATM   27  C   UNL     1     -35.502  41.538 -57.692  1.00  0.00     0.030 A 
HETATM   28  C   UNL     1     -36.871  41.690 -57.938  1.00  0.00     0.002 A 
HETATM   29  C   UNL     1     -37.791  41.534 -56.907  1.00  0.00     0.001 A 
HETATM   30  C   UNL     1     -37.345  41.228 -55.624  1.00  0.00     0.016 A 
BRANCH  26  31
HETATM   31  N   UNL     1     -33.656  41.082 -56.119  1.00  0.00    -0.327 N 
HETATM   32  C   UNL     1     -32.718  40.135 -56.397  1.00  0.00     0.218 C 
HETATM   33  C   UNL     1     -33.111  38.786 -56.928  1.00  0.00     0.117 C 
HETATM   34  O   UNL     1     -31.534  40.383 -56.157  1.00  0.00    -0.274 OA
HETATM   35  H   UNL     1     -33.254  41.869 -55.604  1.00  0.00     0.169 HD
ENDBRANCH  26  31
ENDBRANCH   1  25
TORSDOF 5
ENDMDL
