MODEL 1
REMARK VINA RESULT:      -7.9      0.000      0.000
REMARK  5 active torsions:
REMARK  status: ('A' for Active; 'I' for Inactive)
REMARK    1  A    between atoms: O_2  and  C_3 
REMARK    2  A    between atoms: C_4  and  C_5 
REMARK    3  A    between atoms: C_6  and  C_7 
REMARK    4  A    between atoms: C_6  and  C_16 
REMARK       I    between atoms: C_7  and  N_8 
REMARK    5  A    between atoms: N_8  and  C_9 
ROOT
HETATM    1  C   UNL     1     -40.998  55.774 -52.660  1.00  0.00     0.032 C 
HETATM    2  C   UNL     1     -41.445  54.861 -53.549  1.00  0.00     0.043 C 
ENDROOT
BRANCH   2   3
HETATM    3  C   UNL     1     -42.519  55.040 -54.597  1.00  0.00     0.257 C 
HETATM    4  N   UNL     1     -42.168  55.817 -55.679  1.00  0.00    -0.323 N 
HETATM    5  H   UNL     1     -41.246  56.227 -55.673  1.00  0.00     0.169 HD
HETATM    6  O   UNL     1     -43.604  54.484 -54.444  1.00  0.00    -0.267 OA
BRANCH   4   7
HETATM    7  C   UNL     1     -42.971  56.148 -56.792  1.00  0.00     0.037 A 
HETATM    8  C   UNL     1     -43.039  55.390 -57.955  1.00  0.00     0.049 A 
HETATM    9  C   UNL     1     -43.859  55.830 -58.982  1.00  0.00     0.118 A 
HETATM   10  N   UNL     1     -44.615  56.947 -58.920  1.00  0.00    -0.273 NA
HETATM   11  C   UNL     1     -44.535  57.662 -57.781  1.00  0.00     0.118 A 
HETATM   12  C   UNL     1     -43.731  57.315 -56.706  1.00  0.00     0.049 A 
ENDBRANCH   4   7
ENDBRANCH   2   3
BRANCH   2  13
HETATM   13  C   UNL     1     -40.855  53.512 -53.398  1.00  0.00    -0.021 A 
HETATM   14  C   UNL     1     -40.339  53.097 -52.163  1.00  0.00     0.012 A 
HETATM   15  C   UNL     1     -39.742  51.842 -52.035  1.00  0.00     0.001 A 
HETATM   16  C   UNL     1     -39.658  50.994 -53.139  1.00  0.00     0.000 A 
HETATM   17  C   UNL     1     -40.173  51.399 -54.371  1.00  0.00     0.001 A 
HETATM   18  C   UNL     1     -40.769  52.654 -54.502  1.00  0.00     0.012 A 
ENDBRANCH   2  13
BRANCH   1  19
HETATM   19  C   UNL     1     -41.402  57.173 -52.493  1.00  0.00    -0.002 A 
HETATM   20  C   UNL     1     -42.356  57.556 -51.537  1.00  0.00     0.078 A 
HETATM   21  C   UNL     1     -42.684  58.901 -51.357  1.00  0.00     0.037 A 
HETATM   22  C   UNL     1     -42.091  59.873 -52.161  1.00  0.00     0.003 A 
HETATM   23  C   UNL     1     -41.156  59.502 -53.126  1.00  0.00     0.001 A 
HETATM   24  C   UNL     1     -40.809  58.158 -53.288  1.00  0.00     0.014 A 
BRANCH  20  25
HETATM   25  O   UNL     1     -42.904  56.662 -50.653  1.00  0.00    -0.355 OA
HETATM   26  C   UNL     1     -44.297  56.470 -50.899  1.00  0.00     0.210 C 
ENDBRANCH  20  25
ENDBRANCH   1  19
TORSDOF 5
ENDMDL
MODEL 2
REMARK VINA RESULT:      -7.8      0.880      2.045
REMARK  5 active torsions:
REMARK  status: ('A' for Active; 'I' for Inactive)
REMARK    1  A    between atoms: O_2  and  C_3 
REMARK    2  A    between atoms: C_4  and  C_5 
REMARK    3  A    between atoms: C_6  and  C_7 
REMARK    4  A    between atoms: C_6  and  C_16 
REMARK       I    between atoms: C_7  and  N_8 
REMARK    5  A    between atoms: N_8  and  C_9 
ROOT
HETATM    1  C   UNL     1     -41.957  55.562 -51.992  1.00  0.00     0.032 C 
HETATM    2  C   UNL     1     -42.040  54.817 -53.116  1.00  0.00     0.043 C 
ENDROOT
BRANCH   2   3
HETATM    3  C   UNL     1     -42.939  55.041 -54.310  1.00  0.00     0.257 C 
HETATM    4  N   UNL     1     -42.460  55.921 -55.255  1.00  0.00    -0.323 N 
HETATM    5  H   UNL     1     -41.574  56.367 -55.065  1.00  0.00     0.169 HD
HETATM    6  O   UNL     1     -44.002  54.431 -54.382  1.00  0.00    -0.267 OA
BRANCH   4   7
HETATM    7  C   UNL     1     -43.089  56.314 -56.456  1.00  0.00     0.037 A 
HETATM    8  C   UNL     1     -43.858  57.465 -56.591  1.00  0.00     0.049 A 
HETATM    9  C   UNL     1     -44.433  57.733 -57.824  1.00  0.00     0.118 A 
HETATM   10  N   UNL     1     -44.281  56.952 -58.914  1.00  0.00    -0.273 NA
HETATM   11  C   UNL     1     -43.528  55.844 -58.759  1.00  0.00     0.118 A 
HETATM   12  C   UNL     1     -42.928  55.481 -57.564  1.00  0.00     0.049 A 
ENDBRANCH   4   7
ENDBRANCH   2   3
BRANCH   2  13
HETATM   13  C   UNL     1     -41.202  53.597 -53.110  1.00  0.00    -0.021 A 
HETATM   14  C   UNL     1     -40.511  53.216 -51.953  1.00  0.00     0.012 A 
HETATM   15  C   UNL     1     -39.685  52.091 -51.963  1.00  0.00     0.001 A 
HETATM   16  C   UNL     1     -39.545  51.340 -53.130  1.00  0.00     0.000 A 
HETATM   17  C   UNL     1     -40.234  51.711 -54.285  1.00  0.00     0.001 A 
HETATM   18  C   UNL     1     -41.058  52.837 -54.278  1.00  0.00     0.012 A 
ENDBRANCH   2  13
BRANCH   1  19
HETATM   19  C   UNL     1     -42.680  56.788 -51.644  1.00  0.00    -0.002 A 
HETATM   20  C   UNL     1     -42.044  58.040 -51.626  1.00  0.00     0.078 A 
HETATM   21  C   UNL     1     -42.765  59.202 -51.347  1.00  0.00     0.037 A 
HETATM   22  C   UNL     1     -44.122  59.119 -51.042  1.00  0.00     0.003 A 
HETATM   23  C   UNL     1     -44.761  57.880 -51.038  1.00  0.00     0.001 A 
HETATM   24  C   UNL     1     -44.044  56.720 -51.344  1.00  0.00     0.014 A 
BRANCH  20  25
HETATM   25  O   UNL     1     -40.737  58.200 -52.009  1.00  0.00    -0.355 OA
HETATM   26  C   UNL     1     -40.639  58.830 -53.287  1.00  0.00     0.210 C 
ENDBRANCH  20  25
ENDBRANCH   1  19
TORSDOF 5
ENDMDL
MODEL 3
REMARK VINA RESULT:      -7.6      1.543      2.223
REMARK  5 active torsions:
REMARK  status: ('A' for Active; 'I' for Inactive)
REMARK    1  A    between atoms: O_2  and  C_3 
REMARK    2  A    between atoms: C_4  and  C_5 
REMARK    3  A    between atoms: C_6  and  C_7 
REMARK    4  A    between atoms: C_6  and  C_16 
REMARK       I    between atoms: C_7  and  N_8 
REMARK    5  A    between atoms: N_8  and  C_9 
ROOT
HETATM    1  C   UNL     1     -40.902  54.405 -51.839  1.00  0.00     0.032 C 
HETATM    2  C   UNL     1     -40.632  53.904 -53.064  1.00  0.00     0.043 C 
ENDROOT
BRANCH   2   3
HETATM    3  C   UNL     1     -40.752  54.605 -54.397  1.00  0.00     0.257 C 
HETATM    4  N   UNL     1     -41.993  55.131 -54.680  1.00  0.00    -0.323 N 
HETATM    5  H   UNL     1     -42.724  54.983 -54.001  1.00  0.00     0.169 HD
HETATM    6  O   UNL     1     -39.765  54.684 -55.123  1.00  0.00    -0.267 OA
BRANCH   4   7
HETATM    7  C   UNL     1     -42.382  55.828 -55.845  1.00  0.00     0.037 A 
HETATM    8  C   UNL     1     -42.320  57.210 -55.982  1.00  0.00     0.049 A 
HETATM    9  C   UNL     1     -42.742  57.774 -57.176  1.00  0.00     0.118 A 
HETATM   10  N   UNL     1     -43.200  57.063 -58.227  1.00  0.00    -0.273 NA
HETATM   11  C   UNL     1     -43.248  55.725 -58.072  1.00  0.00     0.118 A 
HETATM   12  C   UNL     1     -42.865  55.069 -56.912  1.00  0.00     0.049 A 
ENDBRANCH   4   7
ENDBRANCH   2   3
BRANCH   2  13
HETATM   13  C   UNL     1     -40.259  52.471 -53.075  1.00  0.00    -0.021 A 
HETATM   14  C   UNL     1     -40.452  51.697 -54.226  1.00  0.00     0.012 A 
HETATM   15  C   UNL     1     -40.141  50.336 -54.220  1.00  0.00     0.001 A 
HETATM   16  C   UNL     1     -39.636  49.742 -53.064  1.00  0.00     0.000 A 
HETATM   17  C   UNL     1     -39.439  50.508 -51.915  1.00  0.00     0.001 A 
HETATM   18  C   UNL     1     -39.750  51.868 -51.918  1.00  0.00     0.012 A 
ENDBRANCH   2  13
BRANCH   1  19
HETATM   19  C   UNL     1     -41.347  55.752 -51.472  1.00  0.00    -0.002 A 
HETATM   20  C   UNL     1     -42.704  56.113 -51.493  1.00  0.00     0.078 A 
HETATM   21  C   UNL     1     -43.109  57.385 -51.085  1.00  0.00     0.037 A 
HETATM   22  C   UNL     1     -42.157  58.323 -50.692  1.00  0.00     0.003 A 
HETATM   23  C   UNL     1     -40.805  57.983 -50.685  1.00  0.00     0.001 A 
HETATM   24  C   UNL     1     -40.402  56.701 -51.069  1.00  0.00     0.014 A 
BRANCH  20  25
HETATM   25  O   UNL     1     -43.695  55.210 -51.777  1.00  0.00    -0.355 OA
HETATM   26  C   UNL     1     -44.203  54.599 -50.591  1.00  0.00     0.210 C 
ENDBRANCH  20  25
ENDBRANCH   1  19
TORSDOF 5
ENDMDL
MODEL 4
REMARK VINA RESULT:      -7.3      1.800      5.350
REMARK  5 active torsions:
REMARK  status: ('A' for Active; 'I' for Inactive)
REMARK    1  A    between atoms: O_2  and  C_3 
REMARK    2  A    between atoms: C_4  and  C_5 
REMARK    3  A    between atoms: C_6  and  C_7 
REMARK    4  A    between atoms: C_6  and  C_16 
REMARK       I    between atoms: C_7  and  N_8 
REMARK    5  A    between atoms: N_8  and  C_9 
ROOT
HETATM    1  C   UNL     1     -42.011  58.121 -54.632  1.00  0.00     0.032 C 
HETATM    2  C   UNL     1     -42.233  56.881 -55.119  1.00  0.00     0.043 C 
ENDROOT
BRANCH   2   3
HETATM    3  C   UNL     1     -42.147  55.567 -54.379  1.00  0.00     0.257 C 
HETATM    4  N   UNL     1     -40.878  55.050 -54.235  1.00  0.00    -0.323 N 
HETATM    5  H   UNL     1     -40.119  55.564 -54.657  1.00  0.00     0.169 HD
HETATM    6  O   UNL     1     -43.175  55.058 -53.940  1.00  0.00    -0.267 OA
BRANCH   4   7
HETATM    7  C   UNL     1     -40.512  53.846 -53.595  1.00  0.00     0.037 A 
HETATM    8  C   UNL     1     -40.448  53.687 -52.216  1.00  0.00     0.049 A 
HETATM    9  C   UNL     1     -40.064  52.454 -51.711  1.00  0.00     0.118 A 
HETATM   10  N   UNL     1     -39.759  51.385 -52.478  1.00  0.00    -0.273 NA
HETATM   11  C   UNL     1     -39.832  51.564 -53.812  1.00  0.00     0.118 A 
HETATM   12  C   UNL     1     -40.188  52.761 -54.412  1.00  0.00     0.049 A 
ENDBRANCH   4   7
ENDBRANCH   2   3
BRANCH   2  13
HETATM   13  C   UNL     1     -42.507  56.830 -56.573  1.00  0.00    -0.021 A 
HETATM   14  C   UNL     1     -42.966  55.649 -57.168  1.00  0.00     0.012 A 
HETATM   15  C   UNL     1     -43.180  55.590 -58.546  1.00  0.00     0.001 A 
HETATM   16  C   UNL     1     -42.936  56.713 -59.337  1.00  0.00     0.000 A 
HETATM   17  C   UNL     1     -42.482  57.894 -58.751  1.00  0.00     0.001 A 
HETATM   18  C   UNL     1     -42.266  57.955 -57.374  1.00  0.00     0.012 A 
ENDBRANCH   2  13
BRANCH   1  19
HETATM   19  C   UNL     1     -41.665  58.526 -53.267  1.00  0.00    -0.002 A 
HETATM   20  C   UNL     1     -42.645  58.687 -52.274  1.00  0.00     0.078 A 
HETATM   21  C   UNL     1     -42.286  59.019 -50.966  1.00  0.00     0.037 A 
HETATM   22  C   UNL     1     -40.947  59.233 -50.647  1.00  0.00     0.003 A 
HETATM   23  C   UNL     1     -39.966  59.095 -51.629  1.00  0.00     0.001 A 
HETATM   24  C   UNL     1     -40.324  58.737 -52.932  1.00  0.00     0.014 A 
BRANCH  20  25
HETATM   25  O   UNL     1     -43.966  58.399 -52.498  1.00  0.00    -0.355 OA
HETATM   26  C   UNL     1     -44.463  57.451 -51.554  1.00  0.00     0.210 C 
ENDBRANCH  20  25
ENDBRANCH   1  19
TORSDOF 5
ENDMDL
MODEL 5
REMARK VINA RESULT:      -7.2      2.176      5.604
REMARK  5 active torsions:
REMARK  status: ('A' for Active; 'I' for Inactive)
REMARK    1  A    between atoms: O_2  and  C_3 
REMARK    2  A    between atoms: C_4  and  C_5 
REMARK    3  A    between atoms: C_6  and  C_7 
REMARK    4  A    between atoms: C_6  and  C_16 
REMARK       I    between atoms: C_7  and  N_8 
REMARK    5  A    between atoms: N_8  and  C_9 
ROOT
HETATM    1  C   UNL     1     -42.098  57.335 -54.251  1.00  0.00     0.032 C 
HETATM    2  C   UNL     1     -41.776  56.265 -55.008  1.00  0.00     0.043 C 
ENDROOT
BRANCH   2   3
HETATM    3  C   UNL     1     -40.835  55.135 -54.660  1.00  0.00     0.257 C 
HETATM    4  N   UNL     1     -41.390  54.104 -53.934  1.00  0.00    -0.323 N 
HETATM    5  H   UNL     1     -42.359  54.196 -53.667  1.00  0.00     0.169 HD
HETATM    6  O   UNL     1     -39.670  55.184 -55.047  1.00  0.00    -0.267 OA
BRANCH   4   7
HETATM    7  C   UNL     1     -40.744  52.935 -53.475  1.00  0.00     0.037 A 
HETATM    8  C   UNL     1     -40.497  51.821 -54.268  1.00  0.00     0.049 A 
HETATM    9  C   UNL     1     -39.863  50.730 -53.694  1.00  0.00     0.118 A 
HETATM   10  N   UNL     1     -39.452  50.685 -52.409  1.00  0.00    -0.273 NA
HETATM   11  C   UNL     1     -39.699  51.779 -51.661  1.00  0.00     0.118 A 
HETATM   12  C   UNL     1     -40.342  52.910 -52.139  1.00  0.00     0.049 A 
ENDBRANCH   4   7
ENDBRANCH   2   3
BRANCH   2  13
HETATM   13  C   UNL     1     -42.364  56.271 -56.366  1.00  0.00    -0.021 A 
HETATM   14  C   UNL     1     -42.413  57.455 -57.113  1.00  0.00     0.012 A 
HETATM   15  C   UNL     1     -43.009  57.468 -58.375  1.00  0.00     0.001 A 
HETATM   16  C   UNL     1     -43.558  56.298 -58.898  1.00  0.00     0.000 A 
HETATM   17  C   UNL     1     -43.509  55.114 -58.162  1.00  0.00     0.001 A 
HETATM   18  C   UNL     1     -42.916  55.098 -56.899  1.00  0.00     0.012 A 
ENDBRANCH   2  13
BRANCH   1  19
HETATM   19  C   UNL     1     -41.655  57.671 -52.894  1.00  0.00    -0.002 A 
HETATM   20  C   UNL     1     -41.207  58.960 -52.563  1.00  0.00     0.078 A 
HETATM   21  C   UNL     1     -40.844  59.272 -51.252  1.00  0.00     0.037 A 
HETATM   22  C   UNL     1     -40.886  58.288 -50.267  1.00  0.00     0.003 A 
HETATM   23  C   UNL     1     -41.311  56.999 -50.588  1.00  0.00     0.001 A 
HETATM   24  C   UNL     1     -41.700  56.694 -51.895  1.00  0.00     0.014 A 
BRANCH  20  25
HETATM   25  O   UNL     1     -41.232  59.995 -53.461  1.00  0.00    -0.355 OA
HETATM   26  C   UNL     1     -42.423  60.772 -53.332  1.00  0.00     0.210 C 
ENDBRANCH  20  25
ENDBRANCH   1  19
TORSDOF 5
ENDMDL
MODEL 6
REMARK VINA RESULT:      -7.1      1.450      5.121
REMARK  5 active torsions:
REMARK  status: ('A' for Active; 'I' for Inactive)
REMARK    1  A    between atoms: O_2  and  C_3 
REMARK    2  A    between atoms: C_4  and  C_5 
REMARK    3  A    between atoms: C_6  and  C_7 
REMARK    4  A    between atoms: C_6  and  C_16 
REMARK       I    between atoms: C_7  and  N_8 
REMARK    5  A    between atoms: N_8  and  C_9 
ROOT
HETATM    1  C   UNL     1     -41.313  56.121 -52.536  1.00  0.00     0.032 C 
HETATM    2  C   UNL     1     -42.327  56.933 -52.903  1.00  0.00     0.043 C 
ENDROOT
BRANCH   2   3
HETATM    3  C   UNL     1     -43.277  56.759 -54.064  1.00  0.00     0.257 C 
HETATM    4  N   UNL     1     -42.910  57.392 -55.231  1.00  0.00    -0.323 N 
HETATM    5  H   UNL     1     -42.065  57.943 -55.212  1.00  0.00     0.169 HD
HETATM    6  O   UNL     1     -44.282  56.067 -53.918  1.00  0.00    -0.267 OA
BRANCH   4   7
HETATM    7  C   UNL     1     -43.609  57.399 -56.458  1.00  0.00     0.037 A 
HETATM    8  C   UNL     1     -44.691  58.229 -56.732  1.00  0.00     0.049 A 
HETATM    9  C   UNL     1     -45.299  58.132 -57.974  1.00  0.00     0.118 A 
HETATM   10  N   UNL     1     -44.897  57.288 -58.948  1.00  0.00    -0.273 NA
HETATM   11  C   UNL     1     -43.845  56.496 -58.659  1.00  0.00     0.118 A 
HETATM   12  C   UNL     1     -43.182  56.507 -57.442  1.00  0.00     0.049 A 
ENDBRANCH   4   7
ENDBRANCH   2   3
BRANCH   2  13
HETATM   13  C   UNL     1     -42.441  58.175 -52.106  1.00  0.00    -0.021 A 
HETATM   14  C   UNL     1     -41.295  58.802 -51.600  1.00  0.00     0.012 A 
HETATM   15  C   UNL     1     -41.409  59.948 -50.811  1.00  0.00     0.001 A 
HETATM   16  C   UNL     1     -42.668  60.474 -50.524  1.00  0.00     0.000 A 
HETATM   17  C   UNL     1     -43.814  59.857 -51.028  1.00  0.00     0.001 A 
HETATM   18  C   UNL     1     -43.703  58.711 -51.815  1.00  0.00     0.012 A 
ENDBRANCH   2  13
BRANCH   1  19
HETATM   19  C   UNL     1     -40.885  54.853 -53.133  1.00  0.00    -0.002 A 
HETATM   20  C   UNL     1     -40.880  53.656 -52.399  1.00  0.00     0.078 A 
HETATM   21  C   UNL     1     -40.522  52.450 -53.005  1.00  0.00     0.037 A 
HETATM   22  C   UNL     1     -40.126  52.436 -54.341  1.00  0.00     0.003 A 
HETATM   23  C   UNL     1     -40.109  53.621 -55.075  1.00  0.00     0.001 A 
HETATM   24  C   UNL     1     -40.492  54.824 -54.475  1.00  0.00     0.014 A 
BRANCH  20  25
HETATM   25  O   UNL     1     -41.348  53.586 -51.113  1.00  0.00    -0.355 OA
HETATM   26  C   UNL     1     -40.339  53.128 -50.212  1.00  0.00     0.210 C 
ENDBRANCH  20  25
ENDBRANCH   1  19
TORSDOF 5
ENDMDL
MODEL 7
REMARK VINA RESULT:      -7.0      2.120      5.280
REMARK  5 active torsions:
REMARK  status: ('A' for Active; 'I' for Inactive)
REMARK    1  A    between atoms: O_2  and  C_3 
REMARK    2  A    between atoms: C_4  and  C_5 
REMARK    3  A    between atoms: C_6  and  C_7 
REMARK    4  A    between atoms: C_6  and  C_16 
REMARK       I    between atoms: C_7  and  N_8 
REMARK    5  A    between atoms: N_8  and  C_9 
ROOT
HETATM    1  C   UNL     1     -42.692  55.032 -54.873  1.00  0.00     0.032 C 
HETATM    2  C   UNL     1     -42.178  54.941 -53.628  1.00  0.00     0.043 C 
ENDROOT
BRANCH   2   3
HETATM    3  C   UNL     1     -42.275  55.955 -52.511  1.00  0.00     0.257 C 
HETATM    4  N   UNL     1     -41.565  57.120 -52.705  1.00  0.00    -0.323 N 
HETATM    5  H   UNL     1     -41.018  57.192 -53.550  1.00  0.00     0.169 HD
HETATM    6  O   UNL     1     -42.974  55.704 -51.533  1.00  0.00    -0.267 OA
BRANCH   4   7
HETATM    7  C   UNL     1     -41.476  58.223 -51.830  1.00  0.00     0.037 A 
HETATM    8  C   UNL     1     -40.475  58.382 -50.878  1.00  0.00     0.049 A 
HETATM    9  C   UNL     1     -40.505  59.509 -50.070  1.00  0.00     0.118 A 
HETATM   10  N   UNL     1     -41.443  60.476 -50.158  1.00  0.00    -0.273 NA
HETATM   11  C   UNL     1     -42.400  60.302 -51.091  1.00  0.00     0.118 A 
HETATM   12  C   UNL     1     -42.465  59.202 -51.933  1.00  0.00     0.049 A 
ENDBRANCH   4   7
ENDBRANCH   2   3
BRANCH   2  13
HETATM   13  C   UNL     1     -41.358  53.733 -53.386  1.00  0.00    -0.021 A 
HETATM   14  C   UNL     1     -40.678  53.568 -52.172  1.00  0.00     0.012 A 
HETATM   15  C   UNL     1     -39.869  52.450 -51.965  1.00  0.00     0.001 A 
HETATM   16  C   UNL     1     -39.734  51.491 -52.969  1.00  0.00     0.000 A 
HETATM   17  C   UNL     1     -40.410  51.648 -54.178  1.00  0.00     0.001 A 
HETATM   18  C   UNL     1     -41.219  52.765 -54.390  1.00  0.00     0.012 A 
ENDBRANCH   2  13
BRANCH   1  19
HETATM   19  C   UNL     1     -43.498  56.106 -55.462  1.00  0.00    -0.002 A 
HETATM   20  C   UNL     1     -43.365  56.473 -56.810  1.00  0.00     0.078 A 
HETATM   21  C   UNL     1     -44.182  57.461 -57.363  1.00  0.00     0.037 A 
HETATM   22  C   UNL     1     -45.113  58.120 -56.563  1.00  0.00     0.003 A 
HETATM   23  C   UNL     1     -45.241  57.776 -55.218  1.00  0.00     0.001 A 
HETATM   24  C   UNL     1     -44.440  56.770 -54.671  1.00  0.00     0.014 A 
BRANCH  20  25
HETATM   25  O   UNL     1     -42.538  55.801 -57.672  1.00  0.00    -0.355 OA
HETATM   26  C   UNL     1     -43.000  55.892 -59.020  1.00  0.00     0.210 C 
ENDBRANCH  20  25
ENDBRANCH   1  19
TORSDOF 5
ENDMDL
MODEL 8
REMARK VINA RESULT:      -7.0      2.143      5.008
REMARK  5 active torsions:
REMARK  status: ('A' for Active; 'I' for Inactive)
REMARK    1  A    between atoms: O_2  and  C_3 
REMARK    2  A    between atoms: C_4  and  C_5 
REMARK    3  A    between atoms: C_6  and  C_7 
REMARK    4  A    between atoms: C_6  and  C_16 
REMARK       I    between atoms: C_7  and  N_8 
REMARK    5  A    between atoms: N_8  and  C_9 
ROOT
HETATM    1  C   UNL     1     -42.224  54.762 -55.221  1.00  0.00     0.032 C 
HETATM    2  C   UNL     1     -41.459  55.006 -54.136  1.00  0.00     0.043 C 
ENDROOT
BRANCH   2   3
HETATM    3  C   UNL     1     -41.094  56.347 -53.544  1.00  0.00     0.257 C 
HETATM    4  N   UNL     1     -41.884  56.767 -52.497  1.00  0.00    -0.323 N 
HETATM    5  H   UNL     1     -42.654  56.171 -52.230  1.00  0.00     0.169 HD
HETATM    6  O   UNL     1     -40.133  56.962 -53.999  1.00  0.00    -0.267 OA
BRANCH   4   7
HETATM    7  C   UNL     1     -41.771  57.971 -51.768  1.00  0.00     0.037 A 
HETATM    8  C   UNL     1     -42.384  59.163 -52.136  1.00  0.00     0.049 A 
HETATM    9  C   UNL     1     -42.185  60.281 -51.339  1.00  0.00     0.118 A 
HETATM   10  N   UNL     1     -41.441  60.282 -50.213  1.00  0.00    -0.273 NA
HETATM   11  C   UNL     1     -40.861  59.114 -49.875  1.00  0.00     0.118 A 
HETATM   12  C   UNL     1     -40.985  57.948 -50.615  1.00  0.00     0.049 A 
ENDBRANCH   4   7
ENDBRANCH   2   3
BRANCH   2  13
HETATM   13  C   UNL     1     -40.851  53.801 -53.527  1.00  0.00    -0.021 A 
HETATM   14  C   UNL     1     -40.610  53.748 -52.148  1.00  0.00     0.012 A 
HETATM   15  C   UNL     1     -39.995  52.630 -51.583  1.00  0.00     0.001 A 
HETATM   16  C   UNL     1     -39.619  51.558 -52.392  1.00  0.00     0.000 A 
HETATM   17  C   UNL     1     -39.860  51.602 -53.765  1.00  0.00     0.001 A 
HETATM   18  C   UNL     1     -40.472  52.720 -54.333  1.00  0.00     0.012 A 
ENDBRANCH   2  13
BRANCH   1  19
HETATM   19  C   UNL     1     -42.924  55.714 -56.088  1.00  0.00    -0.002 A 
HETATM   20  C   UNL     1     -43.950  56.539 -55.601  1.00  0.00     0.078 A 
HETATM   21  C   UNL     1     -44.564  57.478 -56.431  1.00  0.00     0.037 A 
HETATM   22  C   UNL     1     -44.188  57.572 -57.769  1.00  0.00     0.003 A 
HETATM   23  C   UNL     1     -43.183  56.745 -58.270  1.00  0.00     0.001 A 
HETATM   24  C   UNL     1     -42.551  55.823 -57.431  1.00  0.00     0.014 A 
BRANCH  20  25
HETATM   25  O   UNL     1     -44.301  56.562 -54.275  1.00  0.00    -0.355 OA
HETATM   26  C   UNL     1     -45.109  57.698 -53.967  1.00  0.00     0.210 C 
ENDBRANCH  20  25
ENDBRANCH   1  19
TORSDOF 5
ENDMDL
MODEL 9
REMARK VINA RESULT:      -6.9      2.139      6.097
REMARK  5 active torsions:
REMARK  status: ('A' for Active; 'I' for Inactive)
REMARK    1  A    between atoms: O_2  and  C_3 
REMARK    2  A    between atoms: C_4  and  C_5 
REMARK    3  A    between atoms: C_6  and  C_7 
REMARK    4  A    between atoms: C_6  and  C_16 
REMARK       I    between atoms: C_7  and  N_8 
REMARK    5  A    between atoms: N_8  and  C_9 
ROOT
HETATM    1  C   UNL     1     -41.922  54.390 -54.567  1.00  0.00     0.032 C 
HETATM    2  C   UNL     1     -41.973  55.721 -54.792  1.00  0.00     0.043 C 
ENDROOT
BRANCH   2   3
HETATM    3  C   UNL     1     -41.429  56.828 -53.919  1.00  0.00     0.257 C 
HETATM    4  N   UNL     1     -42.286  57.289 -52.944  1.00  0.00    -0.323 N 
HETATM    5  H   UNL     1     -43.208  56.881 -52.909  1.00  0.00     0.169 HD
HETATM    6  O   UNL     1     -40.283  57.229 -54.105  1.00  0.00    -0.267 OA
BRANCH   4   7
HETATM    7  C   UNL     1     -42.039  58.310 -52.001  1.00  0.00     0.037 A 
HETATM    8  C   UNL     1     -41.181  58.175 -50.915  1.00  0.00     0.049 A 
HETATM    9  C   UNL     1     -41.033  59.252 -50.054  1.00  0.00     0.118 A 
HETATM   10  N   UNL     1     -41.661  60.436 -50.210  1.00  0.00    -0.273 NA
HETATM   11  C   UNL     1     -42.484  60.544 -51.272  1.00  0.00     0.118 A 
HETATM   12  C   UNL     1     -42.712  59.520 -52.178  1.00  0.00     0.049 A 
ENDBRANCH   4   7
ENDBRANCH   2   3
BRANCH   2  13
HETATM   13  C   UNL     1     -42.731  56.113 -56.001  1.00  0.00    -0.021 A 
HETATM   14  C   UNL     1     -42.764  55.274 -57.122  1.00  0.00     0.012 A 
HETATM   15  C   UNL     1     -43.442  55.667 -58.277  1.00  0.00     0.001 A 
HETATM   16  C   UNL     1     -44.091  56.901 -58.318  1.00  0.00     0.000 A 
HETATM   17  C   UNL     1     -44.065  57.740 -57.204  1.00  0.00     0.001 A 
HETATM   18  C   UNL     1     -43.387  57.351 -56.049  1.00  0.00     0.012 A 
ENDBRANCH   2  13
BRANCH   1  19
HETATM   19  C   UNL     1     -41.308  53.667 -53.450  1.00  0.00    -0.002 A 
HETATM   20  C   UNL     1     -41.773  53.812 -52.132  1.00  0.00     0.078 A 
HETATM   21  C   UNL     1     -41.209  53.070 -51.093  1.00  0.00     0.037 A 
HETATM   22  C   UNL     1     -40.147  52.207 -51.353  1.00  0.00     0.003 A 
HETATM   23  C   UNL     1     -39.665  52.069 -52.654  1.00  0.00     0.001 A 
HETATM   24  C   UNL     1     -40.246  52.792 -53.698  1.00  0.00     0.014 A 
BRANCH  20  25
HETATM   25  O   UNL     1     -42.873  54.571 -51.826  1.00  0.00    -0.355 OA
HETATM   26  C   UNL     1     -42.995  54.770 -50.417  1.00  0.00     0.210 C 
ENDBRANCH  20  25
ENDBRANCH   1  19
TORSDOF 5
ENDMDL
MODEL 10
REMARK VINA RESULT:      -6.9      2.246      5.085
REMARK  5 active torsions:
REMARK  status: ('A' for Active; 'I' for Inactive)
REMARK    1  A    between atoms: O_2  and  C_3 
REMARK    2  A    between atoms: C_4  and  C_5 
REMARK    3  A    between atoms: C_6  and  C_7 
REMARK    4  A    between atoms: C_6  and  C_16 
REMARK       I    between atoms: C_7  and  N_8 
REMARK    5  A    between atoms: N_8  and  C_9 
ROOT
HETATM    1  C   UNL     1     -42.186  55.101 -56.167  1.00  0.00     0.032 C 
HETATM    2  C   UNL     1     -42.536  54.988 -54.867  1.00  0.00     0.043 C 
ENDROOT
BRANCH   2   3
HETATM    3  C   UNL     1     -43.653  55.706 -54.145  1.00  0.00     0.257 C 
HETATM    4  N   UNL     1     -43.327  56.940 -53.627  1.00  0.00    -0.323 N 
HETATM    5  H   UNL     1     -42.373  57.251 -53.740  1.00  0.00     0.169 HD
HETATM    6  O   UNL     1     -44.760  55.178 -54.078  1.00  0.00    -0.267 OA
BRANCH   4   7
HETATM    7  C   UNL     1     -44.168  57.817 -52.909  1.00  0.00     0.037 A 
HETATM    8  C   UNL     1     -44.513  57.643 -51.573  1.00  0.00     0.049 A 
HETATM    9  C   UNL     1     -45.358  58.571 -50.984  1.00  0.00     0.118 A 
HETATM   10  N   UNL     1     -45.860  59.648 -51.624  1.00  0.00    -0.273 NA
HETATM   11  C   UNL     1     -45.508  59.797 -52.916  1.00  0.00     0.118 A 
HETATM   12  C   UNL     1     -44.684  58.915 -53.598  1.00  0.00     0.049 A 
ENDBRANCH   4   7
ENDBRANCH   2   3
BRANCH   2  13
HETATM   13  C   UNL     1     -41.651  54.116 -54.063  1.00  0.00    -0.021 A 
HETATM   14  C   UNL     1     -40.796  53.201 -54.691  1.00  0.00     0.012 A 
HETATM   15  C   UNL     1     -39.995  52.349 -53.929  1.00  0.00     0.001 A 
HETATM   16  C   UNL     1     -40.044  52.406 -52.536  1.00  0.00     0.000 A 
HETATM   17  C   UNL     1     -40.890  53.318 -51.905  1.00  0.00     0.001 A 
HETATM   18  C   UNL     1     -41.693  54.170 -52.664  1.00  0.00     0.012 A 
ENDBRANCH   2  13
BRANCH   1  19
HETATM   19  C   UNL     1     -42.803  55.912 -57.220  1.00  0.00    -0.002 A 
HETATM   20  C   UNL     1     -42.766  57.315 -57.188  1.00  0.00     0.078 A 
HETATM   21  C   UNL     1     -43.311  58.066 -58.232  1.00  0.00     0.037 A 
HETATM   22  C   UNL     1     -43.935  57.421 -59.298  1.00  0.00     0.003 A 
HETATM   23  C   UNL     1     -43.994  56.029 -59.331  1.00  0.00     0.001 A 
HETATM   24  C   UNL     1     -43.426  55.277 -58.299  1.00  0.00     0.014 A 
BRANCH  20  25
HETATM   25  O   UNL     1     -42.086  58.005 -56.219  1.00  0.00    -0.355 OA
HETATM   26  C   UNL     1     -42.233  59.417 -56.381  1.00  0.00     0.210 C 
ENDBRANCH  20  25
ENDBRANCH   1  19
TORSDOF 5
ENDMDL
