MODEL 1
REMARK VINA RESULT:      -7.5      0.000      0.000
REMARK  3 active torsions:
REMARK  status: ('A' for Active; 'I' for Inactive)
REMARK    1  A    between atoms: C_3  and  N_4 
REMARK       I    between atoms: N_4  and  C_5 
REMARK    2  A    between atoms: C_5  and  C_6 
REMARK    3  A    between atoms: C_9  and  N_10 
REMARK       I    between atoms: N_10  and  C_11 
ROOT
HETATM    1  N   UNL     1     -41.047  55.168 -52.458  1.00  0.00    -0.321 N 
HETATM    2  C   UNL     1     -42.361  55.605 -52.449  1.00  0.00     0.256 C 
HETATM    3  O   UNL     1     -43.340  54.953 -52.790  1.00  0.00    -0.267 OA
HETATM    4  H   UNL     1     -40.425  55.698 -51.870  1.00  0.00     0.169 HD
ENDROOT
BRANCH   2   5
HETATM    5  C   UNL     1     -42.604  56.961 -51.852  1.00  0.00     0.032 A 
HETATM    6  C   UNL     1     -43.870  57.547 -51.735  1.00  0.00     0.019 A 
HETATM    7  C   UNL     1     -44.005  58.860 -51.257  1.00  0.00     0.030 A 
HETATM    8  C   UNL     1     -42.886  59.598 -50.868  1.00  0.00     0.034 A 
HETATM    9  C   UNL     1     -41.628  58.992 -50.926  1.00  0.00     0.030 A 
HETATM   10  C   UNL     1     -41.488  57.689 -51.416  1.00  0.00     0.019 A 
BRANCH   8  11
HETATM   11  N   UNL     1     -42.932  60.936 -50.427  1.00  0.00    -0.328 N 
HETATM   12  C   UNL     1     -43.020  62.076 -51.207  1.00  0.00     0.218 C 
HETATM   13  C   UNL     1     -42.983  63.331 -50.372  1.00  0.00     0.117 C 
HETATM   14  O   UNL     1     -43.117  62.130 -52.428  1.00  0.00    -0.274 OA
HETATM   15  H   UNL     1     -42.841  61.079 -49.429  1.00  0.00     0.169 HD
ENDBRANCH   8  11
ENDBRANCH   2   5
BRANCH   1  16
HETATM   16  C   UNL     1     -40.570  53.871 -52.811  1.00  0.00     0.065 C 
HETATM   17  C   UNL     1     -40.461  53.369 -54.119  1.00  0.00    -0.031 C 
HETATM   18  C   UNL     1     -40.628  54.174 -55.378  1.00  0.00     0.050 C 
HETATM   19  C   UNL     1     -40.123  52.013 -54.294  1.00  0.00     0.035 C 
HETATM   20  C   UNL     1     -39.819  51.223 -53.197  1.00  0.00     0.031 C 
HETATM   21  N   UNL     1     -39.803  51.714 -51.945  1.00  0.00    -0.256 NA
HETATM   22  C   UNL     1     -39.494  49.770 -53.374  1.00  0.00     0.070 C 
HETATM   23  C   UNL     1     -40.163  53.013 -51.763  1.00  0.00     0.058 C 
HETATM   24  C   UNL     1     -40.118  53.462 -50.329  1.00  0.00     0.073 C 
ENDBRANCH   1  16
TORSDOF 3
ENDMDL
MODEL 2
REMARK VINA RESULT:      -7.2      2.066      8.418
REMARK  3 active torsions:
REMARK  status: ('A' for Active; 'I' for Inactive)
REMARK    1  A    between atoms: C_3  and  N_4 
REMARK       I    between atoms: N_4  and  C_5 
REMARK    2  A    between atoms: C_5  and  C_6 
REMARK    3  A    between atoms: C_9  and  N_10 
REMARK       I    between atoms: N_10  and  C_11 
ROOT
HETATM    1  N   UNL     1     -42.506  57.727 -52.223  1.00  0.00    -0.321 N 
HETATM    2  C   UNL     1     -41.713  57.414 -53.313  1.00  0.00     0.256 C 
HETATM    3  O   UNL     1     -41.090  58.211 -54.005  1.00  0.00    -0.267 OA
HETATM    4  H   UNL     1     -42.684  56.957 -51.599  1.00  0.00     0.169 HD
ENDROOT
BRANCH   2   5
HETATM    5  C   UNL     1     -41.512  55.952 -53.589  1.00  0.00     0.032 A 
HETATM    6  C   UNL     1     -42.144  54.928 -52.874  1.00  0.00     0.019 A 
HETATM    7  C   UNL     1     -41.826  53.584 -53.126  1.00  0.00     0.030 A 
HETATM    8  C   UNL     1     -40.896  53.240 -54.109  1.00  0.00     0.034 A 
HETATM    9  C   UNL     1     -40.311  54.260 -54.866  1.00  0.00     0.030 A 
HETATM   10  C   UNL     1     -40.613  55.601 -54.607  1.00  0.00     0.019 A 
BRANCH   8  11
HETATM   11  N   UNL     1     -40.486  51.921 -54.386  1.00  0.00    -0.328 N 
HETATM   12  C   UNL     1     -39.705  51.098 -53.594  1.00  0.00     0.218 C 
HETATM   13  C   UNL     1     -39.430  49.774 -54.261  1.00  0.00     0.117 C 
HETATM   14  O   UNL     1     -39.260  51.351 -52.480  1.00  0.00    -0.274 OA
HETATM   15  H   UNL     1     -40.754  51.554 -55.291  1.00  0.00     0.169 HD
ENDBRANCH   8  11
ENDBRANCH   2   5
BRANCH   1  16
HETATM   16  C   UNL     1     -42.720  59.016 -51.651  1.00  0.00     0.065 C 
HETATM   17  C   UNL     1     -41.822  59.698 -50.813  1.00  0.00    -0.031 C 
HETATM   18  C   UNL     1     -40.401  59.286 -50.541  1.00  0.00     0.050 C 
HETATM   19  C   UNL     1     -42.246  60.892 -50.200  1.00  0.00     0.035 C 
HETATM   20  C   UNL     1     -43.491  61.424 -50.495  1.00  0.00     0.031 C 
HETATM   21  N   UNL     1     -44.321  60.848 -51.384  1.00  0.00    -0.256 NA
HETATM   22  C   UNL     1     -43.963  62.675 -49.819  1.00  0.00     0.070 C 
HETATM   23  C   UNL     1     -43.934  59.676 -51.953  1.00  0.00     0.058 C 
HETATM   24  C   UNL     1     -44.933  59.114 -52.928  1.00  0.00     0.073 C 
ENDBRANCH   1  16
TORSDOF 3
ENDMDL
MODEL 3
REMARK VINA RESULT:      -7.2      1.201      2.320
REMARK  3 active torsions:
REMARK  status: ('A' for Active; 'I' for Inactive)
REMARK    1  A    between atoms: C_3  and  N_4 
REMARK       I    between atoms: N_4  and  C_5 
REMARK    2  A    between atoms: C_5  and  C_6 
REMARK    3  A    between atoms: C_9  and  N_10 
REMARK       I    between atoms: N_10  and  C_11 
ROOT
HETATM    1  N   UNL     1     -40.940  55.283 -52.545  1.00  0.00    -0.321 N 
HETATM    2  C   UNL     1     -42.094  55.782 -51.964  1.00  0.00     0.256 C 
HETATM    3  O   UNL     1     -43.066  55.125 -51.610  1.00  0.00    -0.267 OA
HETATM    4  H   UNL     1     -40.142  55.894 -52.486  1.00  0.00     0.169 HD
ENDROOT
BRANCH   2   5
HETATM    5  C   UNL     1     -42.090  57.247 -51.636  1.00  0.00     0.032 A 
HETATM    6  C   UNL     1     -41.167  57.852 -50.775  1.00  0.00     0.019 A 
HETATM    7  C   UNL     1     -41.292  59.210 -50.440  1.00  0.00     0.030 A 
HETATM    8  C   UNL     1     -42.320  59.988 -50.974  1.00  0.00     0.034 A 
HETATM    9  C   UNL     1     -43.205  59.399 -51.883  1.00  0.00     0.030 A 
HETATM   10  C   UNL     1     -43.094  58.043 -52.207  1.00  0.00     0.019 A 
BRANCH   8  11
HETATM   11  N   UNL     1     -42.543  61.340 -50.648  1.00  0.00    -0.328 N 
HETATM   12  C   UNL     1     -43.542  61.858 -49.842  1.00  0.00     0.218 C 
HETATM   13  C   UNL     1     -43.489  63.364 -49.781  1.00  0.00     0.117 C 
HETATM   14  O   UNL     1     -44.393  61.228 -49.225  1.00  0.00    -0.274 OA
HETATM   15  H   UNL     1     -41.932  62.012 -51.096  1.00  0.00     0.169 HD
ENDBRANCH   8  11
ENDBRANCH   2   5
BRANCH   1  16
HETATM   16  C   UNL     1     -40.623  53.916 -52.801  1.00  0.00     0.065 C 
HETATM   17  C   UNL     1     -40.181  52.987 -51.844  1.00  0.00    -0.031 C 
HETATM   18  C   UNL     1     -40.164  53.209 -50.357  1.00  0.00     0.050 C 
HETATM   19  C   UNL     1     -39.757  51.718 -52.283  1.00  0.00     0.035 C 
HETATM   20  C   UNL     1     -39.861  51.371 -53.621  1.00  0.00     0.031 C 
HETATM   21  N   UNL     1     -40.391  52.204 -54.535  1.00  0.00    -0.256 NA
HETATM   22  C   UNL     1     -39.378  50.036 -54.100  1.00  0.00     0.070 C 
HETATM   23  C   UNL     1     -40.770  53.444 -54.126  1.00  0.00     0.058 C 
HETATM   24  C   UNL     1     -41.344  54.298 -55.224  1.00  0.00     0.073 C 
ENDBRANCH   1  16
TORSDOF 3
ENDMDL
MODEL 4
REMARK VINA RESULT:      -7.2      1.911      8.306
REMARK  3 active torsions:
REMARK  status: ('A' for Active; 'I' for Inactive)
REMARK    1  A    between atoms: C_3  and  N_4 
REMARK       I    between atoms: N_4  and  C_5 
REMARK    2  A    between atoms: C_5  and  C_6 
REMARK    3  A    between atoms: C_9  and  N_10 
REMARK       I    between atoms: N_10  and  C_11 
ROOT
HETATM    1  N   UNL     1     -42.291  57.414 -51.972  1.00  0.00    -0.321 N 
HETATM    2  C   UNL     1     -41.842  57.201 -53.264  1.00  0.00     0.256 C 
HETATM    3  O   UNL     1     -41.739  58.051 -54.141  1.00  0.00    -0.267 OA
HETATM    4  H   UNL     1     -42.024  56.702 -51.312  1.00  0.00     0.169 HD
ENDROOT
BRANCH   2   5
HETATM    5  C   UNL     1     -41.325  55.825 -53.569  1.00  0.00     0.032 A 
HETATM    6  C   UNL     1     -40.547  55.513 -54.690  1.00  0.00     0.019 A 
HETATM    7  C   UNL     1     -40.187  54.183 -54.958  1.00  0.00     0.030 A 
HETATM    8  C   UNL     1     -40.575  53.150 -54.103  1.00  0.00     0.034 A 
HETATM    9  C   UNL     1     -41.299  53.469 -52.950  1.00  0.00     0.030 A 
HETATM   10  C   UNL     1     -41.673  54.791 -52.688  1.00  0.00     0.019 A 
BRANCH   8  11
HETATM   11  N   UNL     1     -40.298  51.787 -54.328  1.00  0.00    -0.328 N 
HETATM   12  C   UNL     1     -39.623  50.916 -53.492  1.00  0.00     0.218 C 
HETATM   13  C   UNL     1     -39.473  49.548 -54.110  1.00  0.00     0.117 C 
HETATM   14  O   UNL     1     -39.176  51.159 -52.377  1.00  0.00    -0.274 OA
HETATM   15  H   UNL     1     -40.585  51.418 -55.227  1.00  0.00     0.169 HD
ENDBRANCH   8  11
ENDBRANCH   2   5
BRANCH   1  16
HETATM   16  C   UNL     1     -42.672  58.655 -51.383  1.00  0.00     0.065 C 
HETATM   17  C   UNL     1     -43.991  59.117 -51.232  1.00  0.00    -0.031 C 
HETATM   18  C   UNL     1     -45.232  58.303 -51.474  1.00  0.00     0.050 C 
HETATM   19  C   UNL     1     -44.196  60.433 -50.777  1.00  0.00     0.035 C 
HETATM   20  C   UNL     1     -43.117  61.218 -50.400  1.00  0.00     0.031 C 
HETATM   21  N   UNL     1     -41.854  60.754 -50.425  1.00  0.00    -0.256 NA
HETATM   22  C   UNL     1     -43.326  62.632 -49.948  1.00  0.00     0.070 C 
HETATM   23  C   UNL     1     -41.644  59.497 -50.898  1.00  0.00     0.058 C 
HETATM   24  C   UNL     1     -40.200  59.077 -50.889  1.00  0.00     0.073 C 
ENDBRANCH   1  16
TORSDOF 3
ENDMDL
MODEL 5
REMARK VINA RESULT:      -7.1     15.968     17.668
REMARK  3 active torsions:
REMARK  status: ('A' for Active; 'I' for Inactive)
REMARK    1  A    between atoms: C_3  and  N_4 
REMARK       I    between atoms: N_4  and  C_5 
REMARK    2  A    between atoms: C_5  and  C_6 
REMARK    3  A    between atoms: C_9  and  N_10 
REMARK       I    between atoms: N_10  and  C_11 
ROOT
HETATM    1  N   UNL     1     -34.921  40.258 -52.759  1.00  0.00    -0.321 N 
HETATM    2  C   UNL     1     -35.329  41.524 -53.142  1.00  0.00     0.256 C 
HETATM    3  O   UNL     1     -35.371  42.516 -52.424  1.00  0.00    -0.267 OA
HETATM    4  H   UNL     1     -34.656  39.654 -53.520  1.00  0.00     0.169 HD
ENDROOT
BRANCH   2   5
HETATM    5  C   UNL     1     -35.632  41.710 -54.601  1.00  0.00     0.032 A 
HETATM    6  C   UNL     1     -34.652  41.788 -55.598  1.00  0.00     0.019 A 
HETATM    7  C   UNL     1     -35.011  42.063 -56.927  1.00  0.00     0.030 A 
HETATM    8  C   UNL     1     -36.348  42.242 -57.285  1.00  0.00     0.034 A 
HETATM    9  C   UNL     1     -37.331  42.102 -56.302  1.00  0.00     0.030 A 
HETATM   10  C   UNL     1     -36.977  41.843 -54.973  1.00  0.00     0.019 A 
BRANCH   8  11
HETATM   11  N   UNL     1     -36.784  42.571 -58.584  1.00  0.00    -0.328 N 
HETATM   12  C   UNL     1     -37.219  41.704 -59.571  1.00  0.00     0.218 C 
HETATM   13  C   UNL     1     -37.546  42.431 -60.852  1.00  0.00     0.117 C 
HETATM   14  O   UNL     1     -37.345  40.488 -59.483  1.00  0.00    -0.274 OA
HETATM   15  H   UNL     1     -36.726  43.550 -58.837  1.00  0.00     0.169 HD
ENDBRANCH   8  11
ENDBRANCH   2   5
BRANCH   1  16
HETATM   16  C   UNL     1     -34.422  39.859 -51.485  1.00  0.00     0.065 C 
HETATM   17  C   UNL     1     -33.081  39.939 -51.071  1.00  0.00    -0.031 C 
HETATM   18  C   UNL     1     -31.980  40.644 -51.814  1.00  0.00     0.050 C 
HETATM   19  C   UNL     1     -32.719  39.357 -49.841  1.00  0.00     0.035 C 
HETATM   20  C   UNL     1     -33.688  38.801 -49.020  1.00  0.00     0.031 C 
HETATM   21  N   UNL     1     -34.994  38.819 -49.344  1.00  0.00    -0.256 NA
HETATM   22  C   UNL     1     -33.305  38.149 -47.726  1.00  0.00     0.070 C 
HETATM   23  C   UNL     1     -35.347  39.346 -50.546  1.00  0.00     0.058 C 
HETATM   24  C   UNL     1     -36.827  39.314 -50.814  1.00  0.00     0.073 C 
ENDBRANCH   1  16
TORSDOF 3
ENDMDL
MODEL 6
REMARK VINA RESULT:      -7.0      3.763      5.828
REMARK  3 active torsions:
REMARK  status: ('A' for Active; 'I' for Inactive)
REMARK    1  A    between atoms: C_3  and  N_4 
REMARK       I    between atoms: N_4  and  C_5 
REMARK    2  A    between atoms: C_5  and  C_6 
REMARK    3  A    between atoms: C_9  and  N_10 
REMARK       I    between atoms: N_10  and  C_11 
ROOT
HETATM    1  N   UNL     1     -41.297  55.202 -53.274  1.00  0.00    -0.321 N 
HETATM    2  C   UNL     1     -42.506  55.047 -53.931  1.00  0.00     0.256 C 
HETATM    3  O   UNL     1     -43.486  54.446 -53.507  1.00  0.00    -0.267 OA
HETATM    4  H   UNL     1     -40.730  55.962 -53.611  1.00  0.00     0.169 HD
ENDROOT
BRANCH   2   5
HETATM    5  C   UNL     1     -42.655  55.789 -55.227  1.00  0.00     0.032 A 
HETATM    6  C   UNL     1     -42.975  55.177 -56.445  1.00  0.00     0.019 A 
HETATM    7  C   UNL     1     -42.998  55.926 -57.633  1.00  0.00     0.030 A 
HETATM    8  C   UNL     1     -42.727  57.295 -57.621  1.00  0.00     0.034 A 
HETATM    9  C   UNL     1     -42.470  57.918 -56.397  1.00  0.00     0.030 A 
HETATM   10  C   UNL     1     -42.430  57.173 -55.213  1.00  0.00     0.019 A 
BRANCH   8  11
HETATM   11  N   UNL     1     -42.680  58.104 -58.774  1.00  0.00    -0.328 N 
HETATM   12  C   UNL     1     -42.192  57.762 -60.022  1.00  0.00     0.218 C 
HETATM   13  C   UNL     1     -42.257  58.920 -60.986  1.00  0.00     0.117 C 
HETATM   14  O   UNL     1     -41.748  56.674 -60.369  1.00  0.00    -0.274 OA
HETATM   15  H   UNL     1     -42.995  59.060 -58.659  1.00  0.00     0.169 HD
ENDBRANCH   8  11
ENDBRANCH   2   5
BRANCH   1  16
HETATM   16  C   UNL     1     -40.961  54.747 -51.965  1.00  0.00     0.065 C 
HETATM   17  C   UNL     1     -40.497  53.460 -51.641  1.00  0.00    -0.031 C 
HETATM   18  C   UNL     1     -40.080  52.409 -52.632  1.00  0.00     0.050 C 
HETATM   19  C   UNL     1     -40.361  53.115 -50.283  1.00  0.00     0.035 C 
HETATM   20  C   UNL     1     -40.594  54.059 -49.296  1.00  0.00     0.031 C 
HETATM   21  N   UNL     1     -40.924  55.331 -49.588  1.00  0.00    -0.256 NA
HETATM   22  C   UNL     1     -40.485  53.689 -47.848  1.00  0.00     0.070 C 
HETATM   23  C   UNL     1     -41.093  55.663 -50.895  1.00  0.00     0.058 C 
HETATM   24  C   UNL     1     -41.466  57.103 -51.114  1.00  0.00     0.073 C 
ENDBRANCH   1  16
TORSDOF 3
ENDMDL
MODEL 7
REMARK VINA RESULT:      -7.0      2.028      2.648
REMARK  3 active torsions:
REMARK  status: ('A' for Active; 'I' for Inactive)
REMARK    1  A    between atoms: C_3  and  N_4 
REMARK       I    between atoms: N_4  and  C_5 
REMARK    2  A    between atoms: C_5  and  C_6 
REMARK    3  A    between atoms: C_9  and  N_10 
REMARK       I    between atoms: N_10  and  C_11 
ROOT
HETATM    1  N   UNL     1     -42.057  55.204 -51.929  1.00  0.00    -0.321 N 
HETATM    2  C   UNL     1     -41.707  56.502 -52.258  1.00  0.00     0.256 C 
HETATM    3  O   UNL     1     -40.779  56.838 -52.984  1.00  0.00    -0.267 OA
HETATM    4  H   UNL     1     -42.999  55.096 -51.591  1.00  0.00     0.169 HD
ENDROOT
BRANCH   2   5
HETATM    5  C   UNL     1     -42.630  57.581 -51.769  1.00  0.00     0.032 A 
HETATM    6  C   UNL     1     -44.023  57.456 -51.723  1.00  0.00     0.019 A 
HETATM    7  C   UNL     1     -44.823  58.547 -51.348  1.00  0.00     0.030 A 
HETATM    8  C   UNL     1     -44.247  59.767 -50.989  1.00  0.00     0.034 A 
HETATM    9  C   UNL     1     -42.853  59.873 -50.974  1.00  0.00     0.030 A 
HETATM   10  C   UNL     1     -42.053  58.794 -51.363  1.00  0.00     0.019 A 
BRANCH   8  11
HETATM   11  N   UNL     1     -44.981  60.922 -50.651  1.00  0.00    -0.328 N 
HETATM   12  C   UNL     1     -45.716  61.144 -49.500  1.00  0.00     0.218 C 
HETATM   13  C   UNL     1     -46.412  62.482 -49.528  1.00  0.00     0.117 C 
HETATM   14  O   UNL     1     -45.831  60.391 -48.540  1.00  0.00    -0.274 OA
HETATM   15  H   UNL     1     -45.011  61.651 -51.353  1.00  0.00     0.169 HD
ENDBRANCH   8  11
ENDBRANCH   2   5
BRANCH   1  16
HETATM   16  C   UNL     1     -41.454  54.001 -52.400  1.00  0.00     0.065 C 
HETATM   17  C   UNL     1     -40.492  53.243 -51.709  1.00  0.00    -0.031 C 
HETATM   18  C   UNL     1     -40.086  53.451 -50.276  1.00  0.00     0.050 C 
HETATM   19  C   UNL     1     -39.876  52.168 -52.376  1.00  0.00     0.035 C 
HETATM   20  C   UNL     1     -40.280  51.814 -53.653  1.00  0.00     0.031 C 
HETATM   21  N   UNL     1     -41.280  52.453 -54.288  1.00  0.00    -0.256 NA
HETATM   22  C   UNL     1     -39.603  50.693 -54.382  1.00  0.00     0.070 C 
HETATM   23  C   UNL     1     -41.856  53.515 -53.666  1.00  0.00     0.058 C 
HETATM   24  C   UNL     1     -42.958  54.161 -54.461  1.00  0.00     0.073 C 
ENDBRANCH   1  16
TORSDOF 3
ENDMDL
MODEL 8
REMARK VINA RESULT:      -7.0     16.150     17.744
REMARK  3 active torsions:
REMARK  status: ('A' for Active; 'I' for Inactive)
REMARK    1  A    between atoms: C_3  and  N_4 
REMARK       I    between atoms: N_4  and  C_5 
REMARK    2  A    between atoms: C_5  and  C_6 
REMARK    3  A    between atoms: C_9  and  N_10 
REMARK       I    between atoms: N_10  and  C_11 
ROOT
HETATM    1  N   UNL     1     -34.792  40.432 -52.714  1.00  0.00    -0.321 N 
HETATM    2  C   UNL     1     -35.349  41.665 -53.008  1.00  0.00     0.256 C 
HETATM    3  O   UNL     1     -35.319  42.659 -52.293  1.00  0.00    -0.267 OA
HETATM    4  H   UNL     1     -34.637  39.840 -53.514  1.00  0.00     0.169 HD
ENDROOT
BRANCH   2   5
HETATM    5  C   UNL     1     -35.936  41.817 -54.382  1.00  0.00     0.032 A 
HETATM    6  C   UNL     1     -37.267  41.521 -54.699  1.00  0.00     0.019 A 
HETATM    7  C   UNL     1     -37.715  41.593 -56.028  1.00  0.00     0.030 A 
HETATM    8  C   UNL     1     -36.851  41.983 -57.053  1.00  0.00     0.034 A 
HETATM    9  C   UNL     1     -35.539  42.338 -56.728  1.00  0.00     0.030 A 
HETATM   10  C   UNL     1     -35.085  42.253 -55.408  1.00  0.00     0.019 A 
BRANCH   8  11
HETATM   11  N   UNL     1     -37.208  42.031 -58.416  1.00  0.00    -0.328 N 
HETATM   12  C   UNL     1     -37.096  41.017 -59.351  1.00  0.00     0.218 C 
HETATM   13  C   UNL     1     -37.527  41.470 -60.724  1.00  0.00     0.117 C 
HETATM   14  O   UNL     1     -36.703  39.873 -59.157  1.00  0.00    -0.274 OA
HETATM   15  H   UNL     1     -37.539  42.925 -58.758  1.00  0.00     0.169 HD
ENDBRANCH   8  11
ENDBRANCH   2   5
BRANCH   1  16
HETATM   16  C   UNL     1     -34.033  40.080 -51.560  1.00  0.00     0.065 C 
HETATM   17  C   UNL     1     -34.566  39.701 -50.316  1.00  0.00    -0.031 C 
HETATM   18  C   UNL     1     -36.014  39.401 -50.044  1.00  0.00     0.050 C 
HETATM   19  C   UNL     1     -33.688  39.538 -49.228  1.00  0.00     0.035 C 
HETATM   20  C   UNL     1     -32.320  39.662 -49.410  1.00  0.00     0.031 C 
HETATM   21  N   UNL     1     -31.780  39.909 -50.618  1.00  0.00    -0.256 NA
HETATM   22  C   UNL     1     -31.381  39.526 -48.249  1.00  0.00     0.070 C 
HETATM   23  C   UNL     1     -32.623  40.104 -51.667  1.00  0.00     0.058 C 
HETATM   24  C   UNL     1     -31.921  40.377 -52.969  1.00  0.00     0.073 C 
ENDBRANCH   1  16
TORSDOF 3
ENDMDL
MODEL 9
REMARK VINA RESULT:      -6.9      2.198      2.569
REMARK  3 active torsions:
REMARK  status: ('A' for Active; 'I' for Inactive)
REMARK    1  A    between atoms: C_3  and  N_4 
REMARK       I    between atoms: N_4  and  C_5 
REMARK    2  A    between atoms: C_5  and  C_6 
REMARK    3  A    between atoms: C_9  and  N_10 
REMARK       I    between atoms: N_10  and  C_11 
ROOT
HETATM    1  N   UNL     1     -41.875  55.183 -52.735  1.00  0.00    -0.321 N 
HETATM    2  C   UNL     1     -43.101  55.271 -53.371  1.00  0.00     0.256 C 
HETATM    3  O   UNL     1     -43.738  54.337 -53.843  1.00  0.00    -0.267 OA
HETATM    4  H   UNL     1     -41.648  55.971 -52.150  1.00  0.00     0.169 HD
ENDROOT
BRANCH   2   5
HETATM    5  C   UNL     1     -43.752  56.624 -53.372  1.00  0.00     0.032 A 
HETATM    6  C   UNL     1     -43.867  57.436 -52.238  1.00  0.00     0.019 A 
HETATM    7  C   UNL     1     -44.579  58.645 -52.297  1.00  0.00     0.030 A 
HETATM    8  C   UNL     1     -45.164  59.073 -53.490  1.00  0.00     0.034 A 
HETATM    9  C   UNL     1     -44.996  58.293 -54.638  1.00  0.00     0.030 A 
HETATM   10  C   UNL     1     -44.301  57.080 -54.579  1.00  0.00     0.019 A 
BRANCH   8  11
HETATM   11  N   UNL     1     -45.936  60.244 -53.620  1.00  0.00    -0.328 N 
HETATM   12  C   UNL     1     -45.479  61.546 -53.725  1.00  0.00     0.218 C 
HETATM   13  C   UNL     1     -46.615  62.536 -53.787  1.00  0.00     0.117 C 
HETATM   14  O   UNL     1     -44.312  61.918 -53.768  1.00  0.00    -0.274 OA
HETATM   15  H   UNL     1     -46.941  60.121 -53.582  1.00  0.00     0.169 HD
ENDBRANCH   8  11
ENDBRANCH   2   5
BRANCH   1  16
HETATM   16  C   UNL     1     -41.132  54.000 -52.450  1.00  0.00     0.065 C 
HETATM   17  C   UNL     1     -40.456  53.212 -53.398  1.00  0.00    -0.031 C 
HETATM   18  C   UNL     1     -40.224  53.587 -54.836  1.00  0.00     0.050 C 
HETATM   19  C   UNL     1     -39.901  51.987 -52.983  1.00  0.00     0.035 C 
HETATM   20  C   UNL     1     -39.946  51.617 -51.648  1.00  0.00     0.031 C 
HETATM   21  N   UNL     1     -40.485  52.411 -50.705  1.00  0.00    -0.256 NA
HETATM   22  C   UNL     1     -39.390  50.297 -51.205  1.00  0.00     0.070 C 
HETATM   23  C   UNL     1     -41.055  53.579 -51.102  1.00  0.00     0.058 C 
HETATM   24  C   UNL     1     -41.632  54.389 -49.974  1.00  0.00     0.073 C 
ENDBRANCH   1  16
TORSDOF 3
ENDMDL
MODEL 10
REMARK VINA RESULT:      -6.8      2.463      8.581
REMARK  3 active torsions:
REMARK  status: ('A' for Active; 'I' for Inactive)
REMARK    1  A    between atoms: C_3  and  N_4 
REMARK       I    between atoms: N_4  and  C_5 
REMARK    2  A    between atoms: C_5  and  C_6 
REMARK    3  A    between atoms: C_9  and  N_10 
REMARK       I    between atoms: N_10  and  C_11 
ROOT
HETATM    1  N   UNL     1     -41.741  58.372 -53.148  1.00  0.00    -0.321 N 
HETATM    2  C   UNL     1     -42.489  57.232 -52.906  1.00  0.00     0.256 C 
HETATM    3  O   UNL     1     -43.647  57.200 -52.509  1.00  0.00    -0.267 OA
HETATM    4  H   UNL     1     -40.945  58.232 -53.749  1.00  0.00     0.169 HD
ENDROOT
BRANCH   2   5
HETATM    5  C   UNL     1     -41.849  55.927 -53.282  1.00  0.00     0.032 A 
HETATM    6  C   UNL     1     -40.819  55.805 -54.223  1.00  0.00     0.019 A 
HETATM    7  C   UNL     1     -40.342  54.538 -54.594  1.00  0.00     0.030 A 
HETATM    8  C   UNL     1     -40.864  53.379 -54.017  1.00  0.00     0.034 A 
HETATM    9  C   UNL     1     -41.848  53.504 -53.032  1.00  0.00     0.030 A 
HETATM   10  C   UNL     1     -42.338  54.764 -52.671  1.00  0.00     0.019 A 
BRANCH   8  11
HETATM   11  N   UNL     1     -40.477  52.072 -54.372  1.00  0.00    -0.328 N 
HETATM   12  C   UNL     1     -39.701  51.194 -53.634  1.00  0.00     0.218 C 
HETATM   13  C   UNL     1     -39.451  49.906 -54.377  1.00  0.00     0.117 C 
HETATM   14  O   UNL     1     -39.242  51.378 -52.512  1.00  0.00    -0.274 OA
HETATM   15  H   UNL     1     -40.758  51.759 -55.293  1.00  0.00     0.169 HD
ENDBRANCH   8  11
ENDBRANCH   2   5
BRANCH   1  16
HETATM   16  C   UNL     1     -42.171  59.727 -53.038  1.00  0.00     0.065 C 
HETATM   17  C   UNL     1     -42.364  60.429 -51.836  1.00  0.00    -0.031 C 
HETATM   18  C   UNL     1     -41.955  59.946 -50.471  1.00  0.00     0.050 C 
HETATM   19  C   UNL     1     -42.944  61.710 -51.888  1.00  0.00     0.035 C 
HETATM   20  C   UNL     1     -43.232  62.296 -53.111  1.00  0.00     0.031 C 
HETATM   21  N   UNL     1     -42.947  61.690 -54.278  1.00  0.00    -0.256 NA
HETATM   22  C   UNL     1     -43.883  63.644 -53.173  1.00  0.00     0.070 C 
HETATM   23  C   UNL     1     -42.420  60.437 -54.236  1.00  0.00     0.058 C 
HETATM   24  C   UNL     1     -42.143  59.847 -55.591  1.00  0.00     0.073 C 
ENDBRANCH   1  16
TORSDOF 3
ENDMDL
