MODEL 1
REMARK VINA RESULT:      -8.1      0.000      0.000
REMARK  11 active torsions:
REMARK  status: ('A' for Active; 'I' for Inactive)
REMARK    1  A    between atoms: C_4  and  C_5 
REMARK    2  A    between atoms: C_7  and  O_8 
REMARK    3  A    between atoms: C_10  and  O_11 
REMARK    4  A    between atoms: C_16  and  C_17 
REMARK    5  A    between atoms: C_20  and  C_21 
REMARK    6  A    between atoms: C_21  and  N_22 
REMARK    7  A    between atoms: N_22  and  C_23 
REMARK    8  A    between atoms: C_23  and  N_24 
REMARK    9  A    between atoms: N_24  and  C_25 
REMARK   10  A    between atoms: C_27  and  O_28 
REMARK   11  A    between atoms: C_31  and  O_32 
ROOT
HETATM    1  C   UNL     1     -43.410  56.484 -57.827  1.00  0.00     0.067 C 
HETATM    2  C   UNL     1     -42.226  56.987 -58.677  1.00  0.00     0.001 C 
HETATM    3  C   UNL     1     -41.845  58.434 -58.292  1.00  0.00     0.040 C 
HETATM    4  C   UNL     1     -42.981  59.415 -58.630  1.00  0.00     0.206 C 
HETATM    5  N   UNL     1     -44.217  58.571 -58.953  1.00  0.00    -0.065 N 
HETATM    6  H   UNL     1     -45.025  59.201 -59.067  1.00  0.00     0.280 HD
HETATM    7  C   UNL     1     -44.527  57.562 -57.854  1.00  0.00     0.246 C 
HETATM    8  C   UNL     1     -42.713  57.026 -60.150  1.00  0.00     0.033 C 
HETATM    9  C   UNL     1     -43.998  57.852 -60.273  1.00  0.00     0.236 C 
ENDROOT
BRANCH   4  10
HETATM   10  C   UNL     1     -43.269  60.441 -57.510  1.00  0.00     0.155 C 
BRANCH  10  11
HETATM   11  N   UNL     1     -42.218  60.525 -56.503  1.00  0.00    -0.365 N 
HETATM   12  H   UNL     1     -41.304  60.846 -56.805  1.00  0.00     0.161 HD
BRANCH  11  13
HETATM   13  C   UNL     1     -42.330  60.267 -55.167  1.00  0.00     0.172 C 
HETATM   14  S   UNL     1     -43.036  61.299 -54.058  1.00  0.00    -0.041 SA
BRANCH  13  15
HETATM   15  N   UNL     1     -41.753  59.119 -54.706  1.00  0.00    -0.333 N 
HETATM   16  H   UNL     1     -41.378  58.531 -55.448  1.00  0.00     0.168 HD
BRANCH  15  17
HETATM   17  C   UNL     1     -41.445  58.692 -53.393  1.00  0.00     0.039 A 
HETATM   18  C   UNL     1     -42.318  57.943 -52.599  1.00  0.00     0.066 A 
HETATM   19  C   UNL     1     -41.959  57.549 -51.307  1.00  0.00     0.073 A 
HETATM   20  C   UNL     1     -40.724  57.936 -50.794  1.00  0.00     0.073 A 
HETATM   21  C   UNL     1     -39.861  58.732 -51.553  1.00  0.00     0.073 A 
HETATM   22  C   UNL     1     -40.224  59.108 -52.849  1.00  0.00     0.066 A 
BRANCH  19  23
HETATM   23  O   UNL     1     -42.902  56.796 -50.662  1.00  0.00    -0.356 OA
HETATM   24  C   UNL     1     -44.258  57.002 -51.047  1.00  0.00     0.210 C 
ENDBRANCH  19  23
BRANCH  21  25
HETATM   25  O   UNL     1     -38.693  59.060 -50.919  1.00  0.00    -0.356 OA
HETATM   26  C   UNL     1     -38.746  60.106 -49.957  1.00  0.00     0.210 C 
ENDBRANCH  21  25
ENDBRANCH  15  17
ENDBRANCH  13  15
ENDBRANCH  11  13
ENDBRANCH  10  11
ENDBRANCH   4  10
BRANCH   1  27
HETATM   27  C   UNL     1     -43.200  55.968 -56.425  1.00  0.00     0.038 C 
HETATM   28  N   UNL     1     -43.870  56.212 -55.245  1.00  0.00    -0.277 N 
HETATM   29  C   UNL     1     -44.898  57.164 -54.896  1.00  0.00     0.179 C 
HETATM   30  N   UNL     1     -43.476  55.405 -54.246  1.00  0.00    -0.172 NA
HETATM   31  C   UNL     1     -42.375  54.790 -54.685  1.00  0.00     0.089 C 
HETATM   32  C   UNL     1     -42.176  55.103 -56.049  1.00  0.00     0.061 C 
BRANCH  31  33
HETATM   33  C   UNL     1     -41.575  53.919 -53.825  1.00  0.00    -0.003 A 
HETATM   34  C   UNL     1     -40.793  52.895 -54.382  1.00  0.00     0.053 A 
HETATM   35  C   UNL     1     -40.022  52.056 -53.569  1.00  0.00     0.102 A 
HETATM   36  C   UNL     1     -40.041  52.229 -52.170  1.00  0.00     0.101 A 
HETATM   37  C   UNL     1     -40.824  53.244 -51.613  1.00  0.00     0.040 A 
HETATM   38  C   UNL     1     -41.584  54.083 -52.434  1.00  0.00     0.017 A 
BRANCH  35  39
HETATM   39  O   UNL     1     -39.221  51.044 -54.037  1.00  0.00    -0.353 OA
HETATM   40  C   UNL     1     -39.855  49.874 -54.535  1.00  0.00     0.210 C 
ENDBRANCH  35  39
BRANCH  36  41
HETATM   41  O   UNL     1     -39.259  51.368 -51.443  1.00  0.00    -0.353 OA
HETATM   42  C   UNL     1     -39.913  50.360 -50.685  1.00  0.00     0.210 C 
ENDBRANCH  36  41
ENDBRANCH  31  33
ENDBRANCH   1  27
TORSDOF 11
ENDMDL
MODEL 2
REMARK VINA RESULT:      -7.8      1.905      2.575
REMARK  11 active torsions:
REMARK  status: ('A' for Active; 'I' for Inactive)
REMARK    1  A    between atoms: C_4  and  C_5 
REMARK    2  A    between atoms: C_7  and  O_8 
REMARK    3  A    between atoms: C_10  and  O_11 
REMARK    4  A    between atoms: C_16  and  C_17 
REMARK    5  A    between atoms: C_20  and  C_21 
REMARK    6  A    between atoms: C_21  and  N_22 
REMARK    7  A    between atoms: N_22  and  C_23 
REMARK    8  A    between atoms: C_23  and  N_24 
REMARK    9  A    between atoms: N_24  and  C_25 
REMARK   10  A    between atoms: C_27  and  O_28 
REMARK   11  A    between atoms: C_31  and  O_32 
ROOT
HETATM    1  C   UNL     1     -43.157  56.694 -57.112  1.00  0.00     0.067 C 
HETATM    2  C   UNL     1     -42.511  57.425 -58.306  1.00  0.00     0.001 C 
HETATM    3  C   UNL     1     -42.344  58.932 -58.006  1.00  0.00     0.040 C 
HETATM    4  C   UNL     1     -43.710  59.622 -57.849  1.00  0.00     0.206 C 
HETATM    5  N   UNL     1     -44.759  58.512 -57.745  1.00  0.00    -0.065 N 
HETATM    6  H   UNL     1     -45.669  58.940 -57.521  1.00  0.00     0.280 HD
HETATM    7  C   UNL     1     -44.413  57.492 -56.668  1.00  0.00     0.246 C 
HETATM    8  C   UNL     1     -43.502  57.311 -59.495  1.00  0.00     0.033 C 
HETATM    9  C   UNL     1     -44.890  57.822 -59.093  1.00  0.00     0.236 C 
ENDROOT
BRANCH   4  10
HETATM   10  C   UNL     1     -43.782  60.588 -56.645  1.00  0.00     0.155 C 
BRANCH  10  11
HETATM   11  N   UNL     1     -45.141  60.929 -56.243  1.00  0.00    -0.365 N 
HETATM   12  H   UNL     1     -45.860  60.914 -56.960  1.00  0.00     0.161 HD
BRANCH  11  13
HETATM   13  C   UNL     1     -45.584  61.223 -54.985  1.00  0.00     0.172 C 
HETATM   14  S   UNL     1     -45.834  62.770 -54.405  1.00  0.00    -0.041 SA
BRANCH  13  15
HETATM   15  N   UNL     1     -45.758  60.174 -54.129  1.00  0.00    -0.333 N 
HETATM   16  H   UNL     1     -46.647  59.696 -54.253  1.00  0.00     0.168 HD
BRANCH  15  17
HETATM   17  C   UNL     1     -44.863  59.546 -53.231  1.00  0.00     0.039 A 
HETATM   18  C   UNL     1     -44.835  58.168 -53.004  1.00  0.00     0.066 A 
HETATM   19  C   UNL     1     -43.927  57.603 -52.104  1.00  0.00     0.073 A 
HETATM   20  C   UNL     1     -43.059  58.432 -51.400  1.00  0.00     0.073 A 
HETATM   21  C   UNL     1     -43.109  59.819 -51.572  1.00  0.00     0.073 A 
HETATM   22  C   UNL     1     -44.011  60.372 -52.486  1.00  0.00     0.066 A 
BRANCH  19  23
HETATM   23  O   UNL     1     -43.998  56.240 -52.009  1.00  0.00    -0.356 OA
HETATM   24  C   UNL     1     -43.601  55.662 -50.770  1.00  0.00     0.210 C 
ENDBRANCH  19  23
BRANCH  21  25
HETATM   25  O   UNL     1     -42.219  60.515 -50.802  1.00  0.00    -0.356 OA
HETATM   26  C   UNL     1     -41.198  59.769 -50.150  1.00  0.00     0.210 C 
ENDBRANCH  21  25
ENDBRANCH  15  17
ENDBRANCH  13  15
ENDBRANCH  11  13
ENDBRANCH  10  11
ENDBRANCH   4  10
BRANCH   1  27
HETATM   27  C   UNL     1     -42.337  56.279 -55.916  1.00  0.00     0.038 C 
HETATM   28  N   UNL     1     -41.737  57.012 -54.914  1.00  0.00    -0.277 N 
HETATM   29  C   UNL     1     -41.538  58.431 -54.740  1.00  0.00     0.179 C 
HETATM   30  N   UNL     1     -41.249  56.242 -53.927  1.00  0.00    -0.172 NA
HETATM   31  C   UNL     1     -41.302  54.987 -54.380  1.00  0.00     0.089 C 
HETATM   32  C   UNL     1     -41.989  54.965 -55.615  1.00  0.00     0.061 C 
BRANCH  31  33
HETATM   33  C   UNL     1     -40.737  53.865 -53.633  1.00  0.00    -0.003 A 
HETATM   34  C   UNL     1     -40.694  53.896 -52.230  1.00  0.00     0.053 A 
HETATM   35  C   UNL     1     -40.156  52.827 -51.503  1.00  0.00     0.102 A 
HETATM   36  C   UNL     1     -39.636  51.710 -52.187  1.00  0.00     0.101 A 
HETATM   37  C   UNL     1     -39.672  51.680 -53.584  1.00  0.00     0.040 A 
HETATM   38  C   UNL     1     -40.220  52.748 -54.301  1.00  0.00     0.017 A 
BRANCH  35  39
HETATM   39  O   UNL     1     -40.090  52.775 -50.133  1.00  0.00    -0.353 OA
HETATM   40  C   UNL     1     -40.629  53.868 -49.402  1.00  0.00     0.210 C 
ENDBRANCH  35  39
BRANCH  36  41
HETATM   41  O   UNL     1     -39.127  50.704 -51.405  1.00  0.00    -0.353 OA
HETATM   42  C   UNL     1     -39.835  49.474 -51.365  1.00  0.00     0.210 C 
ENDBRANCH  36  41
ENDBRANCH  31  33
ENDBRANCH   1  27
TORSDOF 11
ENDMDL
MODEL 3
REMARK VINA RESULT:      -7.8      1.840      3.023
REMARK  11 active torsions:
REMARK  status: ('A' for Active; 'I' for Inactive)
REMARK    1  A    between atoms: C_4  and  C_5 
REMARK    2  A    between atoms: C_7  and  O_8 
REMARK    3  A    between atoms: C_10  and  O_11 
REMARK    4  A    between atoms: C_16  and  C_17 
REMARK    5  A    between atoms: C_20  and  C_21 
REMARK    6  A    between atoms: C_21  and  N_22 
REMARK    7  A    between atoms: N_22  and  C_23 
REMARK    8  A    between atoms: C_23  and  N_24 
REMARK    9  A    between atoms: N_24  and  C_25 
REMARK   10  A    between atoms: C_27  and  O_28 
REMARK   11  A    between atoms: C_31  and  O_32 
ROOT
HETATM    1  C   UNL     1     -43.162  56.825 -57.319  1.00  0.00     0.067 C 
HETATM    2  C   UNL     1     -42.503  57.617 -58.467  1.00  0.00     0.001 C 
HETATM    3  C   UNL     1     -42.405  59.119 -58.117  1.00  0.00     0.040 C 
HETATM    4  C   UNL     1     -43.802  59.751 -57.991  1.00  0.00     0.206 C 
HETATM    5  N   UNL     1     -44.810  58.599 -57.958  1.00  0.00    -0.065 N 
HETATM    6  H   UNL     1     -45.744  58.986 -57.755  1.00  0.00     0.280 HD
HETATM    7  C   UNL     1     -44.463  57.561 -56.898  1.00  0.00     0.246 C 
HETATM    8  C   UNL     1     -43.445  57.501 -59.694  1.00  0.00     0.033 C 
HETATM    9  C   UNL     1     -44.866  57.946 -59.329  1.00  0.00     0.236 C 
ENDROOT
BRANCH   4  10
HETATM   10  C   UNL     1     -43.956  60.677 -56.763  1.00  0.00     0.155 C 
BRANCH  10  11
HETATM   11  N   UNL     1     -45.276  60.626 -56.147  1.00  0.00    -0.365 N 
HETATM   12  H   UNL     1     -46.047  60.293 -56.717  1.00  0.00     0.161 HD
BRANCH  11  13
HETATM   13  C   UNL     1     -45.599  60.929 -54.855  1.00  0.00     0.172 C 
HETATM   14  S   UNL     1     -45.743  62.482 -54.253  1.00  0.00    -0.041 SA
BRANCH  13  15
HETATM   15  N   UNL     1     -45.737  59.883 -53.989  1.00  0.00    -0.333 N 
HETATM   16  H   UNL     1     -46.610  59.375 -54.107  1.00  0.00     0.168 HD
BRANCH  15  17
HETATM   17  C   UNL     1     -44.820  59.293 -53.087  1.00  0.00     0.039 A 
HETATM   18  C   UNL     1     -43.922  60.027 -52.308  1.00  0.00     0.066 A 
HETATM   19  C   UNL     1     -43.039  59.389 -51.433  1.00  0.00     0.073 A 
HETATM   20  C   UNL     1     -43.035  57.998 -51.360  1.00  0.00     0.073 A 
HETATM   21  C   UNL     1     -43.888  57.246 -52.171  1.00  0.00     0.073 A 
HETATM   22  C   UNL     1     -44.778  57.894 -53.033  1.00  0.00     0.066 A 
BRANCH  19  23
HETATM   23  O   UNL     1     -42.240  60.238 -50.715  1.00  0.00    -0.356 OA
HETATM   24  C   UNL     1     -41.037  59.692 -50.185  1.00  0.00     0.210 C 
ENDBRANCH  19  23
BRANCH  21  25
HETATM   25  O   UNL     1     -43.764  55.892 -52.017  1.00  0.00    -0.356 OA
HETATM   26  C   UNL     1     -43.769  55.385 -50.688  1.00  0.00     0.210 C 
ENDBRANCH  21  25
ENDBRANCH  15  17
ENDBRANCH  13  15
ENDBRANCH  11  13
ENDBRANCH  10  11
ENDBRANCH   4  10
BRANCH   1  27
HETATM   27  C   UNL     1     -42.370  56.406 -56.106  1.00  0.00     0.038 C 
HETATM   28  N   UNL     1     -41.792  57.136 -55.088  1.00  0.00    -0.277 N 
HETATM   29  C   UNL     1     -41.596  58.554 -54.905  1.00  0.00     0.179 C 
HETATM   30  N   UNL     1     -41.328  56.362 -54.092  1.00  0.00    -0.172 NA
HETATM   31  C   UNL     1     -41.372  55.109 -54.550  1.00  0.00     0.089 C 
HETATM   32  C   UNL     1     -42.030  55.091 -55.801  1.00  0.00     0.061 C 
BRANCH  31  33
HETATM   33  C   UNL     1     -40.824  53.984 -53.794  1.00  0.00    -0.003 A 
HETATM   34  C   UNL     1     -40.629  54.089 -52.408  1.00  0.00     0.053 A 
HETATM   35  C   UNL     1     -40.107  53.018 -51.672  1.00  0.00     0.102 A 
HETATM   36  C   UNL     1     -39.758  51.823 -52.331  1.00  0.00     0.101 A 
HETATM   37  C   UNL     1     -39.946  51.718 -53.712  1.00  0.00     0.040 A 
HETATM   38  C   UNL     1     -40.477  52.790 -54.437  1.00  0.00     0.017 A 
BRANCH  35  39
HETATM   39  O   UNL     1     -39.899  53.037 -50.315  1.00  0.00    -0.353 OA
HETATM   40  C   UNL     1     -40.064  54.274 -49.636  1.00  0.00     0.210 C 
ENDBRANCH  35  39
BRANCH  36  41
HETATM   41  O   UNL     1     -39.253  50.821 -51.542  1.00  0.00    -0.353 OA
HETATM   42  C   UNL     1     -39.582  49.481 -51.881  1.00  0.00     0.210 C 
ENDBRANCH  36  41
ENDBRANCH  31  33
ENDBRANCH   1  27
TORSDOF 11
ENDMDL
MODEL 4
REMARK VINA RESULT:      -7.7      2.937      5.765
REMARK  11 active torsions:
REMARK  status: ('A' for Active; 'I' for Inactive)
REMARK    1  A    between atoms: C_4  and  C_5 
REMARK    2  A    between atoms: C_7  and  O_8 
REMARK    3  A    between atoms: C_10  and  O_11 
REMARK    4  A    between atoms: C_16  and  C_17 
REMARK    5  A    between atoms: C_20  and  C_21 
REMARK    6  A    between atoms: C_21  and  N_22 
REMARK    7  A    between atoms: N_22  and  C_23 
REMARK    8  A    between atoms: C_23  and  N_24 
REMARK    9  A    between atoms: N_24  and  C_25 
REMARK   10  A    between atoms: C_27  and  O_28 
REMARK   11  A    between atoms: C_31  and  O_32 
ROOT
HETATM    1  C   UNL     1     -42.823  58.573 -54.213  1.00  0.00     0.067 C 
HETATM    2  C   UNL     1     -44.089  59.049 -54.955  1.00  0.00     0.001 C 
HETATM    3  C   UNL     1     -43.763  59.424 -56.418  1.00  0.00     0.040 C 
HETATM    4  C   UNL     1     -42.822  60.639 -56.484  1.00  0.00     0.206 C 
HETATM    5  N   UNL     1     -42.292  60.868 -55.066  1.00  0.00    -0.065 N 
HETATM    6  H   UNL     1     -41.567  61.601 -55.100  1.00  0.00     0.280 HD
HETATM    7  C   UNL     1     -41.689  59.604 -54.466  1.00  0.00     0.246 C 
HETATM    8  C   UNL     1     -44.561  60.349 -54.252  1.00  0.00     0.033 C 
HETATM    9  C   UNL     1     -43.423  61.373 -54.186  1.00  0.00     0.236 C 
ENDROOT
BRANCH   4  10
HETATM   10  C   UNL     1     -41.671  60.478 -57.502  1.00  0.00     0.155 C 
BRANCH  10  11
HETATM   11  N   UNL     1     -41.982  59.577 -58.606  1.00  0.00    -0.365 N 
HETATM   12  H   UNL     1     -42.047  58.586 -58.398  1.00  0.00     0.161 HD
BRANCH  11  13
HETATM   13  C   UNL     1     -42.251  59.916 -59.901  1.00  0.00     0.172 C 
HETATM   14  S   UNL     1     -41.682  61.293 -60.659  1.00  0.00    -0.041 SA
BRANCH  13  15
HETATM   15  N   UNL     1     -43.107  59.105 -60.589  1.00  0.00    -0.333 N 
HETATM   16  H   UNL     1     -42.782  58.880 -61.527  1.00  0.00     0.168 HD
BRANCH  15  17
HETATM   17  C   UNL     1     -44.262  58.402 -60.172  1.00  0.00     0.039 A 
HETATM   18  C   UNL     1     -44.426  57.023 -60.329  1.00  0.00     0.066 A 
HETATM   19  C   UNL     1     -45.590  56.382 -59.897  1.00  0.00     0.073 A 
HETATM   20  C   UNL     1     -46.614  57.135 -59.330  1.00  0.00     0.073 A 
HETATM   21  C   UNL     1     -46.491  58.523 -59.216  1.00  0.00     0.073 A 
HETATM   22  C   UNL     1     -45.316  59.152 -59.637  1.00  0.00     0.066 A 
BRANCH  19  23
HETATM   23  O   UNL     1     -45.594  55.027 -60.090  1.00  0.00    -0.356 OA
HETATM   24  C   UNL     1     -44.473  54.305 -59.590  1.00  0.00     0.210 C 
ENDBRANCH  19  23
BRANCH  21  25
HETATM   25  O   UNL     1     -47.579  59.142 -58.664  1.00  0.00    -0.356 OA
HETATM   26  C   UNL     1     -47.333  60.252 -57.809  1.00  0.00     0.210 C 
ENDBRANCH  21  25
ENDBRANCH  15  17
ENDBRANCH  13  15
ENDBRANCH  11  13
ENDBRANCH  10  11
ENDBRANCH   4  10
BRANCH   1  27
HETATM   27  C   UNL     1     -42.310  57.164 -54.372  1.00  0.00     0.038 C 
HETATM   28  N   UNL     1     -42.201  56.344 -55.475  1.00  0.00    -0.277 N 
HETATM   29  C   UNL     1     -42.686  56.474 -56.829  1.00  0.00     0.179 C 
HETATM   30  N   UNL     1     -41.516  55.217 -55.220  1.00  0.00    -0.172 NA
HETATM   31  C   UNL     1     -41.376  55.165 -53.893  1.00  0.00     0.089 C 
HETATM   32  C   UNL     1     -41.847  56.371 -53.326  1.00  0.00     0.061 C 
BRANCH  31  33
HETATM   33  C   UNL     1     -40.789  54.009 -53.217  1.00  0.00    -0.003 A 
HETATM   34  C   UNL     1     -40.302  52.923 -53.962  1.00  0.00     0.053 A 
HETATM   35  C   UNL     1     -39.736  51.812 -53.326  1.00  0.00     0.102 A 
HETATM   36  C   UNL     1     -39.667  51.772 -51.919  1.00  0.00     0.101 A 
HETATM   37  C   UNL     1     -40.157  52.849 -51.176  1.00  0.00     0.040 A 
HETATM   38  C   UNL     1     -40.713  53.960 -51.820  1.00  0.00     0.017 A 
BRANCH  35  39
HETATM   39  O   UNL     1     -39.225  50.719 -53.982  1.00  0.00    -0.353 OA
HETATM   40  C   UNL     1     -40.140  49.850 -54.635  1.00  0.00     0.210 C 
ENDBRANCH  35  39
BRANCH  36  41
HETATM   41  O   UNL     1     -39.099  50.650 -51.372  1.00  0.00    -0.353 OA
HETATM   42  C   UNL     1     -39.924  49.812 -50.575  1.00  0.00     0.210 C 
ENDBRANCH  36  41
ENDBRANCH  31  33
ENDBRANCH   1  27
TORSDOF 11
ENDMDL
MODEL 5
REMARK VINA RESULT:      -7.7      2.941      5.768
REMARK  11 active torsions:
REMARK  status: ('A' for Active; 'I' for Inactive)
REMARK    1  A    between atoms: C_4  and  C_5 
REMARK    2  A    between atoms: C_7  and  O_8 
REMARK    3  A    between atoms: C_10  and  O_11 
REMARK    4  A    between atoms: C_16  and  C_17 
REMARK    5  A    between atoms: C_20  and  C_21 
REMARK    6  A    between atoms: C_21  and  N_22 
REMARK    7  A    between atoms: N_22  and  C_23 
REMARK    8  A    between atoms: C_23  and  N_24 
REMARK    9  A    between atoms: N_24  and  C_25 
REMARK   10  A    between atoms: C_27  and  O_28 
REMARK   11  A    between atoms: C_31  and  O_32 
ROOT
HETATM    1  C   UNL     1     -42.827  58.511 -54.324  1.00  0.00     0.067 C 
HETATM    2  C   UNL     1     -44.094  58.977 -55.069  1.00  0.00     0.001 C 
HETATM    3  C   UNL     1     -43.774  59.325 -56.540  1.00  0.00     0.040 C 
HETATM    4  C   UNL     1     -42.829  60.536 -56.631  1.00  0.00     0.206 C 
HETATM    5  N   UNL     1     -42.292  60.788 -55.220  1.00  0.00    -0.065 N 
HETATM    6  H   UNL     1     -41.565  61.518 -55.271  1.00  0.00     0.280 HD
HETATM    7  C   UNL     1     -41.690  59.532 -54.600  1.00  0.00     0.246 C 
HETATM    8  C   UNL     1     -44.560  60.291 -54.387  1.00  0.00     0.033 C 
HETATM    9  C   UNL     1     -43.417  61.313 -54.345  1.00  0.00     0.236 C 
ENDROOT
BRANCH   4  10
HETATM   10  C   UNL     1     -41.683  60.353 -57.652  1.00  0.00     0.155 C 
BRANCH  10  11
HETATM   11  N   UNL     1     -42.061  59.584 -58.832  1.00  0.00    -0.365 N 
HETATM   12  H   UNL     1     -42.138  58.577 -58.730  1.00  0.00     0.161 HD
BRANCH  11  13
HETATM   13  C   UNL     1     -42.381  60.068 -60.068  1.00  0.00     0.172 C 
HETATM   14  S   UNL     1     -41.635  61.374 -60.798  1.00  0.00    -0.041 SA
BRANCH  13  15
HETATM   15  N   UNL     1     -43.434  59.482 -60.710  1.00  0.00    -0.333 N 
HETATM   16  H   UNL     1     -43.342  59.489 -61.723  1.00  0.00     0.168 HD
BRANCH  15  17
HETATM   17  C   UNL     1     -44.527  58.734 -60.214  1.00  0.00     0.039 A 
HETATM   18  C   UNL     1     -45.598  59.300 -59.517  1.00  0.00     0.066 A 
HETATM   19  C   UNL     1     -46.653  58.510 -59.051  1.00  0.00     0.073 A 
HETATM   20  C   UNL     1     -46.619  57.134 -59.259  1.00  0.00     0.073 A 
HETATM   21  C   UNL     1     -45.530  56.544 -59.906  1.00  0.00     0.073 A 
HETATM   22  C   UNL     1     -44.487  57.344 -60.381  1.00  0.00     0.066 A 
BRANCH  19  23
HETATM   23  O   UNL     1     -47.643  59.207 -58.413  1.00  0.00    -0.356 OA
HETATM   24  C   UNL     1     -47.259  60.416 -57.766  1.00  0.00     0.210 C 
ENDBRANCH  19  23
BRANCH  21  25
HETATM   25  O   UNL     1     -45.613  55.183 -60.021  1.00  0.00    -0.356 OA
HETATM   26  C   UNL     1     -44.465  54.427 -59.656  1.00  0.00     0.210 C 
ENDBRANCH  21  25
ENDBRANCH  15  17
ENDBRANCH  13  15
ENDBRANCH  11  13
ENDBRANCH  10  11
ENDBRANCH   4  10
BRANCH   1  27
HETATM   27  C   UNL     1     -42.319  57.097 -54.461  1.00  0.00     0.038 C 
HETATM   28  N   UNL     1     -42.230  56.252 -55.547  1.00  0.00    -0.277 N 
HETATM   29  C   UNL     1     -42.738  56.353 -56.895  1.00  0.00     0.179 C 
HETATM   30  N   UNL     1     -41.543  55.130 -55.279  1.00  0.00    -0.172 NA
HETATM   31  C   UNL     1     -41.381  55.106 -53.954  1.00  0.00     0.089 C 
HETATM   32  C   UNL     1     -41.840  56.326 -53.406  1.00  0.00     0.061 C 
BRANCH  31  33
HETATM   33  C   UNL     1     -40.784  53.964 -53.263  1.00  0.00    -0.003 A 
HETATM   34  C   UNL     1     -40.293  52.871 -53.992  1.00  0.00     0.053 A 
HETATM   35  C   UNL     1     -39.718  51.773 -53.342  1.00  0.00     0.102 A 
HETATM   36  C   UNL     1     -39.644  51.755 -51.935  1.00  0.00     0.101 A 
HETATM   37  C   UNL     1     -40.139  52.840 -51.206  1.00  0.00     0.040 A 
HETATM   38  C   UNL     1     -40.703  53.937 -51.865  1.00  0.00     0.017 A 
BRANCH  35  39
HETATM   39  O   UNL     1     -39.202  50.674 -53.983  1.00  0.00    -0.353 OA
HETATM   40  C   UNL     1     -40.110  49.810 -54.653  1.00  0.00     0.210 C 
ENDBRANCH  35  39
BRANCH  36  41
HETATM   41  O   UNL     1     -39.068  50.644 -51.372  1.00  0.00    -0.353 OA
HETATM   42  C   UNL     1     -39.886  49.811 -50.564  1.00  0.00     0.210 C 
ENDBRANCH  36  41
ENDBRANCH  31  33
ENDBRANCH   1  27
TORSDOF 11
ENDMDL
MODEL 6
REMARK VINA RESULT:      -7.5      2.610      5.857
REMARK  11 active torsions:
REMARK  status: ('A' for Active; 'I' for Inactive)
REMARK    1  A    between atoms: C_4  and  C_5 
REMARK    2  A    between atoms: C_7  and  O_8 
REMARK    3  A    between atoms: C_10  and  O_11 
REMARK    4  A    between atoms: C_16  and  C_17 
REMARK    5  A    between atoms: C_20  and  C_21 
REMARK    6  A    between atoms: C_21  and  N_22 
REMARK    7  A    between atoms: N_22  and  C_23 
REMARK    8  A    between atoms: C_23  and  N_24 
REMARK    9  A    between atoms: N_24  and  C_25 
REMARK   10  A    between atoms: C_27  and  O_28 
REMARK   11  A    between atoms: C_31  and  O_32 
ROOT
HETATM    1  C   UNL     1     -43.385  58.667 -51.337  1.00  0.00     0.067 C 
HETATM    2  C   UNL     1     -44.905  58.669 -51.598  1.00  0.00     0.001 C 
HETATM    3  C   UNL     1     -45.226  59.277 -52.983  1.00  0.00     0.040 C 
HETATM    4  C   UNL     1     -44.842  60.766 -53.038  1.00  0.00     0.206 C 
HETATM    5  N   UNL     1     -43.994  61.053 -51.797  1.00  0.00    -0.065 N 
HETATM    6  H   UNL     1     -43.623  62.012 -51.867  1.00  0.00     0.280 HD
HETATM    7  C   UNL     1     -42.828  60.081 -51.659  1.00  0.00     0.246 C 
HETATM    8  C   UNL     1     -45.543  59.605 -50.537  1.00  0.00     0.033 C 
HETATM    9  C   UNL     1     -44.877  60.985 -50.562  1.00  0.00     0.236 C 
ENDROOT
BRANCH   4  10
HETATM   10  C   UNL     1     -44.107  61.169 -54.336  1.00  0.00     0.155 C 
BRANCH  10  11
HETATM   11  N   UNL     1     -44.559  60.446 -55.519  1.00  0.00    -0.365 N 
HETATM   12  H   UNL     1     -45.519  60.115 -55.527  1.00  0.00     0.161 HD
BRANCH  11  13
HETATM   13  C   UNL     1     -43.851  60.201 -56.660  1.00  0.00     0.172 C 
HETATM   14  S   UNL     1     -42.448  60.998 -57.096  1.00  0.00    -0.041 SA
BRANCH  13  15
HETATM   15  N   UNL     1     -44.377  59.292 -57.533  1.00  0.00    -0.333 N 
HETATM   16  H   UNL     1     -45.067  59.693 -58.165  1.00  0.00     0.168 HD
BRANCH  15  17
HETATM   17  C   UNL     1     -44.015  57.954 -57.816  1.00  0.00     0.039 A 
HETATM   18  C   UNL     1     -43.407  57.105 -56.888  1.00  0.00     0.066 A 
HETATM   19  C   UNL     1     -43.072  55.791 -57.224  1.00  0.00     0.073 A 
HETATM   20  C   UNL     1     -43.320  55.332 -58.515  1.00  0.00     0.073 A 
HETATM   21  C   UNL     1     -43.877  56.184 -59.473  1.00  0.00     0.073 A 
HETATM   22  C   UNL     1     -44.222  57.492 -59.122  1.00  0.00     0.066 A 
BRANCH  19  23
HETATM   23  O   UNL     1     -42.510  55.071 -56.204  1.00  0.00    -0.356 OA
HETATM   24  C   UNL     1     -43.334  54.817 -55.071  1.00  0.00     0.210 C 
ENDBRANCH  19  23
BRANCH  21  25
HETATM   25  O   UNL     1     -44.045  55.613 -60.705  1.00  0.00    -0.356 OA
HETATM   26  C   UNL     1     -45.377  55.485 -61.187  1.00  0.00     0.210 C 
ENDBRANCH  21  25
ENDBRANCH  15  17
ENDBRANCH  13  15
ENDBRANCH  11  13
ENDBRANCH  10  11
ENDBRANCH   4  10
BRANCH   1  27
HETATM   27  C   UNL     1     -42.496  57.597 -51.920  1.00  0.00     0.038 C 
HETATM   28  N   UNL     1     -41.711  57.571 -53.055  1.00  0.00    -0.277 N 
HETATM   29  C   UNL     1     -41.588  58.484 -54.166  1.00  0.00     0.179 C 
HETATM   30  N   UNL     1     -40.926  56.483 -53.119  1.00  0.00    -0.172 NA
HETATM   31  C   UNL     1     -41.357  55.662 -52.159  1.00  0.00     0.089 C 
HETATM   32  C   UNL     1     -42.329  56.327 -51.377  1.00  0.00     0.061 C 
BRANCH  31  33
HETATM   33  C   UNL     1     -40.828  54.309 -51.997  1.00  0.00    -0.003 A 
HETATM   34  C   UNL     1     -40.487  53.541 -53.120  1.00  0.00     0.053 A 
HETATM   35  C   UNL     1     -39.977  52.244 -52.978  1.00  0.00     0.102 A 
HETATM   36  C   UNL     1     -39.819  51.694 -51.690  1.00  0.00     0.101 A 
HETATM   37  C   UNL     1     -40.164  52.455 -50.570  1.00  0.00     0.040 A 
HETATM   38  C   UNL     1     -40.663  53.753 -50.722  1.00  0.00     0.017 A 
BRANCH  35  39
HETATM   39  O   UNL     1     -39.608  51.437 -54.025  1.00  0.00    -0.353 OA
HETATM   40  C   UNL     1     -40.478  50.372 -54.381  1.00  0.00     0.210 C 
ENDBRANCH  35  39
BRANCH  36  41
HETATM   41  O   UNL     1     -39.315  50.420 -51.634  1.00  0.00    -0.353 OA
HETATM   42  C   UNL     1     -39.734  49.589 -50.561  1.00  0.00     0.210 C 
ENDBRANCH  36  41
ENDBRANCH  31  33
ENDBRANCH   1  27
TORSDOF 11
ENDMDL
MODEL 7
REMARK VINA RESULT:      -7.4      2.653      5.639
REMARK  11 active torsions:
REMARK  status: ('A' for Active; 'I' for Inactive)
REMARK    1  A    between atoms: C_4  and  C_5 
REMARK    2  A    between atoms: C_7  and  O_8 
REMARK    3  A    between atoms: C_10  and  O_11 
REMARK    4  A    between atoms: C_16  and  C_17 
REMARK    5  A    between atoms: C_20  and  C_21 
REMARK    6  A    between atoms: C_21  and  N_22 
REMARK    7  A    between atoms: N_22  and  C_23 
REMARK    8  A    between atoms: C_23  and  N_24 
REMARK    9  A    between atoms: N_24  and  C_25 
REMARK   10  A    between atoms: C_27  and  O_28 
REMARK   11  A    between atoms: C_31  and  O_32 
ROOT
HETATM    1  C   UNL     1     -43.356  59.435 -52.934  1.00  0.00     0.067 C 
HETATM    2  C   UNL     1     -44.525  59.214 -53.915  1.00  0.00     0.001 C 
HETATM    3  C   UNL     1     -44.031  59.252 -55.380  1.00  0.00     0.040 C 
HETATM    4  C   UNL     1     -43.502  60.648 -55.750  1.00  0.00     0.206 C 
HETATM    5  N   UNL     1     -43.367  61.434 -54.444  1.00  0.00    -0.065 N 
HETATM    6  H   UNL     1     -42.903  62.332 -54.647  1.00  0.00     0.280 HD
HETATM    7  C   UNL     1     -42.553  60.680 -53.400  1.00  0.00     0.246 C 
HETATM    8  C   UNL     1     -45.497  60.410 -53.737  1.00  0.00     0.033 C 
HETATM    9  C   UNL     1     -44.753  61.740 -53.901  1.00  0.00     0.236 C 
ENDROOT
BRANCH   4  10
HETATM   10  C   UNL     1     -42.171  60.618 -56.536  1.00  0.00     0.155 C 
BRANCH  10  11
HETATM   11  N   UNL     1     -42.307  60.984 -57.940  1.00  0.00    -0.365 N 
HETATM   12  H   UNL     1     -42.023  61.921 -58.210  1.00  0.00     0.161 HD
BRANCH  11  13
HETATM   13  C   UNL     1     -42.730  60.189 -58.967  1.00  0.00     0.172 C 
HETATM   14  S   UNL     1     -43.997  60.558 -59.993  1.00  0.00    -0.041 SA
BRANCH  13  15
HETATM   15  N   UNL     1     -42.116  58.978 -59.106  1.00  0.00    -0.333 N 
HETATM   16  H   UNL     1     -41.112  59.050 -59.254  1.00  0.00     0.168 HD
BRANCH  15  17
HETATM   17  C   UNL     1     -42.598  57.661 -58.916  1.00  0.00     0.039 A 
HETATM   18  C   UNL     1     -43.178  56.896 -59.931  1.00  0.00     0.066 A 
HETATM   19  C   UNL     1     -43.637  55.600 -59.685  1.00  0.00     0.073 A 
HETATM   20  C   UNL     1     -43.540  55.074 -58.400  1.00  0.00     0.073 A 
HETATM   21  C   UNL     1     -43.013  55.844 -57.359  1.00  0.00     0.073 A 
HETATM   22  C   UNL     1     -42.544  57.135 -57.619  1.00  0.00     0.066 A 
BRANCH  19  23
HETATM   23  O   UNL     1     -44.153  54.964 -60.782  1.00  0.00    -0.356 OA
HETATM   24  C   UNL     1     -45.433  55.399 -61.230  1.00  0.00     0.210 C 
ENDBRANCH  19  23
BRANCH  21  25
HETATM   25  O   UNL     1     -43.000  55.216 -56.144  1.00  0.00    -0.356 OA
HETATM   26  C   UNL     1     -43.577  53.917 -56.076  1.00  0.00     0.210 C 
ENDBRANCH  21  25
ENDBRANCH  15  17
ENDBRANCH  13  15
ENDBRANCH  11  13
ENDBRANCH  10  11
ENDBRANCH   4  10
BRANCH   1  27
HETATM   27  C   UNL     1     -42.426  58.308 -52.563  1.00  0.00     0.038 C 
HETATM   28  N   UNL     1     -41.561  58.141 -51.501  1.00  0.00    -0.277 N 
HETATM   29  C   UNL     1     -41.116  59.042 -50.465  1.00  0.00     0.179 C 
HETATM   30  N   UNL     1     -41.044  56.902 -51.441  1.00  0.00    -0.172 NA
HETATM   31  C   UNL     1     -41.367  56.314 -52.596  1.00  0.00     0.089 C 
HETATM   32  C   UNL     1     -42.243  57.154 -53.319  1.00  0.00     0.061 C 
BRANCH  31  33
HETATM   33  C   UNL     1     -40.868  54.988 -52.960  1.00  0.00    -0.003 A 
HETATM   34  C   UNL     1     -40.710  53.996 -51.980  1.00  0.00     0.053 A 
HETATM   35  C   UNL     1     -40.235  52.722 -52.317  1.00  0.00     0.102 A 
HETATM   36  C   UNL     1     -39.896  52.435 -53.654  1.00  0.00     0.101 A 
HETATM   37  C   UNL     1     -40.047  53.424 -54.630  1.00  0.00     0.040 A 
HETATM   38  C   UNL     1     -40.532  54.690 -54.286  1.00  0.00     0.017 A 
BRANCH  35  39
HETATM   39  O   UNL     1     -40.066  51.696 -51.421  1.00  0.00    -0.353 OA
HETATM   40  C   UNL     1     -40.395  51.941 -50.061  1.00  0.00     0.210 C 
ENDBRANCH  35  39
BRANCH  36  41
HETATM   41  O   UNL     1     -39.438  51.166 -53.903  1.00  0.00    -0.353 OA
HETATM   42  C   UNL     1     -40.360  50.222 -54.429  1.00  0.00     0.210 C 
ENDBRANCH  36  41
ENDBRANCH  31  33
ENDBRANCH   1  27
TORSDOF 11
ENDMDL
MODEL 8
REMARK VINA RESULT:      -7.4      3.001      6.150
REMARK  11 active torsions:
REMARK  status: ('A' for Active; 'I' for Inactive)
REMARK    1  A    between atoms: C_4  and  C_5 
REMARK    2  A    between atoms: C_7  and  O_8 
REMARK    3  A    between atoms: C_10  and  O_11 
REMARK    4  A    between atoms: C_16  and  C_17 
REMARK    5  A    between atoms: C_20  and  C_21 
REMARK    6  A    between atoms: C_21  and  N_22 
REMARK    7  A    between atoms: N_22  and  C_23 
REMARK    8  A    between atoms: C_23  and  N_24 
REMARK    9  A    between atoms: N_24  and  C_25 
REMARK   10  A    between atoms: C_27  and  O_28 
REMARK   11  A    between atoms: C_31  and  O_32 
ROOT
HETATM    1  C   UNL     1     -43.253  59.494 -52.847  1.00  0.00     0.067 C 
HETATM    2  C   UNL     1     -44.428  60.046 -53.680  1.00  0.00     0.001 C 
HETATM    3  C   UNL     1     -44.137  59.925 -55.193  1.00  0.00     0.040 C 
HETATM    4  C   UNL     1     -42.949  60.813 -55.603  1.00  0.00     0.206 C 
HETATM    5  N   UNL     1     -42.274  61.277 -54.309  1.00  0.00    -0.065 N 
HETATM    6  H   UNL     1     -41.405  61.776 -54.553  1.00  0.00     0.280 HD
HETATM    7  C   UNL     1     -41.934  60.112 -53.388  1.00  0.00     0.246 C 
HETATM    8  C   UNL     1     -44.533  61.561 -53.362  1.00  0.00     0.033 C 
HETATM    9  C   UNL     1     -43.188  62.258 -53.594  1.00  0.00     0.236 C 
ENDROOT
BRANCH   4  10
HETATM   10  C   UNL     1     -41.947  60.111 -56.548  1.00  0.00     0.155 C 
BRANCH  10  11
HETATM   11  N   UNL     1     -41.915  60.671 -57.893  1.00  0.00    -0.365 N 
HETATM   12  H   UNL     1     -41.644  61.645 -57.990  1.00  0.00     0.161 HD
BRANCH  11  13
HETATM   13  C   UNL     1     -42.159  60.018 -59.068  1.00  0.00     0.172 C 
HETATM   14  S   UNL     1     -42.019  60.709 -60.583  1.00  0.00    -0.041 SA
BRANCH  13  15
HETATM   15  N   UNL     1     -42.621  58.737 -58.980  1.00  0.00    -0.333 N 
HETATM   16  H   UNL     1     -41.910  58.072 -58.684  1.00  0.00     0.168 HD
BRANCH  15  17
HETATM   17  C   UNL     1     -43.931  58.211 -59.067  1.00  0.00     0.039 A 
HETATM   18  C   UNL     1     -44.222  56.935 -59.558  1.00  0.00     0.066 A 
HETATM   19  C   UNL     1     -45.538  56.469 -59.619  1.00  0.00     0.073 A 
HETATM   20  C   UNL     1     -46.577  57.301 -59.213  1.00  0.00     0.073 A 
HETATM   21  C   UNL     1     -46.310  58.600 -58.770  1.00  0.00     0.073 A 
HETATM   22  C   UNL     1     -44.989  59.052 -58.699  1.00  0.00     0.066 A 
BRANCH  19  23
HETATM   23  O   UNL     1     -45.663  55.191 -60.095  1.00  0.00    -0.356 OA
HETATM   24  C   UNL     1     -45.059  54.914 -61.354  1.00  0.00     0.210 C 
ENDBRANCH  19  23
BRANCH  21  25
HETATM   25  O   UNL     1     -47.423  59.317 -58.425  1.00  0.00    -0.356 OA
HETATM   26  C   UNL     1     -47.969  60.186 -59.410  1.00  0.00     0.210 C 
ENDBRANCH  21  25
ENDBRANCH  15  17
ENDBRANCH  13  15
ENDBRANCH  11  13
ENDBRANCH  10  11
ENDBRANCH   4  10
BRANCH   1  27
HETATM   27  C   UNL     1     -43.091  58.013 -52.614  1.00  0.00     0.038 C 
HETATM   28  N   UNL     1     -43.833  57.111 -51.881  1.00  0.00    -0.277 N 
HETATM   29  C   UNL     1     -44.923  57.285 -50.950  1.00  0.00     0.179 C 
HETATM   30  N   UNL     1     -43.452  55.838 -52.081  1.00  0.00    -0.172 NA
HETATM   31  C   UNL     1     -42.301  55.902 -52.755  1.00  0.00     0.089 C 
HETATM   32  C   UNL     1     -42.047  57.244 -53.120  1.00  0.00     0.061 C 
BRANCH  31  33
HETATM   33  C   UNL     1     -41.506  54.712 -53.051  1.00  0.00    -0.003 A 
HETATM   34  C   UNL     1     -40.897  53.989 -52.013  1.00  0.00     0.053 A 
HETATM   35  C   UNL     1     -40.135  52.846 -52.284  1.00  0.00     0.102 A 
HETATM   36  C   UNL     1     -39.960  52.423 -53.616  1.00  0.00     0.101 A 
HETATM   37  C   UNL     1     -40.560  53.144 -54.652  1.00  0.00     0.040 A 
HETATM   38  C   UNL     1     -41.328  54.279 -54.371  1.00  0.00     0.017 A 
BRANCH  35  39
HETATM   39  O   UNL     1     -39.520  52.078 -51.325  1.00  0.00    -0.353 OA
HETATM   40  C   UNL     1     -40.347  51.371 -50.412  1.00  0.00     0.210 C 
ENDBRANCH  35  39
BRANCH  36  41
HETATM   41  O   UNL     1     -39.200  51.295 -53.799  1.00  0.00    -0.353 OA
HETATM   42  C   UNL     1     -39.844  50.139 -54.315  1.00  0.00     0.210 C 
ENDBRANCH  36  41
ENDBRANCH  31  33
ENDBRANCH   1  27
TORSDOF 11
ENDMDL
MODEL 9
REMARK VINA RESULT:      -7.3      2.782      6.050
REMARK  11 active torsions:
REMARK  status: ('A' for Active; 'I' for Inactive)
REMARK    1  A    between atoms: C_4  and  C_5 
REMARK    2  A    between atoms: C_7  and  O_8 
REMARK    3  A    between atoms: C_10  and  O_11 
REMARK    4  A    between atoms: C_16  and  C_17 
REMARK    5  A    between atoms: C_20  and  C_21 
REMARK    6  A    between atoms: C_21  and  N_22 
REMARK    7  A    between atoms: N_22  and  C_23 
REMARK    8  A    between atoms: C_23  and  N_24 
REMARK    9  A    between atoms: N_24  and  C_25 
REMARK   10  A    between atoms: C_27  and  O_28 
REMARK   11  A    between atoms: C_31  and  O_32 
ROOT
HETATM    1  C   UNL     1     -42.975  59.043 -52.864  1.00  0.00     0.067 C 
HETATM    2  C   UNL     1     -44.217  59.632 -53.562  1.00  0.00     0.001 C 
HETATM    3  C   UNL     1     -44.124  59.458 -55.095  1.00  0.00     0.040 C 
HETATM    4  C   UNL     1     -42.956  60.273 -55.676  1.00  0.00     0.206 C 
HETATM    5  N   UNL     1     -42.103  60.735 -54.492  1.00  0.00    -0.065 N 
HETATM    6  H   UNL     1     -41.249  61.182 -54.858  1.00  0.00     0.280 HD
HETATM    7  C   UNL     1     -41.706  59.578 -53.583  1.00  0.00     0.246 C 
HETATM    8  C   UNL     1     -44.210  61.159 -53.282  1.00  0.00     0.033 C 
HETATM    9  C   UNL     1     -42.872  61.779 -53.701  1.00  0.00     0.236 C 
ENDROOT
BRANCH   4  10
HETATM   10  C   UNL     1     -42.116  59.497 -56.715  1.00  0.00     0.155 C 
BRANCH  10  11
HETATM   11  N   UNL     1     -41.522  60.342 -57.744  1.00  0.00    -0.365 N 
HETATM   12  H   UNL     1     -40.583  60.691 -57.581  1.00  0.00     0.161 HD
BRANCH  11  13
HETATM   13  C   UNL     1     -42.067  60.686 -58.949  1.00  0.00     0.172 C 
HETATM   14  S   UNL     1     -42.465  62.246 -59.399  1.00  0.00    -0.041 SA
BRANCH  13  15
HETATM   15  N   UNL     1     -42.371  59.668 -59.805  1.00  0.00    -0.333 N 
HETATM   16  H   UNL     1     -41.637  59.480 -60.485  1.00  0.00     0.168 HD
BRANCH  15  17
HETATM   17  C   UNL     1     -43.436  58.737 -59.805  1.00  0.00     0.039 A 
HETATM   18  C   UNL     1     -44.717  59.027 -59.328  1.00  0.00     0.066 A 
HETATM   19  C   UNL     1     -45.731  58.066 -59.353  1.00  0.00     0.073 A 
HETATM   20  C   UNL     1     -45.451  56.790 -59.833  1.00  0.00     0.073 A 
HETATM   21  C   UNL     1     -44.161  56.465 -60.264  1.00  0.00     0.073 A 
HETATM   22  C   UNL     1     -43.158  57.437 -60.248  1.00  0.00     0.066 A 
BRANCH  19  23
HETATM   23  O   UNL     1     -46.938  58.505 -58.880  1.00  0.00    -0.356 OA
HETATM   24  C   UNL     1     -47.102  59.914 -58.752  1.00  0.00     0.210 C 
ENDBRANCH  19  23
BRANCH  21  25
HETATM   25  O   UNL     1     -44.018  55.171 -60.687  1.00  0.00    -0.356 OA
HETATM   26  C   UNL     1     -45.104  54.284 -60.448  1.00  0.00     0.210 C 
ENDBRANCH  21  25
ENDBRANCH  15  17
ENDBRANCH  13  15
ENDBRANCH  11  13
ENDBRANCH  10  11
ENDBRANCH   4  10
BRANCH   1  27
HETATM   27  C   UNL     1     -42.856  57.561 -52.605  1.00  0.00     0.038 C 
HETATM   28  N   UNL     1     -43.633  56.691 -51.871  1.00  0.00    -0.277 N 
HETATM   29  C   UNL     1     -44.733  56.908 -50.961  1.00  0.00     0.179 C 
HETATM   30  N   UNL     1     -43.282  55.406 -52.045  1.00  0.00    -0.172 NA
HETATM   31  C   UNL     1     -42.119  55.429 -52.701  1.00  0.00     0.089 C 
HETATM   32  C   UNL     1     -41.824  56.758 -53.082  1.00  0.00     0.061 C 
BRANCH  31  33
HETATM   33  C   UNL     1     -41.350  54.214 -52.965  1.00  0.00    -0.003 A 
HETATM   34  C   UNL     1     -40.747  53.513 -51.910  1.00  0.00     0.053 A 
HETATM   35  C   UNL     1     -40.009  52.347 -52.150  1.00  0.00     0.102 A 
HETATM   36  C   UNL     1     -39.857  51.877 -53.470  1.00  0.00     0.101 A 
HETATM   37  C   UNL     1     -40.452  52.577 -54.523  1.00  0.00     0.040 A 
HETATM   38  C   UNL     1     -41.195  53.736 -54.272  1.00  0.00     0.017 A 
BRANCH  35  39
HETATM   39  O   UNL     1     -39.402  51.598 -51.173  1.00  0.00    -0.353 OA
HETATM   40  C   UNL     1     -40.233  50.849 -50.298  1.00  0.00     0.210 C 
ENDBRANCH  35  39
BRANCH  36  41
HETATM   41  O   UNL     1     -39.121  50.730 -53.623  1.00  0.00    -0.353 OA
HETATM   42  C   UNL     1     -39.566  49.781 -54.582  1.00  0.00     0.210 C 
ENDBRANCH  36  41
ENDBRANCH  31  33
ENDBRANCH   1  27
TORSDOF 11
ENDMDL
MODEL 10
REMARK VINA RESULT:      -7.3      1.815      2.209
REMARK  11 active torsions:
REMARK  status: ('A' for Active; 'I' for Inactive)
REMARK    1  A    between atoms: C_4  and  C_5 
REMARK    2  A    between atoms: C_7  and  O_8 
REMARK    3  A    between atoms: C_10  and  O_11 
REMARK    4  A    between atoms: C_16  and  C_17 
REMARK    5  A    between atoms: C_20  and  C_21 
REMARK    6  A    between atoms: C_21  and  N_22 
REMARK    7  A    between atoms: N_22  and  C_23 
REMARK    8  A    between atoms: C_23  and  N_24 
REMARK    9  A    between atoms: N_24  and  C_25 
REMARK   10  A    between atoms: C_27  and  O_28 
REMARK   11  A    between atoms: C_31  and  O_32 
ROOT
HETATM    1  C   UNL     1     -43.396  56.907 -57.611  1.00  0.00     0.067 C 
HETATM    2  C   UNL     1     -42.114  57.429 -58.290  1.00  0.00     0.001 C 
HETATM    3  C   UNL     1     -42.000  58.964 -58.148  1.00  0.00     0.040 C 
HETATM    4  C   UNL     1     -43.133  59.677 -58.908  1.00  0.00     0.206 C 
HETATM    5  N   UNL     1     -44.156  58.604 -59.290  1.00  0.00    -0.065 N 
HETATM    6  H   UNL     1     -44.982  59.068 -59.696  1.00  0.00     0.280 HD
HETATM    7  C   UNL     1     -44.594  57.773 -58.090  1.00  0.00     0.246 C 
HETATM    8  C   UNL     1     -42.250  57.126 -59.805  1.00  0.00     0.033 C 
HETATM    9  C   UNL     1     -43.558  57.703 -60.357  1.00  0.00     0.236 C 
ENDROOT
BRANCH   4  10
HETATM   10  C   UNL     1     -43.786  60.828 -58.110  1.00  0.00     0.155 C 
BRANCH  10  11
HETATM   11  N   UNL     1     -43.439  60.836 -56.694  1.00  0.00    -0.365 N 
HETATM   12  H   UNL     1     -43.086  59.973 -56.294  1.00  0.00     0.161 HD
BRANCH  11  13
HETATM   13  C   UNL     1     -43.484  61.898 -55.837  1.00  0.00     0.172 C 
HETATM   14  S   UNL     1     -44.283  63.333 -56.145  1.00  0.00    -0.041 SA
BRANCH  13  15
HETATM   15  N   UNL     1     -42.759  61.794 -54.684  1.00  0.00    -0.333 N 
HETATM   16  H   UNL     1     -42.128  62.578 -54.534  1.00  0.00     0.168 HD
BRANCH  15  17
HETATM   17  C   UNL     1     -42.853  60.888 -53.603  1.00  0.00     0.039 A 
HETATM   18  C   UNL     1     -43.894  60.901 -52.671  1.00  0.00     0.066 A 
HETATM   19  C   UNL     1     -43.935  59.979 -51.622  1.00  0.00     0.073 A 
HETATM   20  C   UNL     1     -42.905  59.053 -51.486  1.00  0.00     0.073 A 
HETATM   21  C   UNL     1     -41.827  59.060 -52.376  1.00  0.00     0.073 A 
HETATM   22  C   UNL     1     -41.803  59.977 -53.431  1.00  0.00     0.066 A 
BRANCH  19  23
HETATM   23  O   UNL     1     -45.030  60.096 -50.808  1.00  0.00    -0.356 OA
HETATM   24  C   UNL     1     -46.305  60.064 -51.441  1.00  0.00     0.210 C 
ENDBRANCH  19  23
BRANCH  21  25
HETATM   25  O   UNL     1     -40.874  58.114 -52.114  1.00  0.00    -0.356 OA
HETATM   26  C   UNL     1     -40.750  57.670 -50.768  1.00  0.00     0.210 C 
ENDBRANCH  21  25
ENDBRANCH  15  17
ENDBRANCH  13  15
ENDBRANCH  11  13
ENDBRANCH  10  11
ENDBRANCH   4  10
BRANCH   1  27
HETATM   27  C   UNL     1     -43.457  56.691 -56.120  1.00  0.00     0.038 C 
HETATM   28  N   UNL     1     -44.246  57.255 -55.140  1.00  0.00    -0.277 N 
HETATM   29  C   UNL     1     -45.173  58.362 -55.163  1.00  0.00     0.179 C 
HETATM   30  N   UNL     1     -44.110  56.650 -53.948  1.00  0.00    -0.172 NA
HETATM   31  C   UNL     1     -43.053  55.842 -54.067  1.00  0.00     0.089 C 
HETATM   32  C   UNL     1     -42.624  55.828 -55.414  1.00  0.00     0.061 C 
BRANCH  31  33
HETATM   33  C   UNL     1     -42.508  55.102 -52.930  1.00  0.00    -0.003 A 
HETATM   34  C   UNL     1     -41.353  54.319 -53.080  1.00  0.00     0.053 A 
HETATM   35  C   UNL     1     -40.821  53.607 -51.999  1.00  0.00     0.102 A 
HETATM   36  C   UNL     1     -41.460  53.664 -50.744  1.00  0.00     0.101 A 
HETATM   37  C   UNL     1     -42.613  54.439 -50.593  1.00  0.00     0.040 A 
HETATM   38  C   UNL     1     -43.132  55.154 -51.677  1.00  0.00     0.017 A 
BRANCH  35  39
HETATM   39  O   UNL     1     -39.690  52.831 -52.061  1.00  0.00    -0.353 OA
HETATM   40  C   UNL     1     -39.712  51.695 -52.913  1.00  0.00     0.210 C 
ENDBRANCH  35  39
BRANCH  36  41
HETATM   41  O   UNL     1     -40.877  52.939 -49.735  1.00  0.00    -0.353 OA
HETATM   42  C   UNL     1     -40.429  53.646 -48.587  1.00  0.00     0.210 C 
ENDBRANCH  36  41
ENDBRANCH  31  33
ENDBRANCH   1  27
TORSDOF 11
ENDMDL
