MODEL 1
REMARK VINA RESULT:      -8.2      0.000      0.000
REMARK  8 active torsions:
REMARK  status: ('A' for Active; 'I' for Inactive)
REMARK    1  A    between atoms: C_2  and  C_3 
REMARK    2  A    between atoms: C_3  and  N_4 
REMARK    3  A    between atoms: C_5  and  S_6 
REMARK    4  A    between atoms: S_6  and  C_7 
REMARK    5  A    between atoms: C_7  and  C_8 
REMARK       I    between atoms: C_8  and  N_9 
REMARK    6  A    between atoms: N_9  and  C_10 
REMARK    7  A    between atoms: C_23  and  C_24 
REMARK    8  A    between atoms: C_25  and  O_26 
ROOT
HETATM    1  S   UNL     1     -43.424  60.644 -53.938  1.00  0.00    -0.081 SA
ENDROOT
BRANCH   1   2
HETATM    2  C   UNL     1     -42.286  59.383 -53.634  1.00  0.00     0.192 A 
HETATM    3  N   UNL     1     -42.593  58.066 -53.415  1.00  0.00    -0.304 N 
HETATM    4  C   UNL     1     -41.391  57.464 -53.090  1.00  0.00     0.167 A 
HETATM    5  N   UNL     1     -40.433  58.375 -53.172  1.00  0.00    -0.128 NA
HETATM    6  N   UNL     1     -40.992  59.567 -53.533  1.00  0.00    -0.122 NA
BRANCH   3   7
HETATM    7  C   UNL     1     -43.913  57.461 -53.433  1.00  0.00     0.159 C 
BRANCH   7   8
HETATM    8  C   UNL     1     -44.488  57.300 -52.056  1.00  0.00    -0.017 C 
HETATM    9  C   UNL     1     -45.054  58.292 -51.356  1.00  0.00     0.008 C 
ENDBRANCH   7   8
ENDBRANCH   3   7
BRANCH   4  10
HETATM   10  C   UNL     1     -41.180  56.122 -52.552  1.00  0.00     0.046 A 
HETATM   11  C   UNL     1     -41.231  55.913 -51.161  1.00  0.00     0.079 A 
HETATM   12  C   UNL     1     -41.083  54.642 -50.611  1.00  0.00     0.039 A 
HETATM   13  C   UNL     1     -40.845  53.553 -51.447  1.00  0.00     0.022 A 
HETATM   14  C   UNL     1     -40.747  53.752 -52.824  1.00  0.00     0.012 A 
HETATM   15 BR   UNL     1     -40.402  52.278 -53.957  1.00  0.00    -0.051 Br
HETATM   16  C   UNL     1     -40.904  55.026 -53.378  1.00  0.00     0.037 A 
BRANCH  11  17
HETATM   17  O   UNL     1     -41.431  56.937 -50.273  1.00  0.00    -0.360 OA
HETATM   18  H   UNL     1     -42.384  57.167 -50.276  1.00  0.00     0.217 HD
ENDBRANCH  11  17
ENDBRANCH   4  10
ENDBRANCH   1   2
BRANCH   1  19
HETATM   19  C   UNL     1     -42.807  61.258 -55.539  1.00  0.00     0.185 C 
BRANCH  19  20
HETATM   20  C   UNL     1     -42.613  60.155 -56.573  1.00  0.00     0.231 C 
HETATM   21  N   UNL     1     -43.715  59.344 -56.762  1.00  0.00    -0.326 N 
HETATM   22  H   UNL     1     -44.568  59.623 -56.281  1.00  0.00     0.169 HD
HETATM   23  O   UNL     1     -41.520  60.011 -57.119  1.00  0.00    -0.272 OA
BRANCH  21  24
HETATM   24  C   UNL     1     -43.816  58.189 -57.562  1.00  0.00     0.037 A 
HETATM   25  C   UNL     1     -44.478  58.159 -58.795  1.00  0.00     0.061 A 
HETATM   26  C   UNL     1     -44.460  56.967 -59.484  1.00  0.00     0.065 A 
HETATM   27  C   UNL     1     -43.835  55.825 -58.988  1.00  0.00     0.063 A 
HETATM   28  N   UNL     1     -44.993  56.654 -60.730  1.00  0.00    -0.306 N 
HETATM   29  N   UNL     1     -43.993  54.808 -59.923  1.00  0.00    -0.307 N 
HETATM   30  C   UNL     1     -43.187  55.815 -57.780  1.00  0.00     0.034 A 
HETATM   31  C   UNL     1     -44.706  55.312 -61.020  1.00  0.00     0.325 A 
HETATM   32  H   UNL     1     -43.650  53.864 -59.865  1.00  0.00     0.170 HD
HETATM   33  O   UNL     1     -45.012  54.703 -62.029  1.00  0.00    -0.247 OA
HETATM   34  C   UNL     1     -43.172  57.022 -57.070  1.00  0.00     0.032 A 
HETATM   35  H   UNL     1     -45.491  57.272 -61.350  1.00  0.00     0.170 HD
ENDBRANCH  21  24
ENDBRANCH  19  20
ENDBRANCH   1  19
TORSDOF 8
ENDMDL
MODEL 2
REMARK VINA RESULT:      -8.1      2.332      3.615
REMARK  8 active torsions:
REMARK  status: ('A' for Active; 'I' for Inactive)
REMARK    1  A    between atoms: C_2  and  C_3 
REMARK    2  A    between atoms: C_3  and  N_4 
REMARK    3  A    between atoms: C_5  and  S_6 
REMARK    4  A    between atoms: S_6  and  C_7 
REMARK    5  A    between atoms: C_7  and  C_8 
REMARK       I    between atoms: C_8  and  N_9 
REMARK    6  A    between atoms: N_9  and  C_10 
REMARK    7  A    between atoms: C_23  and  C_24 
REMARK    8  A    between atoms: C_25  and  O_26 
ROOT
HETATM    1  S   UNL     1     -43.427  59.030 -51.406  1.00  0.00    -0.081 SA
ENDROOT
BRANCH   1   2
HETATM    2  C   UNL     1     -43.247  57.541 -52.260  1.00  0.00     0.192 A 
HETATM    3  N   UNL     1     -42.294  56.588 -52.010  1.00  0.00    -0.304 N 
HETATM    4  C   UNL     1     -42.452  55.649 -53.013  1.00  0.00     0.167 A 
HETATM    5  N   UNL     1     -43.477  56.014 -53.769  1.00  0.00    -0.128 NA
HETATM    6  N   UNL     1     -43.984  57.184 -53.282  1.00  0.00    -0.122 NA
BRANCH   3   7
HETATM    7  C   UNL     1     -41.283  56.614 -50.968  1.00  0.00     0.159 C 
BRANCH   7   8
HETATM    8  C   UNL     1     -41.691  55.833 -49.754  1.00  0.00    -0.017 C 
HETATM    9  C   UNL     1     -40.889  54.978 -49.104  1.00  0.00     0.008 C 
ENDBRANCH   7   8
ENDBRANCH   3   7
BRANCH   4  10
HETATM   10  C   UNL     1     -41.558  54.543 -53.350  1.00  0.00     0.046 A 
HETATM   11  C   UNL     1     -41.086  54.406 -54.668  1.00  0.00     0.079 A 
HETATM   12  C   UNL     1     -40.195  53.394 -55.020  1.00  0.00     0.039 A 
HETATM   13  C   UNL     1     -39.784  52.473 -54.059  1.00  0.00     0.022 A 
HETATM   14  C   UNL     1     -40.279  52.570 -52.758  1.00  0.00     0.012 A 
HETATM   15 BR   UNL     1     -39.740  51.308 -51.458  1.00  0.00    -0.051 Br
HETATM   16  C   UNL     1     -41.167  53.590 -52.402  1.00  0.00     0.037 A 
BRANCH  11  17
HETATM   17  O   UNL     1     -41.468  55.252 -55.676  1.00  0.00    -0.360 OA
HETATM   18  H   UNL     1     -41.049  56.125 -55.521  1.00  0.00     0.217 HD
ENDBRANCH  11  17
ENDBRANCH   4  10
ENDBRANCH   1   2
BRANCH   1  19
HETATM   19  C   UNL     1     -41.848  59.837 -51.826  1.00  0.00     0.185 C 
BRANCH  19  20
HETATM   20  C   UNL     1     -41.386  59.553 -53.250  1.00  0.00     0.231 C 
HETATM   21  N   UNL     1     -42.338  59.791 -54.222  1.00  0.00    -0.326 N 
HETATM   22  H   UNL     1     -43.204  60.227 -53.907  1.00  0.00     0.169 HD
HETATM   23  O   UNL     1     -40.263  59.093 -53.451  1.00  0.00    -0.272 OA
BRANCH  21  24
HETATM   24  C   UNL     1     -42.254  59.530 -55.604  1.00  0.00     0.037 A 
HETATM   25  C   UNL     1     -42.309  58.244 -56.151  1.00  0.00     0.061 A 
HETATM   26  C   UNL     1     -42.254  58.147 -57.523  1.00  0.00     0.065 A 
HETATM   27  C   UNL     1     -42.128  59.262 -58.348  1.00  0.00     0.063 A 
HETATM   28  N   UNL     1     -42.324  57.020 -58.337  1.00  0.00    -0.306 N 
HETATM   29  N   UNL     1     -42.110  58.822 -59.667  1.00  0.00    -0.307 N 
HETATM   30  C   UNL     1     -42.060  60.536 -57.846  1.00  0.00     0.034 A 
HETATM   31  C   UNL     1     -42.240  57.425 -59.677  1.00  0.00     0.325 A 
HETATM   32  H   UNL     1     -42.038  59.383 -60.499  1.00  0.00     0.170 HD
HETATM   33  O   UNL     1     -42.278  56.707 -60.660  1.00  0.00    -0.247 OA
HETATM   34  C   UNL     1     -42.137  60.663 -56.453  1.00  0.00     0.032 A 
HETATM   35  H   UNL     1     -42.434  56.064 -58.042  1.00  0.00     0.170 HD
ENDBRANCH  21  24
ENDBRANCH  19  20
ENDBRANCH   1  19
TORSDOF 8
ENDMDL
MODEL 3
REMARK VINA RESULT:      -8.0      2.434      3.404
REMARK  8 active torsions:
REMARK  status: ('A' for Active; 'I' for Inactive)
REMARK    1  A    between atoms: C_2  and  C_3 
REMARK    2  A    between atoms: C_3  and  N_4 
REMARK    3  A    between atoms: C_5  and  S_6 
REMARK    4  A    between atoms: S_6  and  C_7 
REMARK    5  A    between atoms: C_7  and  C_8 
REMARK       I    between atoms: C_8  and  N_9 
REMARK    6  A    between atoms: N_9  and  C_10 
REMARK    7  A    between atoms: C_23  and  C_24 
REMARK    8  A    between atoms: C_25  and  O_26 
ROOT
HETATM    1  S   UNL     1     -43.450  57.249 -51.404  1.00  0.00    -0.081 SA
ENDROOT
BRANCH   1   2
HETATM    2  C   UNL     1     -42.140  56.136 -51.250  1.00  0.00     0.192 A 
HETATM    3  N   UNL     1     -42.098  54.875 -51.782  1.00  0.00    -0.304 N 
HETATM    4  C   UNL     1     -40.931  54.315 -51.295  1.00  0.00     0.167 A 
HETATM    5  N   UNL     1     -40.306  55.226 -50.564  1.00  0.00    -0.128 NA
HETATM    6  N   UNL     1     -41.053  56.369 -50.556  1.00  0.00    -0.122 NA
BRANCH   3   7
HETATM    7  C   UNL     1     -43.110  54.239 -52.607  1.00  0.00     0.159 C 
BRANCH   7   8
HETATM    8  C   UNL     1     -43.036  54.671 -54.042  1.00  0.00    -0.017 C 
HETATM    9  C   UNL     1     -42.269  54.079 -54.968  1.00  0.00     0.008 C 
ENDBRANCH   7   8
ENDBRANCH   3   7
BRANCH   4  10
HETATM   10  C   UNL     1     -40.509  52.918 -51.371  1.00  0.00     0.046 A 
HETATM   11  C   UNL     1     -40.402  52.158 -50.192  1.00  0.00     0.079 A 
HETATM   12  C   UNL     1     -40.050  50.810 -50.226  1.00  0.00     0.039 A 
HETATM   13  C   UNL     1     -39.763  50.204 -51.446  1.00  0.00     0.022 A 
HETATM   14  C   UNL     1     -39.821  50.957 -52.619  1.00  0.00     0.012 A 
HETATM   15 BR   UNL     1     -39.409  50.140 -54.273  1.00  0.00    -0.051 Br
HETATM   16  C   UNL     1     -40.182  52.307 -52.587  1.00  0.00     0.037 A 
BRANCH  11  17
HETATM   17  O   UNL     1     -40.639  52.690 -48.951  1.00  0.00    -0.360 OA
HETATM   18  H   UNL     1     -39.937  52.378 -48.343  1.00  0.00     0.217 HD
ENDBRANCH  11  17
ENDBRANCH   4  10
ENDBRANCH   1   2
BRANCH   1  19
HETATM   19  C   UNL     1     -42.602  58.634 -52.233  1.00  0.00     0.185 C 
BRANCH  19  20
HETATM   20  C   UNL     1     -42.160  58.306 -53.653  1.00  0.00     0.231 C 
HETATM   21  N   UNL     1     -43.143  58.467 -54.612  1.00  0.00    -0.326 N 
HETATM   22  H   UNL     1     -44.017  58.883 -54.296  1.00  0.00     0.169 HD
HETATM   23  O   UNL     1     -41.025  57.880 -53.861  1.00  0.00    -0.272 OA
BRANCH  21  24
HETATM   24  C   UNL     1     -43.078  58.150 -55.983  1.00  0.00     0.037 A 
HETATM   25  C   UNL     1     -43.824  57.124 -56.575  1.00  0.00     0.061 A 
HETATM   26  C   UNL     1     -43.687  56.958 -57.935  1.00  0.00     0.065 A 
HETATM   27  C   UNL     1     -42.836  57.748 -58.704  1.00  0.00     0.063 A 
HETATM   28  N   UNL     1     -44.320  56.059 -58.787  1.00  0.00    -0.306 N 
HETATM   29  N   UNL     1     -42.938  57.329 -60.025  1.00  0.00    -0.307 N 
HETATM   30  C   UNL     1     -42.083  58.755 -58.156  1.00  0.00     0.034 A 
HETATM   31  C   UNL     1     -43.867  56.281 -60.095  1.00  0.00     0.325 A 
HETATM   32  H   UNL     1     -42.457  57.705 -60.825  1.00  0.00     0.170 HD
HETATM   33  O   UNL     1     -44.214  55.684 -61.098  1.00  0.00    -0.247 OA
HETATM   34  C   UNL     1     -42.221  58.958 -56.778  1.00  0.00     0.032 A 
HETATM   35  H   UNL     1     -45.007  55.366 -58.536  1.00  0.00     0.170 HD
ENDBRANCH  21  24
ENDBRANCH  19  20
ENDBRANCH   1  19
TORSDOF 8
ENDMDL
MODEL 4
REMARK VINA RESULT:      -7.7      1.955      2.781
REMARK  8 active torsions:
REMARK  status: ('A' for Active; 'I' for Inactive)
REMARK    1  A    between atoms: C_2  and  C_3 
REMARK    2  A    between atoms: C_3  and  N_4 
REMARK    3  A    between atoms: C_5  and  S_6 
REMARK    4  A    between atoms: S_6  and  C_7 
REMARK    5  A    between atoms: C_7  and  C_8 
REMARK       I    between atoms: C_8  and  N_9 
REMARK    6  A    between atoms: N_9  and  C_10 
REMARK    7  A    between atoms: C_23  and  C_24 
REMARK    8  A    between atoms: C_25  and  O_26 
ROOT
HETATM    1  S   UNL     1     -43.667  59.435 -52.436  1.00  0.00    -0.081 SA
ENDROOT
BRANCH   1   2
HETATM    2  C   UNL     1     -43.492  57.787 -52.918  1.00  0.00     0.192 A 
HETATM    3  N   UNL     1     -42.388  57.004 -52.701  1.00  0.00    -0.304 N 
HETATM    4  C   UNL     1     -42.647  55.821 -53.369  1.00  0.00     0.167 A 
HETATM    5  N   UNL     1     -43.859  55.898 -53.898  1.00  0.00    -0.128 NA
HETATM    6  N   UNL     1     -44.392  57.118 -53.596  1.00  0.00    -0.122 NA
BRANCH   3   7
HETATM    7  C   UNL     1     -41.175  57.379 -51.995  1.00  0.00     0.159 C 
BRANCH   7   8
HETATM    8  C   UNL     1     -41.318  57.261 -50.506  1.00  0.00    -0.017 C 
HETATM    9  C   UNL     1     -41.220  56.110 -49.829  1.00  0.00     0.008 C 
ENDBRANCH   7   8
ENDBRANCH   3   7
BRANCH   4  10
HETATM   10  C   UNL     1     -41.716  54.729 -53.646  1.00  0.00     0.046 A 
HETATM   11  C   UNL     1     -41.234  54.541 -54.955  1.00  0.00     0.079 A 
HETATM   12  C   UNL     1     -40.309  53.543 -55.252  1.00  0.00     0.039 A 
HETATM   13  C   UNL     1     -39.872  52.687 -54.244  1.00  0.00     0.022 A 
HETATM   14  C   UNL     1     -40.375  52.833 -52.951  1.00  0.00     0.012 A 
HETATM   15 BR   UNL     1     -39.800  51.657 -51.587  1.00  0.00    -0.051 Br
HETATM   16  C   UNL     1     -41.297  53.840 -52.650  1.00  0.00     0.037 A 
BRANCH  11  17
HETATM   17  O   UNL     1     -41.638  55.323 -56.005  1.00  0.00    -0.360 OA
HETATM   18  H   UNL     1     -40.895  55.395 -56.640  1.00  0.00     0.217 HD
ENDBRANCH  11  17
ENDBRANCH   4  10
ENDBRANCH   1   2
BRANCH   1  19
HETATM   19  C   UNL     1     -42.950  60.274 -53.886  1.00  0.00     0.185 C 
BRANCH  19  20
HETATM   20  C   UNL     1     -43.566  59.830 -55.206  1.00  0.00     0.231 C 
HETATM   21  N   UNL     1     -42.913  58.778 -55.820  1.00  0.00    -0.326 N 
HETATM   22  H   UNL     1     -42.163  58.341 -55.288  1.00  0.00     0.169 HD
HETATM   23  O   UNL     1     -44.532  60.435 -55.668  1.00  0.00    -0.272 OA
BRANCH  21  24
HETATM   24  C   UNL     1     -43.173  58.213 -57.085  1.00  0.00     0.037 A 
HETATM   25  C   UNL     1     -44.296  57.425 -57.362  1.00  0.00     0.061 A 
HETATM   26  C   UNL     1     -44.437  56.976 -58.655  1.00  0.00     0.065 A 
HETATM   27  C   UNL     1     -43.509  57.262 -59.654  1.00  0.00     0.063 A 
HETATM   28  N   UNL     1     -45.455  56.216 -59.225  1.00  0.00    -0.306 N 
HETATM   29  N   UNL     1     -43.950  56.671 -60.832  1.00  0.00    -0.307 N 
HETATM   30  C   UNL     1     -42.393  58.021 -59.415  1.00  0.00     0.034 A 
HETATM   31  C   UNL     1     -45.168  56.022 -60.583  1.00  0.00     0.325 A 
HETATM   32  H   UNL     1     -43.506  56.700 -61.735  1.00  0.00     0.170 HD
HETATM   33  O   UNL     1     -45.844  55.412 -61.392  1.00  0.00    -0.247 OA
HETATM   34  C   UNL     1     -42.238  58.509 -58.112  1.00  0.00     0.032 A 
HETATM   35  H   UNL     1     -46.281  55.867 -58.766  1.00  0.00     0.170 HD
ENDBRANCH  21  24
ENDBRANCH  19  20
ENDBRANCH   1  19
TORSDOF 8
ENDMDL
MODEL 5
REMARK VINA RESULT:      -7.7      2.042      2.836
REMARK  8 active torsions:
REMARK  status: ('A' for Active; 'I' for Inactive)
REMARK    1  A    between atoms: C_2  and  C_3 
REMARK    2  A    between atoms: C_3  and  N_4 
REMARK    3  A    between atoms: C_5  and  S_6 
REMARK    4  A    between atoms: S_6  and  C_7 
REMARK    5  A    between atoms: C_7  and  C_8 
REMARK       I    between atoms: C_8  and  N_9 
REMARK    6  A    between atoms: N_9  and  C_10 
REMARK    7  A    between atoms: C_23  and  C_24 
REMARK    8  A    between atoms: C_25  and  O_26 
ROOT
HETATM    1  S   UNL     1     -44.533  60.348 -51.100  1.00  0.00    -0.081 SA
ENDROOT
BRANCH   1   2
HETATM    2  C   UNL     1     -44.156  58.667 -50.995  1.00  0.00     0.192 A 
HETATM    3  N   UNL     1     -42.896  58.130 -50.992  1.00  0.00    -0.304 N 
HETATM    4  C   UNL     1     -43.086  56.761 -51.028  1.00  0.00     0.167 A 
HETATM    5  N   UNL     1     -44.388  56.520 -50.999  1.00  0.00    -0.128 NA
HETATM    6  N   UNL     1     -45.052  57.712 -50.956  1.00  0.00    -0.122 NA
BRANCH   3   7
HETATM    7  C   UNL     1     -41.637  58.853 -51.034  1.00  0.00     0.159 C 
BRANCH   7   8
HETATM    8  C   UNL     1     -41.255  59.260 -52.426  1.00  0.00    -0.017 C 
HETATM    9  C   UNL     1     -40.334  58.633 -53.169  1.00  0.00     0.008 C 
ENDBRANCH   7   8
ENDBRANCH   3   7
BRANCH   4  10
HETATM   10  C   UNL     1     -42.082  55.724 -51.261  1.00  0.00     0.046 A 
HETATM   11  C   UNL     1     -41.268  55.292 -50.197  1.00  0.00     0.079 A 
HETATM   12  C   UNL     1     -40.333  54.273 -50.365  1.00  0.00     0.039 A 
HETATM   13  C   UNL     1     -40.171  53.687 -51.618  1.00  0.00     0.022 A 
HETATM   14  C   UNL     1     -40.939  54.136 -52.692  1.00  0.00     0.012 A 
HETATM   15 BR   UNL     1     -40.703  53.357 -54.398  1.00  0.00    -0.051 Br
HETATM   16  C   UNL     1     -41.884  55.153 -52.523  1.00  0.00     0.037 A 
BRANCH  11  17
HETATM   17  O   UNL     1     -41.347  55.840 -48.943  1.00  0.00    -0.360 OA
HETATM   18  H   UNL     1     -40.441  56.071 -48.650  1.00  0.00     0.217 HD
ENDBRANCH  11  17
ENDBRANCH   4  10
ENDBRANCH   1   2
BRANCH   1  19
HETATM   19  C   UNL     1     -45.579  60.352 -52.592  1.00  0.00     0.185 C 
BRANCH  19  20
HETATM   20  C   UNL     1     -44.826  59.963 -53.858  1.00  0.00     0.231 C 
HETATM   21  N   UNL     1     -45.053  58.668 -54.286  1.00  0.00    -0.326 N 
HETATM   22  H   UNL     1     -45.770  58.147 -53.785  1.00  0.00     0.169 HD
HETATM   23  O   UNL     1     -44.047  60.759 -54.379  1.00  0.00    -0.272 OA
BRANCH  21  24
HETATM   24  C   UNL     1     -44.433  57.985 -55.351  1.00  0.00     0.037 A 
HETATM   25  C   UNL     1     -44.909  58.012 -56.667  1.00  0.00     0.061 A 
HETATM   26  C   UNL     1     -44.174  57.328 -57.609  1.00  0.00     0.065 A 
HETATM   27  C   UNL     1     -43.020  56.617 -57.288  1.00  0.00     0.063 A 
HETATM   28  N   UNL     1     -44.380  57.210 -58.981  1.00  0.00    -0.306 N 
HETATM   29  N   UNL     1     -42.523  56.055 -58.458  1.00  0.00    -0.307 N 
HETATM   30  C   UNL     1     -42.532  56.560 -56.008  1.00  0.00     0.034 A 
HETATM   31  C   UNL     1     -43.355  56.423 -59.525  1.00  0.00     0.325 A 
HETATM   32  H   UNL     1     -41.697  55.490 -58.563  1.00  0.00     0.170 HD
HETATM   33  O   UNL     1     -43.212  56.120 -60.695  1.00  0.00    -0.247 OA
HETATM   34  C   UNL     1     -43.249  57.266 -55.035  1.00  0.00     0.032 A 
HETATM   35  H   UNL     1     -45.122  57.626 -59.521  1.00  0.00     0.170 HD
ENDBRANCH  21  24
ENDBRANCH  19  20
ENDBRANCH   1  19
TORSDOF 8
ENDMDL
MODEL 6
REMARK VINA RESULT:      -7.7      3.693      7.108
REMARK  8 active torsions:
REMARK  status: ('A' for Active; 'I' for Inactive)
REMARK    1  A    between atoms: C_2  and  C_3 
REMARK    2  A    between atoms: C_3  and  N_4 
REMARK    3  A    between atoms: C_5  and  S_6 
REMARK    4  A    between atoms: S_6  and  C_7 
REMARK    5  A    between atoms: C_7  and  C_8 
REMARK       I    between atoms: C_8  and  N_9 
REMARK    6  A    between atoms: N_9  and  C_10 
REMARK    7  A    between atoms: C_23  and  C_24 
REMARK    8  A    between atoms: C_25  and  O_26 
ROOT
HETATM    1  S   UNL     1     -44.079  57.990 -52.277  1.00  0.00    -0.081 SA
ENDROOT
BRANCH   1   2
HETATM    2  C   UNL     1     -43.179  57.771 -53.733  1.00  0.00     0.192 A 
HETATM    3  N   UNL     1     -43.674  57.898 -55.004  1.00  0.00    -0.304 N 
HETATM    4  C   UNL     1     -42.640  57.506 -55.835  1.00  0.00     0.167 A 
HETATM    5  N   UNL     1     -41.587  57.220 -55.085  1.00  0.00    -0.128 NA
HETATM    6  N   UNL     1     -41.920  57.408 -53.774  1.00  0.00    -0.122 NA
BRANCH   3   7
HETATM    7  C   UNL     1     -45.023  58.277 -55.384  1.00  0.00     0.159 C 
BRANCH   7   8
HETATM    8  C   UNL     1     -45.207  59.765 -55.437  1.00  0.00    -0.017 C 
HETATM    9  C   UNL     1     -44.264  60.627 -55.840  1.00  0.00     0.008 C 
ENDBRANCH   7   8
ENDBRANCH   3   7
BRANCH   4  10
HETATM   10  C   UNL     1     -42.699  57.241 -57.272  1.00  0.00     0.046 A 
HETATM   11  C   UNL     1     -43.079  55.966 -57.729  1.00  0.00     0.079 A 
HETATM   12  C   UNL     1     -43.195  55.687 -59.089  1.00  0.00     0.039 A 
HETATM   13  C   UNL     1     -42.896  56.677 -60.023  1.00  0.00     0.022 A 
HETATM   14  C   UNL     1     -42.474  57.931 -59.585  1.00  0.00     0.012 A 
HETATM   15 BR   UNL     1     -42.045  59.267 -60.851  1.00  0.00    -0.051 Br
HETATM   16  C   UNL     1     -42.366  58.215 -58.220  1.00  0.00     0.037 A 
BRANCH  11  17
HETATM   17  O   UNL     1     -43.361  54.933 -56.874  1.00  0.00    -0.360 OA
HETATM   18  H   UNL     1     -44.253  54.590 -57.089  1.00  0.00     0.217 HD
ENDBRANCH  11  17
ENDBRANCH   4  10
ENDBRANCH   1   2
BRANCH   1  19
HETATM   19  C   UNL     1     -42.869  57.384 -51.055  1.00  0.00     0.185 C 
BRANCH  19  20
HETATM   20  C   UNL     1     -42.653  55.877 -51.118  1.00  0.00     0.231 C 
HETATM   21  N   UNL     1     -41.425  55.494 -51.622  1.00  0.00    -0.326 N 
HETATM   22  H   UNL     1     -40.756  56.242 -51.798  1.00  0.00     0.169 HD
HETATM   23  O   UNL     1     -43.557  55.112 -50.789  1.00  0.00    -0.272 OA
BRANCH  21  24
HETATM   24  C   UNL     1     -40.968  54.190 -51.900  1.00  0.00     0.037 A 
HETATM   25  C   UNL     1     -41.043  53.599 -53.166  1.00  0.00     0.061 A 
HETATM   26  C   UNL     1     -40.519  52.333 -53.295  1.00  0.00     0.065 A 
HETATM   27  C   UNL     1     -39.955  51.643 -52.225  1.00  0.00     0.063 A 
HETATM   28  N   UNL     1     -40.421  51.524 -54.424  1.00  0.00    -0.306 N 
HETATM   29  N   UNL     1     -39.519  50.408 -52.692  1.00  0.00    -0.307 N 
HETATM   30  C   UNL     1     -39.874  52.187 -50.969  1.00  0.00     0.034 A 
HETATM   31  C   UNL     1     -39.795  50.322 -54.064  1.00  0.00     0.325 A 
HETATM   32  H   UNL     1     -39.061  49.682 -52.167  1.00  0.00     0.170 HD
HETATM   33  O   UNL     1     -39.537  49.386 -54.799  1.00  0.00    -0.247 OA
HETATM   34  C   UNL     1     -40.380  53.483 -50.817  1.00  0.00     0.032 A 
HETATM   35  H   UNL     1     -40.724  51.746 -55.358  1.00  0.00     0.170 HD
ENDBRANCH  21  24
ENDBRANCH  19  20
ENDBRANCH   1  19
TORSDOF 8
ENDMDL
MODEL 7
REMARK VINA RESULT:      -7.6      3.379      7.091
REMARK  8 active torsions:
REMARK  status: ('A' for Active; 'I' for Inactive)
REMARK    1  A    between atoms: C_2  and  C_3 
REMARK    2  A    between atoms: C_3  and  N_4 
REMARK    3  A    between atoms: C_5  and  S_6 
REMARK    4  A    between atoms: S_6  and  C_7 
REMARK    5  A    between atoms: C_7  and  C_8 
REMARK       I    between atoms: C_8  and  N_9 
REMARK    6  A    between atoms: N_9  and  C_10 
REMARK    7  A    between atoms: C_23  and  C_24 
REMARK    8  A    between atoms: C_25  and  O_26 
ROOT
HETATM    1  S   UNL     1     -44.317  58.037 -52.514  1.00  0.00    -0.081 SA
ENDROOT
BRANCH   1   2
HETATM    2  C   UNL     1     -43.410  57.889 -53.975  1.00  0.00     0.192 A 
HETATM    3  N   UNL     1     -43.914  58.003 -55.243  1.00  0.00    -0.304 N 
HETATM    4  C   UNL     1     -42.861  57.682 -56.081  1.00  0.00     0.167 A 
HETATM    5  N   UNL     1     -41.792  57.448 -55.335  1.00  0.00    -0.128 NA
HETATM    6  N   UNL     1     -42.132  57.600 -54.022  1.00  0.00    -0.122 NA
BRANCH   3   7
HETATM    7  C   UNL     1     -45.284  58.307 -55.616  1.00  0.00     0.159 C 
BRANCH   7   8
HETATM    8  C   UNL     1     -45.512  59.777 -55.812  1.00  0.00    -0.017 C 
HETATM    9  C   UNL     1     -44.846  60.531 -56.696  1.00  0.00     0.008 C 
ENDBRANCH   7   8
ENDBRANCH   3   7
BRANCH   4  10
HETATM   10  C   UNL     1     -42.907  57.432 -57.520  1.00  0.00     0.046 A 
HETATM   11  C   UNL     1     -42.218  58.288 -58.398  1.00  0.00     0.079 A 
HETATM   12  C   UNL     1     -42.197  58.058 -59.772  1.00  0.00     0.039 A 
HETATM   13  C   UNL     1     -42.899  56.977 -60.299  1.00  0.00     0.022 A 
HETATM   14  C   UNL     1     -43.624  56.145 -59.446  1.00  0.00     0.012 A 
HETATM   15 BR   UNL     1     -44.597  54.691 -60.163  1.00  0.00    -0.051 Br
HETATM   16  C   UNL     1     -43.639  56.371 -58.066  1.00  0.00     0.037 A 
BRANCH  11  17
HETATM   17  O   UNL     1     -41.529  59.389 -57.959  1.00  0.00    -0.360 OA
HETATM   18  H   UNL     1     -41.503  59.367 -56.980  1.00  0.00     0.217 HD
ENDBRANCH  11  17
ENDBRANCH   4  10
ENDBRANCH   1   2
BRANCH   1  19
HETATM   19  C   UNL     1     -43.065  57.508 -51.300  1.00  0.00     0.185 C 
BRANCH  19  20
HETATM   20  C   UNL     1     -42.804  56.008 -51.318  1.00  0.00     0.231 C 
HETATM   21  N   UNL     1     -41.551  55.648 -51.779  1.00  0.00    -0.326 N 
HETATM   22  H   UNL     1     -40.900  56.411 -51.956  1.00  0.00     0.169 HD
HETATM   23  O   UNL     1     -43.695  55.224 -50.993  1.00  0.00    -0.272 OA
BRANCH  21  24
HETATM   24  C   UNL     1     -41.050  54.352 -52.010  1.00  0.00     0.037 A 
HETATM   25  C   UNL     1     -41.195  53.674 -53.226  1.00  0.00     0.061 A 
HETATM   26  C   UNL     1     -40.616  52.428 -53.317  1.00  0.00     0.065 A 
HETATM   27  C   UNL     1     -39.932  51.840 -52.256  1.00  0.00     0.063 A 
HETATM   28  N   UNL     1     -40.565  51.550 -54.396  1.00  0.00    -0.306 N 
HETATM   29  N   UNL     1     -39.471  50.598 -52.678  1.00  0.00    -0.307 N 
HETATM   30  C   UNL     1     -39.781  52.470 -51.048  1.00  0.00     0.034 A 
HETATM   31  C   UNL     1     -39.850  50.407 -54.014  1.00  0.00     0.325 A 
HETATM   32  H   UNL     1     -38.935  49.932 -52.148  1.00  0.00     0.170 HD
HETATM   33  O   UNL     1     -39.602  49.437 -54.707  1.00  0.00    -0.247 OA
HETATM   34  C   UNL     1     -40.342  53.749 -50.937  1.00  0.00     0.032 A 
HETATM   35  H   UNL     1     -40.953  51.695 -55.315  1.00  0.00     0.170 HD
ENDBRANCH  21  24
ENDBRANCH  19  20
ENDBRANCH   1  19
TORSDOF 8
ENDMDL
MODEL 8
REMARK VINA RESULT:      -7.5      4.601      7.637
REMARK  8 active torsions:
REMARK  status: ('A' for Active; 'I' for Inactive)
REMARK    1  A    between atoms: C_2  and  C_3 
REMARK    2  A    between atoms: C_3  and  N_4 
REMARK    3  A    between atoms: C_5  and  S_6 
REMARK    4  A    between atoms: S_6  and  C_7 
REMARK    5  A    between atoms: C_7  and  C_8 
REMARK       I    between atoms: C_8  and  N_9 
REMARK    6  A    between atoms: N_9  and  C_10 
REMARK    7  A    between atoms: C_23  and  C_24 
REMARK    8  A    between atoms: C_25  and  O_26 
ROOT
HETATM    1  S   UNL     1     -41.628  58.739 -53.965  1.00  0.00    -0.081 SA
ENDROOT
BRANCH   1   2
HETATM    2  C   UNL     1     -42.200  60.158 -53.166  1.00  0.00     0.192 A 
HETATM    3  N   UNL     1     -42.319  60.318 -51.810  1.00  0.00    -0.304 N 
HETATM    4  C   UNL     1     -42.934  61.546 -51.644  1.00  0.00     0.167 A 
HETATM    5  N   UNL     1     -43.111  62.089 -52.839  1.00  0.00    -0.128 NA
HETATM    6  N   UNL     1     -42.631  61.229 -53.785  1.00  0.00    -0.122 NA
BRANCH   3   7
HETATM    7  C   UNL     1     -41.956  59.360 -50.781  1.00  0.00     0.159 C 
BRANCH   7   8
HETATM    8  C   UNL     1     -40.627  59.665 -50.156  1.00  0.00    -0.017 C 
HETATM    9  C   UNL     1     -39.446  59.399 -50.730  1.00  0.00     0.008 C 
ENDBRANCH   7   8
ENDBRANCH   3   7
BRANCH   4  10
HETATM   10  C   UNL     1     -43.494  62.106 -50.416  1.00  0.00     0.046 A 
HETATM   11  C   UNL     1     -43.315  63.472 -50.129  1.00  0.00     0.079 A 
HETATM   12  C   UNL     1     -43.873  64.055 -48.994  1.00  0.00     0.039 A 
HETATM   13  C   UNL     1     -44.598  63.269 -48.101  1.00  0.00     0.022 A 
HETATM   14  C   UNL     1     -44.745  61.905 -48.349  1.00  0.00     0.012 A 
HETATM   15 BR   UNL     1     -45.708  60.832 -47.126  1.00  0.00    -0.051 Br
HETATM   16  C   UNL     1     -44.192  61.319 -49.492  1.00  0.00     0.037 A 
BRANCH  11  17
HETATM   17  O   UNL     1     -42.591  64.304 -50.942  1.00  0.00    -0.360 OA
HETATM   18  H   UNL     1     -42.263  63.782 -51.704  1.00  0.00     0.217 HD
ENDBRANCH  11  17
ENDBRANCH   4  10
ENDBRANCH   1   2
BRANCH   1  19
HETATM   19  C   UNL     1     -43.153  57.741 -53.981  1.00  0.00     0.185 C 
BRANCH  19  20
HETATM   20  C   UNL     1     -42.897  56.246 -53.836  1.00  0.00     0.231 C 
HETATM   21  N   UNL     1     -41.640  55.922 -53.362  1.00  0.00    -0.326 N 
HETATM   22  H   UNL     1     -41.058  56.701 -53.060  1.00  0.00     0.169 HD
HETATM   23  O   UNL     1     -43.756  55.438 -54.185  1.00  0.00    -0.272 OA
BRANCH  21  24
HETATM   24  C   UNL     1     -41.069  54.642 -53.218  1.00  0.00     0.037 A 
HETATM   25  C   UNL     1     -40.859  54.025 -51.980  1.00  0.00     0.061 A 
HETATM   26  C   UNL     1     -40.329  52.755 -51.998  1.00  0.00     0.065 A 
HETATM   27  C   UNL     1     -39.991  52.101 -53.181  1.00  0.00     0.063 A 
HETATM   28  N   UNL     1     -40.049  51.894 -50.940  1.00  0.00    -0.306 N 
HETATM   29  N   UNL     1     -39.495  50.845 -52.851  1.00  0.00    -0.307 N 
HETATM   30  C   UNL     1     -40.174  52.679 -54.410  1.00  0.00     0.034 A 
HETATM   31  C   UNL     1     -39.533  50.698 -51.456  1.00  0.00     0.325 A 
HETATM   32  H   UNL     1     -39.173  50.129 -53.480  1.00  0.00     0.170 HD
HETATM   33  O   UNL     1     -39.188  49.718 -50.821  1.00  0.00    -0.247 OA
HETATM   34  C   UNL     1     -40.732  53.963 -54.420  1.00  0.00     0.032 A 
HETATM   35  H   UNL     1     -40.199  52.069 -49.960  1.00  0.00     0.170 HD
ENDBRANCH  21  24
ENDBRANCH  19  20
ENDBRANCH   1  19
TORSDOF 8
ENDMDL
MODEL 9
REMARK VINA RESULT:      -7.5      3.687      7.267
REMARK  8 active torsions:
REMARK  status: ('A' for Active; 'I' for Inactive)
REMARK    1  A    between atoms: C_2  and  C_3 
REMARK    2  A    between atoms: C_3  and  N_4 
REMARK    3  A    between atoms: C_5  and  S_6 
REMARK    4  A    between atoms: S_6  and  C_7 
REMARK    5  A    between atoms: C_7  and  C_8 
REMARK       I    between atoms: C_8  and  N_9 
REMARK    6  A    between atoms: N_9  and  C_10 
REMARK    7  A    between atoms: C_23  and  C_24 
REMARK    8  A    between atoms: C_25  and  O_26 
ROOT
HETATM    1  S   UNL     1     -43.805  57.999 -51.958  1.00  0.00    -0.081 SA
ENDROOT
BRANCH   1   2
HETATM    2  C   UNL     1     -44.469  58.564 -53.447  1.00  0.00     0.192 A 
HETATM    3  N   UNL     1     -44.618  57.821 -54.588  1.00  0.00    -0.304 N 
HETATM    4  C   UNL     1     -45.059  58.714 -55.547  1.00  0.00     0.167 A 
HETATM    5  N   UNL     1     -45.209  59.900 -54.975  1.00  0.00    -0.128 NA
HETATM    6  N   UNL     1     -44.860  59.797 -53.658  1.00  0.00    -0.122 NA
BRANCH   3   7
HETATM    7  C   UNL     1     -44.294  56.416 -54.766  1.00  0.00     0.159 C 
BRANCH   7   8
HETATM    8  C   UNL     1     -43.067  56.213 -55.606  1.00  0.00    -0.017 C 
HETATM    9  C   UNL     1     -42.982  55.336 -56.615  1.00  0.00     0.008 C 
ENDBRANCH   7   8
ENDBRANCH   3   7
BRANCH   4  10
HETATM   10  C   UNL     1     -45.167  58.499 -56.988  1.00  0.00     0.046 A 
HETATM   11  C   UNL     1     -46.333  57.919 -57.521  1.00  0.00     0.079 A 
HETATM   12  C   UNL     1     -46.495  57.740 -58.893  1.00  0.00     0.039 A 
HETATM   13  C   UNL     1     -45.471  58.111 -59.761  1.00  0.00     0.022 A 
HETATM   14  C   UNL     1     -44.291  58.646 -59.244  1.00  0.00     0.012 A 
HETATM   15 BR   UNL     1     -42.891  59.128 -60.420  1.00  0.00    -0.051 Br
HETATM   16  C   UNL     1     -44.131  58.833 -57.868  1.00  0.00     0.037 A 
BRANCH  11  17
HETATM   17  O   UNL     1     -47.371  57.501 -56.730  1.00  0.00    -0.360 OA
HETATM   18  H   UNL     1     -47.929  58.278 -56.518  1.00  0.00     0.217 HD
ENDBRANCH  11  17
ENDBRANCH   4  10
ENDBRANCH   1   2
BRANCH   1  19
HETATM   19  C   UNL     1     -42.030  58.264 -52.273  1.00  0.00     0.185 C 
BRANCH  19  20
HETATM   20  C   UNL     1     -41.304  57.005 -52.729  1.00  0.00     0.231 C 
HETATM   21  N   UNL     1     -41.708  55.847 -52.094  1.00  0.00    -0.326 N 
HETATM   22  H   UNL     1     -42.512  55.930 -51.473  1.00  0.00     0.169 HD
HETATM   23  O   UNL     1     -40.397  57.084 -53.556  1.00  0.00    -0.272 OA
BRANCH  21  24
HETATM   24  C   UNL     1     -41.165  54.553 -52.218  1.00  0.00     0.037 A 
HETATM   25  C   UNL     1     -41.262  53.783 -53.383  1.00  0.00     0.061 A 
HETATM   26  C   UNL     1     -40.645  52.552 -53.370  1.00  0.00     0.065 A 
HETATM   27  C   UNL     1     -39.969  52.065 -52.254  1.00  0.00     0.063 A 
HETATM   28  N   UNL     1     -40.545  51.599 -54.379  1.00  0.00    -0.306 N 
HETATM   29  N   UNL     1     -39.462  50.811 -52.573  1.00  0.00    -0.307 N 
HETATM   30  C   UNL     1     -39.863  52.787 -51.093  1.00  0.00     0.034 A 
HETATM   31  C   UNL     1     -39.805  50.509 -53.898  1.00  0.00     0.325 A 
HETATM   32  H   UNL     1     -38.918  50.202 -51.983  1.00  0.00     0.170 HD
HETATM   33  O   UNL     1     -39.513  49.499 -54.512  1.00  0.00    -0.247 OA
HETATM   34  C   UNL     1     -40.463  54.053 -51.089  1.00  0.00     0.032 A 
HETATM   35  H   UNL     1     -40.916  51.663 -55.313  1.00  0.00     0.170 HD
ENDBRANCH  21  24
ENDBRANCH  19  20
ENDBRANCH   1  19
TORSDOF 8
ENDMDL
MODEL 10
REMARK VINA RESULT:      -7.3      3.520      7.227
REMARK  8 active torsions:
REMARK  status: ('A' for Active; 'I' for Inactive)
REMARK    1  A    between atoms: C_2  and  C_3 
REMARK    2  A    between atoms: C_3  and  N_4 
REMARK    3  A    between atoms: C_5  and  S_6 
REMARK    4  A    between atoms: S_6  and  C_7 
REMARK    5  A    between atoms: C_7  and  C_8 
REMARK       I    between atoms: C_8  and  N_9 
REMARK    6  A    between atoms: N_9  and  C_10 
REMARK    7  A    between atoms: C_23  and  C_24 
REMARK    8  A    between atoms: C_25  and  O_26 
ROOT
HETATM    1  S   UNL     1     -44.556  58.047 -51.543  1.00  0.00    -0.081 SA
ENDROOT
BRANCH   1   2
HETATM    2  C   UNL     1     -44.397  58.710 -53.129  1.00  0.00     0.192 A 
HETATM    3  N   UNL     1     -44.386  57.994 -54.296  1.00  0.00    -0.304 N 
HETATM    4  C   UNL     1     -44.108  58.920 -55.285  1.00  0.00     0.167 A 
HETATM    5  N   UNL     1     -44.017  60.116 -54.723  1.00  0.00    -0.128 NA
HETATM    6  N   UNL     1     -44.220  59.984 -53.380  1.00  0.00    -0.122 NA
BRANCH   3   7
HETATM    7  C   UNL     1     -44.544  56.558 -54.443  1.00  0.00     0.159 C 
BRANCH   7   8
HETATM    8  C   UNL     1     -43.260  55.875 -54.812  1.00  0.00    -0.017 C 
HETATM    9  C   UNL     1     -43.186  54.651 -55.350  1.00  0.00     0.008 C 
ENDBRANCH   7   8
ENDBRANCH   3   7
BRANCH   4  10
HETATM   10  C   UNL     1     -43.765  58.660 -56.682  1.00  0.00     0.046 A 
HETATM   11  C   UNL     1     -42.533  59.109 -57.192  1.00  0.00     0.079 A 
HETATM   12  C   UNL     1     -42.147  58.840 -58.503  1.00  0.00     0.039 A 
HETATM   13  C   UNL     1     -43.009  58.141 -59.345  1.00  0.00     0.022 A 
HETATM   14  C   UNL     1     -44.253  57.729 -58.867  1.00  0.00     0.012 A 
HETATM   15 BR   UNL     1     -45.433  56.801 -60.015  1.00  0.00    -0.051 Br
HETATM   16  C   UNL     1     -44.637  57.991 -57.548  1.00  0.00     0.037 A 
BRANCH  11  17
HETATM   17  O   UNL     1     -41.644  59.828 -56.436  1.00  0.00    -0.360 OA
HETATM   18  H   UNL     1     -41.381  60.624 -56.943  1.00  0.00     0.217 HD
ENDBRANCH  11  17
ENDBRANCH   4  10
ENDBRANCH   1   2
BRANCH   1  19
HETATM   19  C   UNL     1     -42.838  57.521 -51.239  1.00  0.00     0.185 C 
BRANCH  19  20
HETATM   20  C   UNL     1     -42.659  56.008 -51.254  1.00  0.00     0.231 C 
HETATM   21  N   UNL     1     -41.382  55.584 -51.569  1.00  0.00    -0.326 N 
HETATM   22  H   UNL     1     -40.674  56.310 -51.654  1.00  0.00     0.169 HD
HETATM   23  O   UNL     1     -43.624  55.273 -51.051  1.00  0.00    -0.272 OA
BRANCH  21  24
HETATM   24  C   UNL     1     -40.929  54.264 -51.763  1.00  0.00     0.037 A 
HETATM   25  C   UNL     1     -40.803  53.668 -53.024  1.00  0.00     0.061 A 
HETATM   26  C   UNL     1     -40.308  52.384 -53.060  1.00  0.00     0.065 A 
HETATM   27  C   UNL     1     -39.961  51.682 -51.908  1.00  0.00     0.063 A 
HETATM   28  N   UNL     1     -40.043  51.565 -54.154  1.00  0.00    -0.306 N 
HETATM   29  N   UNL     1     -39.494  50.431 -52.291  1.00  0.00    -0.307 N 
HETATM   30  C   UNL     1     -40.082  52.231 -50.657  1.00  0.00     0.034 A 
HETATM   31  C   UNL     1     -39.530  50.345 -53.691  1.00  0.00     0.325 A 
HETATM   32  H   UNL     1     -39.158  49.693 -51.695  1.00  0.00     0.170 HD
HETATM   33  O   UNL     1     -39.180  49.397 -54.369  1.00  0.00    -0.247 OA
HETATM   34  C   UNL     1     -40.562  53.545 -50.595  1.00  0.00     0.032 A 
HETATM   35  H   UNL     1     -40.172  51.792 -55.126  1.00  0.00     0.170 HD
ENDBRANCH  21  24
ENDBRANCH  19  20
ENDBRANCH   1  19
TORSDOF 8
ENDMDL
