MODEL 1
REMARK VINA RESULT:      -8.8      0.000      0.000
REMARK  6 active torsions:
REMARK  status: ('A' for Active; 'I' for Inactive)
REMARK    1  A    between atoms: O_2  and  C_3 
REMARK    2  A    between atoms: C_5  and  C_6 
REMARK    3  A    between atoms: C_6  and  C_7 
REMARK    4  A    between atoms: C_7  and  C_8 
REMARK       I    between atoms: C_8  and  N_9 
REMARK    5  A    between atoms: N_12  and  C_13 
REMARK    6  A    between atoms: C_17  and  C_18 
ROOT
HETATM    1  C   UNL     1     -42.023  54.957 -51.009  1.00  0.00     0.220 C 
HETATM    2  N   UNL     1     -42.114  55.695 -52.185  1.00  0.00    -0.349 N 
HETATM    3  C   UNL     1     -41.037  55.778 -53.184  1.00  0.00     0.145 C 
HETATM    4  C   UNL     1     -41.252  54.708 -54.274  1.00  0.00     0.144 C 
HETATM    5  N   UNL     1     -42.598  54.851 -54.885  1.00  0.00    -0.363 N 
HETATM    6  C   UNL     1     -43.697  54.831 -53.878  1.00  0.00     0.144 C 
HETATM    7  C   UNL     1     -43.445  55.886 -52.777  1.00  0.00     0.145 C 
HETATM    8  O   UNL     1     -43.020  54.621 -50.370  1.00  0.00    -0.273 OA
ENDROOT
BRANCH   5   9
HETATM    9  C   UNL     1     -42.733  55.559 -56.046  1.00  0.00     0.122 A 
HETATM   10  N   UNL     1     -43.384  55.063 -57.146  1.00  0.00    -0.262 N 
HETATM   11  H   UNL     1     -43.815  54.153 -57.246  1.00  0.00     0.191 HD
HETATM   12  N   UNL     1     -43.392  55.886 -58.206  1.00  0.00    -0.173 NA
HETATM   13  C   UNL     1     -42.686  56.954 -57.805  1.00  0.00     0.090 A 
HETATM   14  C   UNL     1     -42.252  56.782 -56.460  1.00  0.00     0.084 A 
BRANCH  13  15
HETATM   15  C   UNL     1     -42.427  58.087 -58.700  1.00  0.00    -0.005 A 
HETATM   16  C   UNL     1     -42.076  57.866 -60.041  1.00  0.00     0.015 A 
HETATM   17  C   UNL     1     -41.807  58.936 -60.900  1.00  0.00     0.024 A 
HETATM   18  C   UNL     1     -41.894  60.240 -60.424  1.00  0.00     0.034 A 
HETATM   19 CL   UNL     1     -41.564  61.560 -61.476  1.00  0.00    -0.084 Cl
HETATM   20  C   UNL     1     -42.248  60.484 -59.099  1.00  0.00     0.024 A 
HETATM   21  C   UNL     1     -42.513  59.410 -58.240  1.00  0.00     0.015 A 
ENDBRANCH  13  15
ENDBRANCH   5   9
BRANCH   1  22
HETATM   22  C   UNL     1     -40.625  54.578 -50.552  1.00  0.00     0.107 C 
BRANCH  22  23
HETATM   23  C   UNL     1     -40.619  53.338 -49.662  1.00  0.00     0.048 C 
BRANCH  23  24
HETATM   24  C   UNL     1     -40.300  52.103 -50.473  1.00  0.00    -0.055 A 
HETATM   25  C   UNL     1     -39.988  52.218 -51.839  1.00  0.00     0.044 A 
HETATM   26  C   UNL     1     -39.640  51.091 -52.586  1.00  0.00     0.068 A 
HETATM   27  C   UNL     1     -39.611  49.842 -51.963  1.00  0.00     0.037 A 
HETATM   28  C   UNL     1     -39.920  49.716 -50.608  1.00  0.00     0.003 A 
HETATM   29  C   UNL     1     -40.260  50.844 -49.863  1.00  0.00     0.007 A 
BRANCH  26  30
HETATM   30  O   UNL     1     -39.307  51.075 -53.913  1.00  0.00    -0.356 OA
HETATM   31  C   UNL     1     -39.612  49.892 -54.639  1.00  0.00     0.210 C 
ENDBRANCH  26  30
ENDBRANCH  23  24
ENDBRANCH  22  23
ENDBRANCH   1  22
TORSDOF 6
ENDMDL
MODEL 2
REMARK VINA RESULT:      -8.5      6.031      9.614
REMARK  6 active torsions:
REMARK  status: ('A' for Active; 'I' for Inactive)
REMARK    1  A    between atoms: O_2  and  C_3 
REMARK    2  A    between atoms: C_5  and  C_6 
REMARK    3  A    between atoms: C_6  and  C_7 
REMARK    4  A    between atoms: C_7  and  C_8 
REMARK       I    between atoms: C_8  and  N_9 
REMARK    5  A    between atoms: N_12  and  C_13 
REMARK    6  A    between atoms: C_17  and  C_18 
ROOT
HETATM    1  C   UNL     1     -43.220  61.862 -50.479  1.00  0.00     0.220 C 
HETATM    2  N   UNL     1     -42.986  60.498 -50.336  1.00  0.00    -0.349 N 
HETATM    3  C   UNL     1     -43.951  59.458 -50.724  1.00  0.00     0.145 C 
HETATM    4  C   UNL     1     -43.655  58.982 -52.161  1.00  0.00     0.144 C 
HETATM    5  N   UNL     1     -42.250  58.517 -52.277  1.00  0.00    -0.363 N 
HETATM    6  C   UNL     1     -41.262  59.539 -51.828  1.00  0.00     0.144 C 
HETATM    7  C   UNL     1     -41.596  60.028 -50.400  1.00  0.00     0.145 C 
HETATM    8  O   UNL     1     -42.305  62.685 -50.478  1.00  0.00    -0.273 OA
ENDROOT
BRANCH   5   9
HETATM    9  C   UNL     1     -41.974  57.184 -52.153  1.00  0.00     0.122 A 
HETATM   10  N   UNL     1     -42.141  56.498 -50.978  1.00  0.00    -0.262 N 
HETATM   11  H   UNL     1     -42.460  56.867 -50.092  1.00  0.00     0.191 HD
HETATM   12  N   UNL     1     -41.791  55.204 -51.034  1.00  0.00    -0.173 NA
HETATM   13  C   UNL     1     -41.337  55.035 -52.286  1.00  0.00     0.090 A 
HETATM   14  C   UNL     1     -41.431  56.255 -53.013  1.00  0.00     0.084 A 
BRANCH  13  15
HETATM   15  C   UNL     1     -40.817  53.744 -52.749  1.00  0.00    -0.005 A 
HETATM   16  C   UNL     1     -41.054  53.314 -54.065  1.00  0.00     0.015 A 
HETATM   17  C   UNL     1     -40.581  52.077 -54.514  1.00  0.00     0.024 A 
HETATM   18  C   UNL     1     -39.859  51.261 -53.648  1.00  0.00     0.034 A 
HETATM   19 CL   UNL     1     -39.276  49.738 -54.195  1.00  0.00    -0.084 Cl
HETATM   20  C   UNL     1     -39.606  51.670 -52.341  1.00  0.00     0.024 A 
HETATM   21  C   UNL     1     -40.083  52.907 -51.894  1.00  0.00     0.015 A 
ENDBRANCH  13  15
ENDBRANCH   5   9
BRANCH   1  22
HETATM   22  C   UNL     1     -44.668  62.288 -50.645  1.00  0.00     0.107 C 
BRANCH  22  23
HETATM   23  C   UNL     1     -45.127  63.235 -49.538  1.00  0.00     0.048 C 
BRANCH  23  24
HETATM   24  C   UNL     1     -45.373  62.473 -48.256  1.00  0.00    -0.055 A 
HETATM   25  C   UNL     1     -45.888  61.166 -48.300  1.00  0.00     0.044 A 
HETATM   26  C   UNL     1     -46.070  60.434 -47.125  1.00  0.00     0.068 A 
HETATM   27  C   UNL     1     -45.740  61.016 -45.901  1.00  0.00     0.037 A 
HETATM   28  C   UNL     1     -45.229  62.312 -45.844  1.00  0.00     0.003 A 
HETATM   29  C   UNL     1     -45.041  63.039 -47.019  1.00  0.00     0.007 A 
BRANCH  26  30
HETATM   30  O   UNL     1     -46.551  59.155 -47.039  1.00  0.00    -0.356 OA
HETATM   31  C   UNL     1     -46.876  58.676 -45.740  1.00  0.00     0.210 C 
ENDBRANCH  26  30
ENDBRANCH  23  24
ENDBRANCH  22  23
ENDBRANCH   1  22
TORSDOF 6
ENDMDL
MODEL 3
REMARK VINA RESULT:      -8.5      5.663      7.987
REMARK  6 active torsions:
REMARK  status: ('A' for Active; 'I' for Inactive)
REMARK    1  A    between atoms: O_2  and  C_3 
REMARK    2  A    between atoms: C_5  and  C_6 
REMARK    3  A    between atoms: C_6  and  C_7 
REMARK    4  A    between atoms: C_7  and  C_8 
REMARK       I    between atoms: C_8  and  N_9 
REMARK    5  A    between atoms: N_12  and  C_13 
REMARK    6  A    between atoms: C_17  and  C_18 
ROOT
HETATM    1  C   UNL     1     -42.396  55.836 -54.707  1.00  0.00     0.220 C 
HETATM    2  N   UNL     1     -43.046  56.256 -53.550  1.00  0.00    -0.349 N 
HETATM    3  C   UNL     1     -42.346  56.665 -52.322  1.00  0.00     0.145 C 
HETATM    4  C   UNL     1     -42.144  58.194 -52.322  1.00  0.00     0.144 C 
HETATM    5  N   UNL     1     -43.444  58.891 -52.487  1.00  0.00    -0.363 N 
HETATM    6  C   UNL     1     -44.194  58.442 -53.695  1.00  0.00     0.144 C 
HETATM    7  C   UNL     1     -44.356  56.904 -53.694  1.00  0.00     0.145 C 
HETATM    8  O   UNL     1     -42.954  55.829 -55.804  1.00  0.00    -0.273 OA
ENDROOT
BRANCH   5   9
HETATM    9  C   UNL     1     -44.113  59.330 -51.379  1.00  0.00     0.122 A 
HETATM   10  N   UNL     1     -45.314  58.804 -50.980  1.00  0.00    -0.262 N 
HETATM   11  H   UNL     1     -45.844  58.070 -51.432  1.00  0.00     0.191 HD
HETATM   12  N   UNL     1     -45.839  59.380 -49.887  1.00  0.00    -0.173 NA
HETATM   13  C   UNL     1     -44.969  60.352 -49.572  1.00  0.00     0.090 A 
HETATM   14  C   UNL     1     -43.880  60.355 -50.488  1.00  0.00     0.084 A 
BRANCH  13  15
HETATM   15  C   UNL     1     -45.199  61.253 -48.437  1.00  0.00    -0.005 A 
HETATM   16  C   UNL     1     -44.835  62.607 -48.522  1.00  0.00     0.015 A 
HETATM   17  C   UNL     1     -45.030  63.473 -47.441  1.00  0.00     0.024 A 
HETATM   18  C   UNL     1     -45.598  62.990 -46.266  1.00  0.00     0.034 A 
HETATM   19 CL   UNL     1     -45.839  64.050 -44.933  1.00  0.00    -0.084 Cl
HETATM   20  C   UNL     1     -45.973  61.653 -46.163  1.00  0.00     0.024 A 
HETATM   21  C   UNL     1     -45.773  60.788 -47.245  1.00  0.00     0.015 A 
ENDBRANCH  13  15
ENDBRANCH   5   9
BRANCH   1  22
HETATM   22  C   UNL     1     -40.953  55.388 -54.550  1.00  0.00     0.107 C 
BRANCH  22  23
HETATM   23  C   UNL     1     -40.728  53.963 -55.051  1.00  0.00     0.048 C 
BRANCH  23  24
HETATM   24  C   UNL     1     -40.327  53.056 -53.910  1.00  0.00    -0.055 A 
HETATM   25  C   UNL     1     -40.420  53.510 -52.582  1.00  0.00     0.044 A 
HETATM   26  C   UNL     1     -40.102  52.664 -51.519  1.00  0.00     0.068 A 
HETATM   27  C   UNL     1     -39.684  51.359 -51.786  1.00  0.00     0.037 A 
HETATM   28  C   UNL     1     -39.587  50.898 -53.099  1.00  0.00     0.003 A 
HETATM   29  C   UNL     1     -39.912  51.742 -54.159  1.00  0.00     0.007 A 
BRANCH  26  30
HETATM   30  O   UNL     1     -40.163  52.984 -50.189  1.00  0.00    -0.356 OA
HETATM   31  C   UNL     1     -39.946  54.346 -49.845  1.00  0.00     0.210 C 
ENDBRANCH  26  30
ENDBRANCH  23  24
ENDBRANCH  22  23
ENDBRANCH   1  22
TORSDOF 6
ENDMDL
MODEL 4
REMARK VINA RESULT:      -8.4      6.231      8.510
REMARK  6 active torsions:
REMARK  status: ('A' for Active; 'I' for Inactive)
REMARK    1  A    between atoms: O_2  and  C_3 
REMARK    2  A    between atoms: C_5  and  C_6 
REMARK    3  A    between atoms: C_6  and  C_7 
REMARK    4  A    between atoms: C_7  and  C_8 
REMARK       I    between atoms: C_8  and  N_9 
REMARK    5  A    between atoms: N_12  and  C_13 
REMARK    6  A    between atoms: C_17  and  C_18 
ROOT
HETATM    1  C   UNL     1     -42.644  56.706 -54.053  1.00  0.00     0.220 C 
HETATM    2  N   UNL     1     -43.297  57.036 -52.869  1.00  0.00    -0.349 N 
HETATM    3  C   UNL     1     -42.601  57.382 -51.620  1.00  0.00     0.145 C 
HETATM    4  C   UNL     1     -42.435  58.913 -51.523  1.00  0.00     0.144 C 
HETATM    5  N   UNL     1     -43.752  59.588 -51.639  1.00  0.00    -0.363 N 
HETATM    6  C   UNL     1     -44.497  59.200 -52.870  1.00  0.00     0.144 C 
HETATM    7  C   UNL     1     -44.623  57.661 -52.966  1.00  0.00     0.145 C 
HETATM    8  O   UNL     1     -43.207  56.757 -55.146  1.00  0.00    -0.273 OA
ENDROOT
BRANCH   5   9
HETATM    9  C   UNL     1     -44.426  59.940 -50.503  1.00  0.00     0.122 A 
HETATM   10  N   UNL     1     -45.363  59.131 -49.915  1.00  0.00    -0.262 N 
HETATM   11  H   UNL     1     -45.676  58.223 -50.232  1.00  0.00     0.191 HD
HETATM   12  N   UNL     1     -45.944  59.654 -48.824  1.00  0.00    -0.173 NA
HETATM   13  C   UNL     1     -45.397  60.873 -48.705  1.00  0.00     0.090 A 
HETATM   14  C   UNL     1     -44.447  61.090 -49.743  1.00  0.00     0.084 A 
BRANCH  13  15
HETATM   15  C   UNL     1     -45.797  61.797 -47.638  1.00  0.00    -0.005 A 
HETATM   16  C   UNL     1     -46.949  62.587 -47.779  1.00  0.00     0.015 A 
HETATM   17  C   UNL     1     -47.331  63.486 -46.778  1.00  0.00     0.024 A 
HETATM   18  C   UNL     1     -46.563  63.598 -45.623  1.00  0.00     0.034 A 
HETATM   19 CL   UNL     1     -47.027  64.703 -44.390  1.00  0.00    -0.084 Cl
HETATM   20  C   UNL     1     -45.420  62.818 -45.459  1.00  0.00     0.024 A 
HETATM   21  C   UNL     1     -45.039  61.922 -46.464  1.00  0.00     0.015 A 
ENDBRANCH  13  15
ENDBRANCH   5   9
BRANCH   1  22
HETATM   22  C   UNL     1     -41.190  56.283 -53.930  1.00  0.00     0.107 C 
BRANCH  22  23
HETATM   23  C   UNL     1     -40.913  54.947 -54.614  1.00  0.00     0.048 C 
BRANCH  23  24
HETATM   24  C   UNL     1     -40.575  53.886 -53.592  1.00  0.00    -0.055 A 
HETATM   25  C   UNL     1     -40.221  52.591 -54.009  1.00  0.00     0.044 A 
HETATM   26  C   UNL     1     -39.857  51.619 -53.077  1.00  0.00     0.068 A 
HETATM   27  C   UNL     1     -39.853  51.943 -51.720  1.00  0.00     0.037 A 
HETATM   28  C   UNL     1     -40.203  53.224 -51.293  1.00  0.00     0.003 A 
HETATM   29  C   UNL     1     -40.560  54.195 -52.227  1.00  0.00     0.007 A 
BRANCH  26  30
HETATM   30  O   UNL     1     -39.483  50.333 -53.359  1.00  0.00    -0.356 OA
HETATM   31  C   UNL     1     -39.783  49.846 -54.661  1.00  0.00     0.210 C 
ENDBRANCH  26  30
ENDBRANCH  23  24
ENDBRANCH  22  23
ENDBRANCH   1  22
TORSDOF 6
ENDMDL
MODEL 5
REMARK VINA RESULT:      -8.0      4.523      9.273
REMARK  6 active torsions:
REMARK  status: ('A' for Active; 'I' for Inactive)
REMARK    1  A    between atoms: O_2  and  C_3 
REMARK    2  A    between atoms: C_5  and  C_6 
REMARK    3  A    between atoms: C_6  and  C_7 
REMARK    4  A    between atoms: C_7  and  C_8 
REMARK       I    between atoms: C_8  and  N_9 
REMARK    5  A    between atoms: N_12  and  C_13 
REMARK    6  A    between atoms: C_17  and  C_18 
ROOT
HETATM    1  C   UNL     1     -44.941  60.345 -57.248  1.00  0.00     0.220 C 
HETATM    2  N   UNL     1     -44.427  59.564 -56.217  1.00  0.00    -0.349 N 
HETATM    3  C   UNL     1     -44.895  58.203 -55.911  1.00  0.00     0.145 C 
HETATM    4  C   UNL     1     -44.009  57.171 -56.640  1.00  0.00     0.144 C 
HETATM    5  N   UNL     1     -42.581  57.368 -56.285  1.00  0.00    -0.363 N 
HETATM    6  C   UNL     1     -42.108  58.760 -56.531  1.00  0.00     0.144 C 
HETATM    7  C   UNL     1     -43.029  59.780 -55.822  1.00  0.00     0.145 C 
HETATM    8  O   UNL     1     -44.329  61.311 -57.703  1.00  0.00    -0.273 OA
ENDROOT
BRANCH   5   9
HETATM    9  C   UNL     1     -42.030  56.616 -55.286  1.00  0.00     0.122 A 
HETATM   10  N   UNL     1     -41.472  57.167 -54.162  1.00  0.00    -0.262 N 
HETATM   11  H   UNL     1     -41.386  58.150 -53.939  1.00  0.00     0.191 HD
HETATM   12  N   UNL     1     -40.952  56.277 -53.304  1.00  0.00    -0.173 NA
HETATM   13  C   UNL     1     -41.139  55.089 -53.900  1.00  0.00     0.090 A 
HETATM   14  C   UNL     1     -41.805  55.263 -55.146  1.00  0.00     0.084 A 
BRANCH  13  15
HETATM   15  C   UNL     1     -40.672  53.839 -53.292  1.00  0.00    -0.005 A 
HETATM   16  C   UNL     1     -40.604  53.712 -51.895  1.00  0.00     0.015 A 
HETATM   17  C   UNL     1     -40.142  52.534 -51.302  1.00  0.00     0.024 A 
HETATM   18  C   UNL     1     -39.747  51.467 -52.104  1.00  0.00     0.034 A 
HETATM   19 CL   UNL     1     -39.176  50.016 -51.379  1.00  0.00    -0.084 Cl
HETATM   20  C   UNL     1     -39.812  51.569 -53.492  1.00  0.00     0.024 A 
HETATM   21  C   UNL     1     -40.273  52.751 -54.083  1.00  0.00     0.015 A 
ENDBRANCH  13  15
ENDBRANCH   5   9
BRANCH   1  22
HETATM   22  C   UNL     1     -46.301  59.943 -57.790  1.00  0.00     0.107 C 
BRANCH  22  23
HETATM   23  C   UNL     1     -46.305  59.803 -59.310  1.00  0.00     0.048 C 
BRANCH  23  24
HETATM   24  C   UNL     1     -45.841  58.424 -59.719  1.00  0.00    -0.055 A 
HETATM   25  C   UNL     1     -44.488  58.196 -60.024  1.00  0.00     0.044 A 
HETATM   26  C   UNL     1     -44.038  56.916 -60.351  1.00  0.00     0.068 A 
HETATM   27  C   UNL     1     -44.950  55.860 -60.378  1.00  0.00     0.037 A 
HETATM   28  C   UNL     1     -46.296  56.073 -60.078  1.00  0.00     0.003 A 
HETATM   29  C   UNL     1     -46.740  57.351 -59.744  1.00  0.00     0.007 A 
BRANCH  26  30
HETATM   30  O   UNL     1     -42.750  56.568 -60.655  1.00  0.00    -0.356 OA
HETATM   31  C   UNL     1     -41.718  57.374 -60.101  1.00  0.00     0.210 C 
ENDBRANCH  26  30
ENDBRANCH  23  24
ENDBRANCH  22  23
ENDBRANCH   1  22
TORSDOF 6
ENDMDL
MODEL 6
REMARK VINA RESULT:      -7.9      5.341      7.032
REMARK  6 active torsions:
REMARK  status: ('A' for Active; 'I' for Inactive)
REMARK    1  A    between atoms: O_2  and  C_3 
REMARK    2  A    between atoms: C_5  and  C_6 
REMARK    3  A    between atoms: C_6  and  C_7 
REMARK    4  A    between atoms: C_7  and  C_8 
REMARK       I    between atoms: C_8  and  N_9 
REMARK    5  A    between atoms: N_12  and  C_13 
REMARK    6  A    between atoms: C_17  and  C_18 
ROOT
HETATM    1  C   UNL     1     -42.985  55.746 -56.110  1.00  0.00     0.220 C 
HETATM    2  N   UNL     1     -43.426  56.778 -55.288  1.00  0.00    -0.349 N 
HETATM    3  C   UNL     1     -43.084  56.888 -53.861  1.00  0.00     0.145 C 
HETATM    4  C   UNL     1     -41.837  57.782 -53.691  1.00  0.00     0.144 C 
HETATM    5  N   UNL     1     -42.057  59.107 -54.322  1.00  0.00    -0.363 N 
HETATM    6  C   UNL     1     -42.465  59.010 -55.752  1.00  0.00     0.144 C 
HETATM    7  C   UNL     1     -43.694  58.083 -55.905  1.00  0.00     0.145 C 
HETATM    8  O   UNL     1     -42.986  55.843 -57.337  1.00  0.00    -0.273 OA
ENDROOT
BRANCH   5   9
HETATM    9  C   UNL     1     -42.480  60.153 -53.550  1.00  0.00     0.122 A 
HETATM   10  N   UNL     1     -42.499  61.447 -53.999  1.00  0.00    -0.262 N 
HETATM   11  H   UNL     1     -42.206  61.787 -54.906  1.00  0.00     0.191 HD
HETATM   12  N   UNL     1     -42.916  62.346 -53.094  1.00  0.00    -0.173 NA
HETATM   13  C   UNL     1     -43.147  61.622 -51.987  1.00  0.00     0.090 A 
HETATM   14  C   UNL     1     -42.879  60.246 -52.234  1.00  0.00     0.084 A 
BRANCH  13  15
HETATM   15  C   UNL     1     -43.592  62.247 -50.737  1.00  0.00    -0.005 A 
HETATM   16  C   UNL     1     -43.398  63.621 -50.522  1.00  0.00     0.015 A 
HETATM   17  C   UNL     1     -43.799  64.225 -49.327  1.00  0.00     0.024 A 
HETATM   18  C   UNL     1     -44.404  63.458 -48.337  1.00  0.00     0.034 A 
HETATM   19 CL   UNL     1     -44.899  64.197 -46.864  1.00  0.00    -0.084 Cl
HETATM   20  C   UNL     1     -44.614  62.095 -48.531  1.00  0.00     0.024 A 
HETATM   21  C   UNL     1     -44.208  61.492 -49.727  1.00  0.00     0.015 A 
ENDBRANCH  13  15
ENDBRANCH   5   9
BRANCH   1  22
HETATM   22  C   UNL     1     -42.494  54.487 -55.416  1.00  0.00     0.107 C 
BRANCH  22  23
HETATM   23  C   UNL     1     -40.986  54.504 -55.177  1.00  0.00     0.048 C 
BRANCH  23  24
HETATM   24  C   UNL     1     -40.629  53.663 -53.974  1.00  0.00    -0.055 A 
HETATM   25  C   UNL     1     -40.224  52.327 -54.142  1.00  0.00     0.044 A 
HETATM   26  C   UNL     1     -39.842  51.556 -53.043  1.00  0.00     0.068 A 
HETATM   27  C   UNL     1     -39.871  52.124 -51.769  1.00  0.00     0.037 A 
HETATM   28  C   UNL     1     -40.271  53.448 -51.589  1.00  0.00     0.003 A 
HETATM   29  C   UNL     1     -40.645  54.218 -52.689  1.00  0.00     0.007 A 
BRANCH  26  30
HETATM   30  O   UNL     1     -39.421  50.254 -53.080  1.00  0.00    -0.356 OA
HETATM   31  C   UNL     1     -39.423  49.613 -54.349  1.00  0.00     0.210 C 
ENDBRANCH  26  30
ENDBRANCH  23  24
ENDBRANCH  22  23
ENDBRANCH   1  22
TORSDOF 6
ENDMDL
MODEL 7
REMARK VINA RESULT:      -7.8      2.445      3.028
REMARK  6 active torsions:
REMARK  status: ('A' for Active; 'I' for Inactive)
REMARK    1  A    between atoms: O_2  and  C_3 
REMARK    2  A    between atoms: C_5  and  C_6 
REMARK    3  A    between atoms: C_6  and  C_7 
REMARK    4  A    between atoms: C_7  and  C_8 
REMARK       I    between atoms: C_8  and  N_9 
REMARK    5  A    between atoms: N_12  and  C_13 
REMARK    6  A    between atoms: C_17  and  C_18 
ROOT
HETATM    1  C   UNL     1     -40.759  55.314 -49.767  1.00  0.00     0.220 C 
HETATM    2  N   UNL     1     -41.203  56.140 -50.795  1.00  0.00    -0.349 N 
HETATM    3  C   UNL     1     -41.117  55.788 -52.221  1.00  0.00     0.145 C 
HETATM    4  C   UNL     1     -42.436  55.131 -52.677  1.00  0.00     0.144 C 
HETATM    5  N   UNL     1     -43.588  56.021 -52.386  1.00  0.00    -0.363 N 
HETATM    6  C   UNL     1     -43.653  56.438 -50.956  1.00  0.00     0.144 C 
HETATM    7  C   UNL     1     -42.311  57.061 -50.510  1.00  0.00     0.145 C 
HETATM    8  O   UNL     1     -41.139  55.458 -48.605  1.00  0.00    -0.273 OA
ENDROOT
BRANCH   5   9
HETATM    9  C   UNL     1     -44.064  56.842 -53.369  1.00  0.00     0.122 A 
HETATM   10  N   UNL     1     -44.677  58.039 -53.105  1.00  0.00    -0.262 N 
HETATM   11  H   UNL     1     -44.862  58.447 -52.198  1.00  0.00     0.191 HD
HETATM   12  N   UNL     1     -45.109  58.696 -54.193  1.00  0.00    -0.173 NA
HETATM   13  C   UNL     1     -44.802  57.884 -55.217  1.00  0.00     0.090 A 
HETATM   14  C   UNL     1     -44.154  56.711 -54.739  1.00  0.00     0.084 A 
BRANCH  13  15
HETATM   15  C   UNL     1     -45.144  58.227 -56.601  1.00  0.00    -0.005 A 
HETATM   16  C   UNL     1     -44.138  58.585 -57.513  1.00  0.00     0.015 A 
HETATM   17  C   UNL     1     -44.452  58.934 -58.830  1.00  0.00     0.024 A 
HETATM   18  C   UNL     1     -45.779  58.922 -59.248  1.00  0.00     0.034 A 
HETATM   19 CL   UNL     1     -46.170  59.351 -60.867  1.00  0.00    -0.084 Cl
HETATM   20  C   UNL     1     -46.793  58.563 -58.363  1.00  0.00     0.024 A 
HETATM   21  C   UNL     1     -46.476  58.218 -57.044  1.00  0.00     0.015 A 
ENDBRANCH  13  15
ENDBRANCH   5   9
BRANCH   1  22
HETATM   22  C   UNL     1     -39.782  54.217 -50.151  1.00  0.00     0.107 C 
BRANCH  22  23
HETATM   23  C   UNL     1     -40.333  52.821 -49.869  1.00  0.00     0.048 C 
BRANCH  23  24
HETATM   24  C   UNL     1     -40.129  51.919 -51.064  1.00  0.00    -0.055 A 
HETATM   25  C   UNL     1     -40.169  52.450 -52.365  1.00  0.00     0.044 A 
HETATM   26  C   UNL     1     -39.930  51.636 -53.473  1.00  0.00     0.068 A 
HETATM   27  C   UNL     1     -39.655  50.282 -53.278  1.00  0.00     0.037 A 
HETATM   28  C   UNL     1     -39.612  49.743 -51.992  1.00  0.00     0.003 A 
HETATM   29  C   UNL     1     -39.844  50.559 -50.886  1.00  0.00     0.007 A 
BRANCH  26  30
HETATM   30  O   UNL     1     -39.931  52.036 -54.782  1.00  0.00    -0.356 OA
HETATM   31  C   UNL     1     -40.209  53.408 -55.035  1.00  0.00     0.210 C 
ENDBRANCH  26  30
ENDBRANCH  23  24
ENDBRANCH  22  23
ENDBRANCH   1  22
TORSDOF 6
ENDMDL
MODEL 8
REMARK VINA RESULT:      -7.8      2.413      3.596
REMARK  6 active torsions:
REMARK  status: ('A' for Active; 'I' for Inactive)
REMARK    1  A    between atoms: O_2  and  C_3 
REMARK    2  A    between atoms: C_5  and  C_6 
REMARK    3  A    between atoms: C_6  and  C_7 
REMARK    4  A    between atoms: C_7  and  C_8 
REMARK       I    between atoms: C_8  and  N_9 
REMARK    5  A    between atoms: N_12  and  C_13 
REMARK    6  A    between atoms: C_17  and  C_18 
ROOT
HETATM    1  C   UNL     1     -43.348  56.786 -53.119  1.00  0.00     0.220 C 
HETATM    2  N   UNL     1     -42.808  57.584 -54.123  1.00  0.00    -0.349 N 
HETATM    3  C   UNL     1     -42.183  57.051 -55.344  1.00  0.00     0.145 C 
HETATM    4  C   UNL     1     -43.229  56.978 -56.475  1.00  0.00     0.144 C 
HETATM    5  N   UNL     1     -43.851  58.308 -56.696  1.00  0.00    -0.363 N 
HETATM    6  C   UNL     1     -44.434  58.890 -55.453  1.00  0.00     0.144 C 
HETATM    7  C   UNL     1     -43.380  58.922 -54.322  1.00  0.00     0.145 C 
HETATM    8  O   UNL     1     -44.151  57.226 -52.297  1.00  0.00    -0.273 OA
ENDROOT
BRANCH   5   9
HETATM    9  C   UNL     1     -43.359  59.122 -57.678  1.00  0.00     0.122 A 
HETATM   10  N   UNL     1     -43.869  59.141 -58.950  1.00  0.00    -0.262 N 
HETATM   11  H   UNL     1     -44.625  58.579 -59.317  1.00  0.00     0.191 HD
HETATM   12  N   UNL     1     -43.241  59.979 -59.789  1.00  0.00    -0.173 NA
HETATM   13  C   UNL     1     -42.251  60.509 -59.053  1.00  0.00     0.090 A 
HETATM   14  C   UNL     1     -42.290  59.990 -57.728  1.00  0.00     0.084 A 
BRANCH  13  15
HETATM   15  C   UNL     1     -41.295  61.465 -59.621  1.00  0.00    -0.005 A 
HETATM   16  C   UNL     1     -41.301  61.740 -60.999  1.00  0.00     0.015 A 
HETATM   17  C   UNL     1     -40.383  62.634 -61.557  1.00  0.00     0.024 A 
HETATM   18  C   UNL     1     -39.452  63.267 -60.738  1.00  0.00     0.034 A 
HETATM   19 CL   UNL     1     -38.319  64.367 -61.420  1.00  0.00    -0.084 Cl
HETATM   20  C   UNL     1     -39.433  63.015 -59.368  1.00  0.00     0.024 A 
HETATM   21  C   UNL     1     -40.352  62.117 -58.813  1.00  0.00     0.015 A 
ENDBRANCH  13  15
ENDBRANCH   5   9
BRANCH   1  22
HETATM   22  C   UNL     1     -42.901  55.335 -53.091  1.00  0.00     0.107 C 
BRANCH  22  23
HETATM   23  C   UNL     1     -41.609  55.139 -52.300  1.00  0.00     0.048 C 
BRANCH  23  24
HETATM   24  C   UNL     1     -40.914  53.866 -52.725  1.00  0.00    -0.055 A 
HETATM   25  C   UNL     1     -40.446  52.961 -51.757  1.00  0.00     0.044 A 
HETATM   26  C   UNL     1     -39.849  51.758 -52.138  1.00  0.00     0.068 A 
HETATM   27  C   UNL     1     -39.716  51.463 -53.495  1.00  0.00     0.037 A 
HETATM   28  C   UNL     1     -40.176  52.354 -54.465  1.00  0.00     0.003 A 
HETATM   29  C   UNL     1     -40.778  53.551 -54.082  1.00  0.00     0.007 A 
BRANCH  26  30
HETATM   30  O   UNL     1     -39.366  50.796 -51.293  1.00  0.00    -0.356 OA
HETATM   31  C   UNL     1     -39.530  49.442 -51.699  1.00  0.00     0.210 C 
ENDBRANCH  26  30
ENDBRANCH  23  24
ENDBRANCH  22  23
ENDBRANCH   1  22
TORSDOF 6
ENDMDL
MODEL 9
REMARK VINA RESULT:      -7.7      1.443      2.104
REMARK  6 active torsions:
REMARK  status: ('A' for Active; 'I' for Inactive)
REMARK    1  A    between atoms: O_2  and  C_3 
REMARK    2  A    between atoms: C_5  and  C_6 
REMARK    3  A    between atoms: C_6  and  C_7 
REMARK    4  A    between atoms: C_7  and  C_8 
REMARK       I    between atoms: C_8  and  N_9 
REMARK    5  A    between atoms: N_12  and  C_13 
REMARK    6  A    between atoms: C_17  and  C_18 
ROOT
HETATM    1  C   UNL     1     -42.477  56.528 -51.328  1.00  0.00     0.220 C 
HETATM    2  N   UNL     1     -42.492  57.247 -52.520  1.00  0.00    -0.349 N 
HETATM    3  C   UNL     1     -41.378  57.259 -53.481  1.00  0.00     0.145 C 
HETATM    4  C   UNL     1     -41.608  56.179 -54.559  1.00  0.00     0.144 C 
HETATM    5  N   UNL     1     -42.924  56.375 -55.219  1.00  0.00    -0.363 N 
HETATM    6  C   UNL     1     -44.057  56.428 -54.252  1.00  0.00     0.144 C 
HETATM    7  C   UNL     1     -43.791  57.490 -53.160  1.00  0.00     0.145 C 
HETATM    8  O   UNL     1     -43.510  56.253 -50.719  1.00  0.00    -0.273 OA
ENDROOT
BRANCH   5   9
HETATM    9  C   UNL     1     -42.985  57.066 -56.397  1.00  0.00     0.122 A 
HETATM   10  N   UNL     1     -43.806  56.700 -57.431  1.00  0.00    -0.262 N 
HETATM   11  H   UNL     1     -44.432  55.906 -57.466  1.00  0.00     0.191 HD
HETATM   12  N   UNL     1     -43.711  57.477 -58.521  1.00  0.00    -0.173 NA
HETATM   13  C   UNL     1     -42.760  58.373 -58.210  1.00  0.00     0.090 A 
HETATM   14  C   UNL     1     -42.279  58.142 -56.890  1.00  0.00     0.084 A 
BRANCH  13  15
HETATM   15  C   UNL     1     -42.326  59.398 -59.164  1.00  0.00    -0.005 A 
HETATM   16  C   UNL     1     -41.735  60.587 -58.708  1.00  0.00     0.015 A 
HETATM   17  C   UNL     1     -41.334  61.582 -59.606  1.00  0.00     0.024 A 
HETATM   18  C   UNL     1     -41.517  61.390 -60.972  1.00  0.00     0.034 A 
HETATM   19 CL   UNL     1     -41.027  62.611 -62.081  1.00  0.00    -0.084 Cl
HETATM   20  C   UNL     1     -42.095  60.215 -61.447  1.00  0.00     0.024 A 
HETATM   21  C   UNL     1     -42.498  59.223 -60.546  1.00  0.00     0.015 A 
ENDBRANCH  13  15
ENDBRANCH   5   9
BRANCH   1  22
HETATM   22  C   UNL     1     -41.116  56.091 -50.816  1.00  0.00     0.107 C 
BRANCH  22  23
HETATM   23  C   UNL     1     -41.155  54.714 -50.158  1.00  0.00     0.048 C 
BRANCH  23  24
HETATM   24  C   UNL     1     -40.641  53.656 -51.107  1.00  0.00    -0.055 A 
HETATM   25  C   UNL     1     -40.281  52.387 -50.622  1.00  0.00     0.044 A 
HETATM   26  C   UNL     1     -39.855  51.386 -51.496  1.00  0.00     0.068 A 
HETATM   27  C   UNL     1     -39.784  51.659 -52.863  1.00  0.00     0.037 A 
HETATM   28  C   UNL     1     -40.139  52.914 -53.357  1.00  0.00     0.003 A 
HETATM   29  C   UNL     1     -40.571  53.910 -52.482  1.00  0.00     0.007 A 
BRANCH  26  30
HETATM   30  O   UNL     1     -39.489  50.114 -51.147  1.00  0.00    -0.356 OA
HETATM   31  C   UNL     1     -39.463  49.144 -52.187  1.00  0.00     0.210 C 
ENDBRANCH  26  30
ENDBRANCH  23  24
ENDBRANCH  22  23
ENDBRANCH   1  22
TORSDOF 6
ENDMDL
MODEL 10
REMARK VINA RESULT:      -7.7     15.447     19.601
REMARK  6 active torsions:
REMARK  status: ('A' for Active; 'I' for Inactive)
REMARK    1  A    between atoms: O_2  and  C_3 
REMARK    2  A    between atoms: C_5  and  C_6 
REMARK    3  A    between atoms: C_6  and  C_7 
REMARK    4  A    between atoms: C_7  and  C_8 
REMARK       I    between atoms: C_8  and  N_9 
REMARK    5  A    between atoms: N_12  and  C_13 
REMARK    6  A    between atoms: C_17  and  C_18 
ROOT
HETATM    1  C   UNL     1     -36.234  41.457 -53.385  1.00  0.00     0.220 C 
HETATM    2  N   UNL     1     -35.836  40.968 -52.144  1.00  0.00    -0.349 N 
HETATM    3  C   UNL     1     -35.740  39.536 -51.823  1.00  0.00     0.145 C 
HETATM    4  C   UNL     1     -34.299  39.042 -52.068  1.00  0.00     0.144 C 
HETATM    5  N   UNL     1     -33.330  39.859 -51.294  1.00  0.00    -0.363 N 
HETATM    6  C   UNL     1     -33.457  41.319 -51.563  1.00  0.00     0.144 C 
HETATM    7  C   UNL     1     -34.915  41.787 -51.346  1.00  0.00     0.145 C 
HETATM    8  O   UNL     1     -35.986  42.608 -53.743  1.00  0.00    -0.273 OA
ENDROOT
BRANCH   5   9
HETATM    9  C   UNL     1     -32.903  39.412 -50.075  1.00  0.00     0.122 A 
HETATM   10  N   UNL     1     -33.404  38.284 -49.481  1.00  0.00    -0.262 N 
HETATM   11  H   UNL     1     -34.126  37.671 -49.837  1.00  0.00     0.191 HD
HETATM   12  N   UNL     1     -32.889  38.016 -48.271  1.00  0.00    -0.173 NA
HETATM   13  C   UNL     1     -32.039  39.028 -48.038  1.00  0.00     0.090 A 
HETATM   14  C   UNL     1     -32.027  39.925 -49.143  1.00  0.00     0.084 A 
BRANCH  13  15
HETATM   15  C   UNL     1     -31.285  39.128 -46.784  1.00  0.00    -0.005 A 
HETATM   16  C   UNL     1     -31.511  38.209 -45.746  1.00  0.00     0.015 A 
HETATM   17  C   UNL     1     -30.814  38.305 -44.537  1.00  0.00     0.024 A 
HETATM   18  C   UNL     1     -29.879  39.321 -44.360  1.00  0.00     0.034 A 
HETATM   19 CL   UNL     1     -29.019  39.444 -42.875  1.00  0.00    -0.084 Cl
HETATM   20  C   UNL     1     -29.634  40.239 -45.379  1.00  0.00     0.024 A 
HETATM   21  C   UNL     1     -30.336  40.142 -46.586  1.00  0.00     0.015 A 
ENDBRANCH  13  15
ENDBRANCH   5   9
BRANCH   1  22
HETATM   22  C   UNL     1     -36.991  40.494 -54.283  1.00  0.00     0.107 C 
BRANCH  22  23
HETATM   23  C   UNL     1     -38.130  41.174 -55.038  1.00  0.00     0.048 C 
BRANCH  23  24
HETATM   24  C   UNL     1     -37.865  41.161 -56.525  1.00  0.00    -0.055 A 
HETATM   25  C   UNL     1     -38.385  40.129 -57.326  1.00  0.00     0.044 A 
HETATM   26  C   UNL     1     -38.191  40.135 -58.708  1.00  0.00     0.068 A 
HETATM   27  C   UNL     1     -37.466  41.176 -59.290  1.00  0.00     0.037 A 
HETATM   28  C   UNL     1     -36.944  42.205 -58.506  1.00  0.00     0.003 A 
HETATM   29  C   UNL     1     -37.146  42.201 -57.127  1.00  0.00     0.007 A 
BRANCH  26  30
HETATM   30  O   UNL     1     -38.655  39.198 -59.591  1.00  0.00    -0.356 OA
HETATM   31  C   UNL     1     -37.936  39.050 -60.809  1.00  0.00     0.210 C 
ENDBRANCH  26  30
ENDBRANCH  23  24
ENDBRANCH  22  23
ENDBRANCH   1  22
TORSDOF 6
ENDMDL
