MODEL 1
REMARK VINA RESULT:      -9.2      0.000      0.000
REMARK  5 active torsions:
REMARK  status: ('A' for Active; 'I' for Inactive)
REMARK    1  A    between atoms: C_3  and  O_4 
REMARK    2  A    between atoms: C_6  and  N_7 
REMARK       I    between atoms: N_7  and  C_8 
REMARK    3  A    between atoms: C_8  and  C_9 
REMARK    4  A    between atoms: C_14  and  C_15 
REMARK    5  A    between atoms: C_23  and  C_24 
ROOT
HETATM    1  C   UNL     1     -43.181  56.800 -56.446  1.00  0.00     0.148 A 
HETATM    2  N   UNL     1     -43.919  56.629 -55.321  1.00  0.00    -0.165 NA
HETATM    3  N   UNL     1     -43.052  56.043 -54.475  1.00  0.00    -0.240 N 
HETATM    4  C   UNL     1     -41.852  55.719 -55.039  1.00  0.00     0.123 A 
HETATM    5  N   UNL     1     -40.940  54.987 -54.370  1.00  0.00    -0.366 N 
HETATM    6  C   UNL     1     -41.227  54.348 -53.088  1.00  0.00     0.118 C 
HETATM    7  C   UNL     1     -42.741  54.326 -52.786  1.00  0.00     0.066 C 
HETATM    8  C   UNL     1     -43.420  55.661 -53.125  1.00  0.00     0.221 C 
HETATM    9  C   UNL     1     -41.871  56.263 -56.294  1.00  0.00     0.089 A 
HETATM   10  H   UNL     1     -40.029  54.773 -54.777  1.00  0.00     0.161 HD
ENDROOT
BRANCH   1  11
HETATM   11  C   UNL     1     -43.736  57.421 -57.663  1.00  0.00     0.276 C 
HETATM   12  N   UNL     1     -45.063  57.086 -57.847  1.00  0.00    -0.322 N 
HETATM   13  H   UNL     1     -45.430  56.482 -57.115  1.00  0.00     0.169 HD
HETATM   14  O   UNL     1     -43.042  58.113 -58.398  1.00  0.00    -0.266 OA
BRANCH  12  15
HETATM   15  C   UNL     1     -45.912  57.431 -58.912  1.00  0.00     0.037 A 
HETATM   16  C   UNL     1     -46.191  56.591 -59.991  1.00  0.00     0.066 A 
HETATM   17  C   UNL     1     -47.054  57.018 -61.000  1.00  0.00     0.067 A 
HETATM   18  C   UNL     1     -47.652  58.271 -60.952  1.00  0.00     0.036 A 
HETATM   19  C   UNL     1     -47.379  59.115 -59.878  1.00  0.00     0.005 A 
HETATM   20  C   UNL     1     -46.510  58.698 -58.866  1.00  0.00     0.029 A 
BRANCH  17  21
HETATM   21  O   UNL     1     -47.289  56.163 -62.038  1.00  0.00    -0.361 OA
HETATM   22  H   UNL     1     -48.130  55.705 -61.883  1.00  0.00     0.217 HD
ENDBRANCH  17  21
ENDBRANCH  12  15
ENDBRANCH   1  11
BRANCH   8  23
HETATM   23  C   UNL     1     -43.057  56.766 -52.159  1.00  0.00     0.409 C 
HETATM   24  F   UNL     1     -42.043  57.534 -52.611  1.00  0.00    -0.169 F 
HETATM   25  F   UNL     1     -44.122  57.593 -51.992  1.00  0.00    -0.169 F 
HETATM   26  F   UNL     1     -42.722  56.320 -50.930  1.00  0.00    -0.169 F 
ENDBRANCH   8  23
BRANCH   6  27
HETATM   27  C   UNL     1     -40.658  52.938 -53.103  1.00  0.00    -0.035 A 
HETATM   28  C   UNL     1     -40.747  52.147 -54.260  1.00  0.00     0.012 A 
HETATM   29  C   UNL     1     -40.224  50.851 -54.272  1.00  0.00     0.043 A 
HETATM   30  C   UNL     1     -39.612  50.343 -53.133  1.00  0.00     0.116 A 
HETATM   31  F   UNL     1     -39.112  49.101 -53.149  1.00  0.00    -0.206 F 
HETATM   32  C   UNL     1     -39.512  51.105 -51.976  1.00  0.00     0.043 A 
HETATM   33  C   UNL     1     -40.035  52.398 -51.960  1.00  0.00     0.012 A 
ENDBRANCH   6  27
TORSDOF 5
ENDMDL
MODEL 2
REMARK VINA RESULT:      -8.9      4.583      6.898
REMARK  5 active torsions:
REMARK  status: ('A' for Active; 'I' for Inactive)
REMARK    1  A    between atoms: C_3  and  O_4 
REMARK    2  A    between atoms: C_6  and  N_7 
REMARK       I    between atoms: N_7  and  C_8 
REMARK    3  A    between atoms: C_8  and  C_9 
REMARK    4  A    between atoms: C_14  and  C_15 
REMARK    5  A    between atoms: C_23  and  C_24 
ROOT
HETATM    1  C   UNL     1     -41.819  57.846 -51.743  1.00  0.00     0.148 A 
HETATM    2  N   UNL     1     -41.312  57.904 -53.000  1.00  0.00    -0.165 NA
HETATM    3  N   UNL     1     -41.503  56.655 -53.463  1.00  0.00    -0.240 N 
HETATM    4  C   UNL     1     -41.985  55.781 -52.531  1.00  0.00     0.123 A 
HETATM    5  N   UNL     1     -42.080  54.462 -52.793  1.00  0.00    -0.366 N 
HETATM    6  C   UNL     1     -41.525  53.855 -54.000  1.00  0.00     0.118 C 
HETATM    7  C   UNL     1     -40.555  54.811 -54.727  1.00  0.00     0.066 C 
HETATM    8  C   UNL     1     -41.097  56.247 -54.793  1.00  0.00     0.221 C 
HETATM    9  C   UNL     1     -42.273  56.535 -51.427  1.00  0.00     0.089 A 
HETATM   10  H   UNL     1     -42.471  53.813 -52.110  1.00  0.00     0.161 HD
ENDROOT
BRANCH   1  11
HETATM   11  C   UNL     1     -41.821  59.015 -50.843  1.00  0.00     0.276 C 
HETATM   12  N   UNL     1     -42.927  59.816 -51.050  1.00  0.00    -0.322 N 
HETATM   13  H   UNL     1     -43.549  59.463 -51.773  1.00  0.00     0.169 HD
HETATM   14  O   UNL     1     -40.906  59.211 -50.052  1.00  0.00    -0.266 OA
BRANCH  12  15
HETATM   15  C   UNL     1     -43.250  61.036 -50.433  1.00  0.00     0.037 A 
HETATM   16  C   UNL     1     -42.695  62.263 -50.796  1.00  0.00     0.066 A 
HETATM   17  C   UNL     1     -43.082  63.427 -50.130  1.00  0.00     0.067 A 
HETATM   18  C   UNL     1     -44.021  63.390 -49.106  1.00  0.00     0.036 A 
HETATM   19  C   UNL     1     -44.580  62.168 -48.738  1.00  0.00     0.005 A 
HETATM   20  C   UNL     1     -44.192  60.997 -49.396  1.00  0.00     0.029 A 
BRANCH  17  21
HETATM   21  O   UNL     1     -42.505  64.601 -50.517  1.00  0.00    -0.361 OA
HETATM   22  H   UNL     1     -42.816  64.825 -51.408  1.00  0.00     0.217 HD
ENDBRANCH  17  21
ENDBRANCH  12  15
ENDBRANCH   1  11
BRANCH   8  23
HETATM   23  C   UNL     1     -42.254  56.393 -55.755  1.00  0.00     0.409 C 
HETATM   24  F   UNL     1     -42.179  57.527 -56.484  1.00  0.00    -0.169 F 
HETATM   25  F   UNL     1     -42.241  55.363 -56.642  1.00  0.00    -0.169 F 
HETATM   26  F   UNL     1     -43.463  56.366 -55.155  1.00  0.00    -0.169 F 
ENDBRANCH   8  23
BRANCH   6  27
HETATM   27  C   UNL     1     -40.823  52.560 -53.621  1.00  0.00    -0.035 A 
HETATM   28  C   UNL     1     -40.165  52.442 -52.386  1.00  0.00     0.012 A 
HETATM   29  C   UNL     1     -39.521  51.252 -52.039  1.00  0.00     0.043 A 
HETATM   30  C   UNL     1     -39.533  50.178 -52.921  1.00  0.00     0.116 A 
HETATM   31  F   UNL     1     -38.915  49.040 -52.584  1.00  0.00    -0.206 F 
HETATM   32  C   UNL     1     -40.177  50.270 -54.148  1.00  0.00     0.043 A 
HETATM   33  C   UNL     1     -40.819  51.457 -54.498  1.00  0.00     0.012 A 
ENDBRANCH   6  27
TORSDOF 5
ENDMDL
MODEL 3
REMARK VINA RESULT:      -8.7      1.593      1.776
REMARK  5 active torsions:
REMARK  status: ('A' for Active; 'I' for Inactive)
REMARK    1  A    between atoms: C_3  and  O_4 
REMARK    2  A    between atoms: C_6  and  N_7 
REMARK       I    between atoms: N_7  and  C_8 
REMARK    3  A    between atoms: C_8  and  C_9 
REMARK    4  A    between atoms: C_14  and  C_15 
REMARK    5  A    between atoms: C_23  and  C_24 
ROOT
HETATM    1  C   UNL     1     -43.598  56.915 -54.867  1.00  0.00     0.148 A 
HETATM    2  N   UNL     1     -43.778  56.857 -53.524  1.00  0.00    -0.165 NA
HETATM    3  N   UNL     1     -42.694  56.182 -53.100  1.00  0.00    -0.240 N 
HETATM    4  C   UNL     1     -41.907  55.701 -54.107  1.00  0.00     0.123 A 
HETATM    5  N   UNL     1     -40.875  54.872 -53.852  1.00  0.00    -0.366 N 
HETATM    6  C   UNL     1     -40.633  54.296 -52.531  1.00  0.00     0.118 C 
HETATM    7  C   UNL     1     -41.852  54.468 -51.599  1.00  0.00     0.066 C 
HETATM    8  C   UNL     1     -42.467  55.872 -51.703  1.00  0.00     0.221 C 
HETATM    9  C   UNL     1     -42.420  56.222 -55.263  1.00  0.00     0.089 A 
HETATM   10  H   UNL     1     -40.265  54.539 -54.599  1.00  0.00     0.161 HD
ENDROOT
BRANCH   1  11
HETATM   11  C   UNL     1     -44.565  57.580 -55.761  1.00  0.00     0.276 C 
HETATM   12  N   UNL     1     -44.311  57.296 -57.089  1.00  0.00    -0.322 N 
HETATM   13  H   UNL     1     -43.515  56.676 -57.221  1.00  0.00     0.169 HD
HETATM   14  O   UNL     1     -45.443  58.310 -55.319  1.00  0.00    -0.266 OA
BRANCH  12  15
HETATM   15  C   UNL     1     -44.970  57.785 -58.228  1.00  0.00     0.037 A 
HETATM   16  C   UNL     1     -44.325  58.427 -59.286  1.00  0.00     0.066 A 
HETATM   17  C   UNL     1     -45.063  58.873 -60.383  1.00  0.00     0.067 A 
HETATM   18  C   UNL     1     -46.439  58.687 -60.448  1.00  0.00     0.036 A 
HETATM   19  C   UNL     1     -47.089  58.047 -59.395  1.00  0.00     0.005 A 
HETATM   20  C   UNL     1     -46.358  57.602 -58.290  1.00  0.00     0.029 A 
BRANCH  17  21
HETATM   21  O   UNL     1     -44.388  59.502 -61.389  1.00  0.00    -0.361 OA
HETATM   22  H   UNL     1     -43.814  60.183 -61.003  1.00  0.00     0.217 HD
ENDBRANCH  17  21
ENDBRANCH  12  15
ENDBRANCH   1  11
BRANCH   8  23
HETATM   23  C   UNL     1     -41.601  56.939 -51.071  1.00  0.00     0.409 C 
HETATM   24  F   UNL     1     -40.680  57.429 -51.928  1.00  0.00    -0.169 F 
HETATM   25  F   UNL     1     -42.377  57.990 -50.695  1.00  0.00    -0.169 F 
HETATM   26  F   UNL     1     -40.955  56.524 -49.961  1.00  0.00    -0.169 F 
ENDBRANCH   8  23
BRANCH   6  27
HETATM   27  C   UNL     1     -40.280  52.826 -52.693  1.00  0.00    -0.035 A 
HETATM   28  C   UNL     1     -40.386  52.202 -53.947  1.00  0.00     0.012 A 
HETATM   29  C   UNL     1     -40.061  50.851 -54.094  1.00  0.00     0.043 A 
HETATM   30  C   UNL     1     -39.631  50.121 -52.993  1.00  0.00     0.116 A 
HETATM   31  F   UNL     1     -39.321  48.827 -53.139  1.00  0.00    -0.206 F 
HETATM   32  C   UNL     1     -39.519  50.714 -51.742  1.00  0.00     0.043 A 
HETATM   33  C   UNL     1     -39.844  52.062 -51.593  1.00  0.00     0.012 A 
ENDBRANCH   6  27
TORSDOF 5
ENDMDL
MODEL 4
REMARK VINA RESULT:      -8.7      5.253      9.403
REMARK  5 active torsions:
REMARK  status: ('A' for Active; 'I' for Inactive)
REMARK    1  A    between atoms: C_3  and  O_4 
REMARK    2  A    between atoms: C_6  and  N_7 
REMARK       I    between atoms: N_7  and  C_8 
REMARK    3  A    between atoms: C_8  and  C_9 
REMARK    4  A    between atoms: C_14  and  C_15 
REMARK    5  A    between atoms: C_23  and  C_24 
ROOT
HETATM    1  C   UNL     1     -42.054  55.804 -51.861  1.00  0.00     0.148 A 
HETATM    2  N   UNL     1     -42.547  56.436 -52.955  1.00  0.00    -0.165 NA
HETATM    3  N   UNL     1     -42.497  57.735 -52.604  1.00  0.00    -0.240 N 
HETATM    4  C   UNL     1     -42.121  57.950 -51.309  1.00  0.00     0.123 A 
HETATM    5  N   UNL     1     -42.175  59.180 -50.761  1.00  0.00    -0.366 N 
HETATM    6  C   UNL     1     -42.792  60.319 -51.437  1.00  0.00     0.118 C 
HETATM    7  C   UNL     1     -43.644  59.874 -52.646  1.00  0.00     0.066 C 
HETATM    8  C   UNL     1     -42.942  58.796 -53.485  1.00  0.00     0.221 C 
HETATM    9  C   UNL     1     -41.753  56.727 -50.820  1.00  0.00     0.089 A 
HETATM   10  H   UNL     1     -41.863  59.348 -49.804  1.00  0.00     0.161 HD
ENDROOT
BRANCH   1  11
HETATM   11  C   UNL     1     -41.922  54.336 -51.795  1.00  0.00     0.276 C 
HETATM   12  N   UNL     1     -40.807  53.893 -52.478  1.00  0.00    -0.322 N 
HETATM   13  H   UNL     1     -40.268  54.646 -52.898  1.00  0.00     0.169 HD
HETATM   14  O   UNL     1     -42.754  53.647 -51.216  1.00  0.00    -0.266 OA
BRANCH  12  15
HETATM   15  C   UNL     1     -40.380  52.572 -52.689  1.00  0.00     0.037 A 
HETATM   16  C   UNL     1     -39.880  51.743 -51.684  1.00  0.00     0.066 A 
HETATM   17  C   UNL     1     -39.486  50.440 -51.987  1.00  0.00     0.067 A 
HETATM   18  C   UNL     1     -39.584  49.942 -53.281  1.00  0.00     0.036 A 
HETATM   19  C   UNL     1     -40.081  50.764 -54.291  1.00  0.00     0.005 A 
HETATM   20  C   UNL     1     -40.473  52.073 -53.996  1.00  0.00     0.029 A 
BRANCH  17  21
HETATM   21  O   UNL     1     -38.997  49.672 -50.971  1.00  0.00    -0.361 OA
HETATM   22  H   UNL     1     -39.350  50.003 -50.130  1.00  0.00     0.217 HD
ENDBRANCH  17  21
ENDBRANCH  12  15
ENDBRANCH   1  11
BRANCH   8  23
HETATM   23  C   UNL     1     -41.772  59.337 -54.275  1.00  0.00     0.409 C 
HETATM   24  F   UNL     1     -40.586  59.072 -53.687  1.00  0.00    -0.169 F 
HETATM   25  F   UNL     1     -41.737  58.746 -55.499  1.00  0.00    -0.169 F 
HETATM   26  F   UNL     1     -41.837  60.668 -54.494  1.00  0.00    -0.169 F 
ENDBRANCH   8  23
BRANCH   6  27
HETATM   27  C   UNL     1     -43.637  61.087 -50.434  1.00  0.00    -0.035 A 
HETATM   28  C   UNL     1     -44.748  60.480 -49.826  1.00  0.00     0.012 A 
HETATM   29  C   UNL     1     -45.524  61.188 -48.904  1.00  0.00     0.043 A 
HETATM   30  C   UNL     1     -45.193  62.499 -48.586  1.00  0.00     0.116 A 
HETATM   31  F   UNL     1     -45.939  63.173 -47.702  1.00  0.00    -0.206 F 
HETATM   32  C   UNL     1     -44.100  63.122 -49.174  1.00  0.00     0.043 A 
HETATM   33  C   UNL     1     -43.325  62.419 -50.095  1.00  0.00     0.012 A 
ENDBRANCH   6  27
TORSDOF 5
ENDMDL
MODEL 5
REMARK VINA RESULT:      -8.5      4.246      6.800
REMARK  5 active torsions:
REMARK  status: ('A' for Active; 'I' for Inactive)
REMARK    1  A    between atoms: C_3  and  O_4 
REMARK    2  A    between atoms: C_6  and  N_7 
REMARK       I    between atoms: N_7  and  C_8 
REMARK    3  A    between atoms: C_8  and  C_9 
REMARK    4  A    between atoms: C_14  and  C_15 
REMARK    5  A    between atoms: C_23  and  C_24 
ROOT
HETATM    1  C   UNL     1     -44.014  58.301 -53.122  1.00  0.00     0.148 A 
HETATM    2  N   UNL     1     -43.160  58.379 -54.172  1.00  0.00    -0.165 NA
HETATM    3  N   UNL     1     -42.877  57.089 -54.430  1.00  0.00    -0.240 N 
HETATM    4  C   UNL     1     -43.402  56.210 -53.526  1.00  0.00     0.123 A 
HETATM    5  N   UNL     1     -43.078  54.902 -53.555  1.00  0.00    -0.366 N 
HETATM    6  C   UNL     1     -42.031  54.366 -54.421  1.00  0.00     0.118 C 
HETATM    7  C   UNL     1     -41.146  55.487 -55.010  1.00  0.00     0.066 C 
HETATM    8  C   UNL     1     -41.975  56.687 -55.492  1.00  0.00     0.221 C 
HETATM    9  C   UNL     1     -44.208  56.953 -52.709  1.00  0.00     0.089 A 
HETATM   10  H   UNL     1     -43.496  54.238 -52.902  1.00  0.00     0.161 HD
ENDROOT
BRANCH   1  11
HETATM   11  C   UNL     1     -44.596  59.502 -52.492  1.00  0.00     0.276 C 
HETATM   12  N   UNL     1     -44.070  59.724 -51.235  1.00  0.00    -0.322 N 
HETATM   13  H   UNL     1     -43.373  59.035 -50.964  1.00  0.00     0.169 HD
HETATM   14  O   UNL     1     -45.463  60.160 -53.056  1.00  0.00    -0.266 OA
BRANCH  12  15
HETATM   15  C   UNL     1     -44.412  60.724 -50.309  1.00  0.00     0.037 A 
HETATM   16  C   UNL     1     -45.436  60.599 -49.369  1.00  0.00     0.066 A 
HETATM   17  C   UNL     1     -45.699  61.644 -48.483  1.00  0.00     0.067 A 
HETATM   18  C   UNL     1     -44.953  62.817 -48.514  1.00  0.00     0.036 A 
HETATM   19  C   UNL     1     -43.929  62.949 -49.449  1.00  0.00     0.005 A 
HETATM   20  C   UNL     1     -43.664  61.909 -50.345  1.00  0.00     0.029 A 
BRANCH  17  21
HETATM   21  O   UNL     1     -46.715  61.477 -47.588  1.00  0.00    -0.361 OA
HETATM   22  H   UNL     1     -46.384  60.969 -46.830  1.00  0.00     0.217 HD
ENDBRANCH  17  21
ENDBRANCH  12  15
ENDBRANCH   1  11
BRANCH   8  23
HETATM   23  C   UNL     1     -42.758  56.391 -56.751  1.00  0.00     0.409 C 
HETATM   24  F   UNL     1     -44.039  56.810 -56.672  1.00  0.00    -0.169 F 
HETATM   25  F   UNL     1     -42.200  57.052 -57.799  1.00  0.00    -0.169 F 
HETATM   26  F   UNL     1     -42.770  55.084 -57.086  1.00  0.00    -0.169 F 
ENDBRANCH   8  23
BRANCH   6  27
HETATM   27  C   UNL     1     -41.193  53.378 -53.626  1.00  0.00    -0.035 A 
HETATM   28  C   UNL     1     -41.001  53.556 -52.246  1.00  0.00     0.012 A 
HETATM   29  C   UNL     1     -40.230  52.647 -51.517  1.00  0.00     0.043 A 
HETATM   30  C   UNL     1     -39.651  51.560 -52.160  1.00  0.00     0.116 A 
HETATM   31  F   UNL     1     -38.914  50.692 -51.457  1.00  0.00    -0.206 F 
HETATM   32  C   UNL     1     -39.825  51.362 -53.524  1.00  0.00     0.043 A 
HETATM   33  C   UNL     1     -40.593  52.269 -54.255  1.00  0.00     0.012 A 
ENDBRANCH   6  27
TORSDOF 5
ENDMDL
MODEL 6
REMARK VINA RESULT:      -8.4      5.266      9.284
REMARK  5 active torsions:
REMARK  status: ('A' for Active; 'I' for Inactive)
REMARK    1  A    between atoms: C_3  and  O_4 
REMARK    2  A    between atoms: C_6  and  N_7 
REMARK       I    between atoms: N_7  and  C_8 
REMARK    3  A    between atoms: C_8  and  C_9 
REMARK    4  A    between atoms: C_14  and  C_15 
REMARK    5  A    between atoms: C_23  and  C_24 
ROOT
HETATM    1  C   UNL     1     -41.971  55.655 -52.563  1.00  0.00     0.148 A 
HETATM    2  N   UNL     1     -41.132  56.669 -52.890  1.00  0.00    -0.165 NA
HETATM    3  N   UNL     1     -41.625  57.709 -52.191  1.00  0.00    -0.240 N 
HETATM    4  C   UNL     1     -42.796  57.441 -51.542  1.00  0.00     0.123 A 
HETATM    5  N   UNL     1     -43.496  58.418 -50.932  1.00  0.00    -0.366 N 
HETATM    6  C   UNL     1     -43.155  59.833 -51.063  1.00  0.00     0.118 C 
HETATM    7  C   UNL     1     -42.159  60.077 -52.218  1.00  0.00     0.066 C 
HETATM    8  C   UNL     1     -41.034  59.031 -52.244  1.00  0.00     0.221 C 
HETATM    9  C   UNL     1     -43.011  56.099 -51.698  1.00  0.00     0.089 A 
HETATM   10  H   UNL     1     -44.354  58.215 -50.418  1.00  0.00     0.161 HD
ENDROOT
BRANCH   1  11
HETATM   11  C   UNL     1     -41.809  54.294 -53.109  1.00  0.00     0.276 C 
HETATM   12  N   UNL     1     -40.848  53.579 -52.421  1.00  0.00    -0.322 N 
HETATM   13  H   UNL     1     -40.427  54.104 -51.658  1.00  0.00     0.169 HD
HETATM   14  O   UNL     1     -42.455  53.916 -54.079  1.00  0.00    -0.266 OA
BRANCH  12  15
HETATM   15  C   UNL     1     -40.373  52.282 -52.677  1.00  0.00     0.037 A 
HETATM   16  C   UNL     1     -39.906  51.414 -51.690  1.00  0.00     0.066 A 
HETATM   17  C   UNL     1     -39.460  50.139 -52.039  1.00  0.00     0.067 A 
HETATM   18  C   UNL     1     -39.474  49.709 -53.360  1.00  0.00     0.036 A 
HETATM   19  C   UNL     1     -39.939  50.571 -54.351  1.00  0.00     0.005 A 
HETATM   20  C   UNL     1     -40.382  51.852 -54.011  1.00  0.00     0.029 A 
BRANCH  17  21
HETATM   21  O   UNL     1     -39.005  49.330 -51.038  1.00  0.00    -0.361 OA
HETATM   22  H   UNL     1     -38.164  49.683 -50.707  1.00  0.00     0.217 HD
ENDBRANCH  17  21
ENDBRANCH  12  15
ENDBRANCH   1  11
BRANCH   8  23
HETATM   23  C   UNL     1     -40.048  59.203 -51.111  1.00  0.00     0.409 C 
HETATM   24  F   UNL     1     -40.059  58.159 -50.255  1.00  0.00    -0.169 F 
HETATM   25  F   UNL     1     -38.787  59.277 -51.613  1.00  0.00    -0.169 F 
HETATM   26  F   UNL     1     -40.240  60.329 -50.392  1.00  0.00    -0.169 F 
ENDBRANCH   8  23
BRANCH   6  27
HETATM   27  C   UNL     1     -44.434  60.628 -51.276  1.00  0.00    -0.035 A 
HETATM   28  C   UNL     1     -45.586  60.003 -51.783  1.00  0.00     0.012 A 
HETATM   29  C   UNL     1     -46.759  60.736 -51.978  1.00  0.00     0.043 A 
HETATM   30  C   UNL     1     -46.788  62.090 -51.667  1.00  0.00     0.116 A 
HETATM   31  F   UNL     1     -47.914  62.787 -51.856  1.00  0.00    -0.206 F 
HETATM   32  C   UNL     1     -45.662  62.731 -51.166  1.00  0.00     0.043 A 
HETATM   33  C   UNL     1     -44.489  62.003 -50.972  1.00  0.00     0.012 A 
ENDBRANCH   6  27
TORSDOF 5
ENDMDL
MODEL 7
REMARK VINA RESULT:      -8.2      1.744      2.406
REMARK  5 active torsions:
REMARK  status: ('A' for Active; 'I' for Inactive)
REMARK    1  A    between atoms: C_3  and  O_4 
REMARK    2  A    between atoms: C_6  and  N_7 
REMARK       I    between atoms: N_7  and  C_8 
REMARK    3  A    between atoms: C_8  and  C_9 
REMARK    4  A    between atoms: C_14  and  C_15 
REMARK    5  A    between atoms: C_23  and  C_24 
ROOT
HETATM    1  C   UNL     1     -43.098  56.644 -55.726  1.00  0.00     0.148 A 
HETATM    2  N   UNL     1     -43.606  56.606 -54.469  1.00  0.00    -0.165 NA
HETATM    3  N   UNL     1     -42.648  55.966 -53.773  1.00  0.00    -0.240 N 
HETATM    4  C   UNL     1     -41.625  55.487 -54.541  1.00  0.00     0.123 A 
HETATM    5  N   UNL     1     -40.673  54.689 -54.018  1.00  0.00    -0.366 N 
HETATM    6  C   UNL     1     -40.755  54.144 -52.666  1.00  0.00     0.118 C 
HETATM    7  C   UNL     1     -42.171  54.301 -52.070  1.00  0.00     0.066 C 
HETATM    8  C   UNL     1     -42.769  55.687 -52.356  1.00  0.00     0.221 C 
HETATM    9  C   UNL     1     -41.845  55.974 -55.801  1.00  0.00     0.089 A 
HETATM   10  H   UNL     1     -39.890  54.358 -54.583  1.00  0.00     0.161 HD
ENDROOT
BRANCH   1  11
HETATM   11  C   UNL     1     -43.825  57.268 -56.848  1.00  0.00     0.276 C 
HETATM   12  N   UNL     1     -44.630  58.306 -56.420  1.00  0.00    -0.322 N 
HETATM   13  H   UNL     1     -44.578  58.467 -55.417  1.00  0.00     0.169 HD
HETATM   14  O   UNL     1     -43.711  56.848 -57.993  1.00  0.00    -0.266 OA
BRANCH  12  15
HETATM   15  C   UNL     1     -45.511  59.097 -57.176  1.00  0.00     0.037 A 
HETATM   16  C   UNL     1     -45.196  60.366 -57.663  1.00  0.00     0.066 A 
HETATM   17  C   UNL     1     -46.135  61.077 -58.412  1.00  0.00     0.067 A 
HETATM   18  C   UNL     1     -47.387  60.541 -58.690  1.00  0.00     0.036 A 
HETATM   19  C   UNL     1     -47.708  59.274 -58.208  1.00  0.00     0.005 A 
HETATM   20  C   UNL     1     -46.775  58.558 -57.451  1.00  0.00     0.029 A 
BRANCH  17  21
HETATM   21  O   UNL     1     -45.782  62.317 -58.859  1.00  0.00    -0.361 OA
HETATM   22  H   UNL     1     -44.882  62.515 -58.556  1.00  0.00     0.217 HD
ENDBRANCH  17  21
ENDBRANCH  12  15
ENDBRANCH   1  11
BRANCH   8  23
HETATM   23  C   UNL     1     -42.110  56.787 -51.555  1.00  0.00     0.409 C 
HETATM   24  F   UNL     1     -42.978  57.756 -51.198  1.00  0.00    -0.169 F 
HETATM   25  F   UNL     1     -41.611  56.271 -50.401  1.00  0.00    -0.169 F 
HETATM   26  F   UNL     1     -41.074  57.373 -52.191  1.00  0.00    -0.169 F 
ENDBRANCH   8  23
BRANCH   6  27
HETATM   27  C   UNL     1     -40.344  52.680 -52.700  1.00  0.00    -0.035 A 
HETATM   28  C   UNL     1     -39.939  52.026 -51.525  1.00  0.00     0.012 A 
HETATM   29  C   UNL     1     -39.562  50.681 -51.559  1.00  0.00     0.043 A 
HETATM   30  C   UNL     1     -39.589  49.986 -52.762  1.00  0.00     0.116 A 
HETATM   31  F   UNL     1     -39.227  48.698 -52.789  1.00  0.00    -0.206 F 
HETATM   32  C   UNL     1     -39.984  50.610 -53.938  1.00  0.00     0.043 A 
HETATM   33  C   UNL     1     -40.360  51.953 -53.908  1.00  0.00     0.012 A 
ENDBRANCH   6  27
TORSDOF 5
ENDMDL
MODEL 8
REMARK VINA RESULT:      -8.1      4.389      8.810
REMARK  5 active torsions:
REMARK  status: ('A' for Active; 'I' for Inactive)
REMARK    1  A    between atoms: C_3  and  O_4 
REMARK    2  A    between atoms: C_6  and  N_7 
REMARK       I    between atoms: N_7  and  C_8 
REMARK    3  A    between atoms: C_8  and  C_9 
REMARK    4  A    between atoms: C_14  and  C_15 
REMARK    5  A    between atoms: C_23  and  C_24 
ROOT
HETATM    1  C   UNL     1     -41.938  55.375 -52.755  1.00  0.00     0.148 A 
HETATM    2  N   UNL     1     -41.329  56.448 -52.192  1.00  0.00    -0.165 NA
HETATM    3  N   UNL     1     -41.838  57.485 -52.883  1.00  0.00    -0.240 N 
HETATM    4  C   UNL     1     -42.634  57.120 -53.931  1.00  0.00     0.123 A 
HETATM    5  N   UNL     1     -43.089  58.032 -54.813  1.00  0.00    -0.366 N 
HETATM    6  C   UNL     1     -42.634  59.420 -54.819  1.00  0.00     0.118 C 
HETATM    7  C   UNL     1     -41.367  59.611 -53.957  1.00  0.00     0.066 C 
HETATM    8  C   UNL     1     -41.456  58.858 -52.621  1.00  0.00     0.221 C 
HETATM    9  C   UNL     1     -42.783  55.764 -53.833  1.00  0.00     0.089 A 
HETATM   10  H   UNL     1     -43.712  57.766 -55.577  1.00  0.00     0.161 HD
ENDROOT
BRANCH   1  11
HETATM   11  C   UNL     1     -41.675  53.996 -52.303  1.00  0.00     0.276 C 
HETATM   12  N   UNL     1     -40.756  53.359 -53.113  1.00  0.00    -0.322 N 
HETATM   13  H   UNL     1     -40.414  53.946 -53.870  1.00  0.00     0.169 HD
HETATM   14  O   UNL     1     -42.261  53.521 -51.337  1.00  0.00    -0.266 OA
BRANCH  12  15
HETATM   15  C   UNL     1     -40.298  52.033 -53.041  1.00  0.00     0.037 A 
HETATM   16  C   UNL     1     -39.844  51.428 -51.868  1.00  0.00     0.066 A 
HETATM   17  C   UNL     1     -39.414  50.101 -51.891  1.00  0.00     0.067 A 
HETATM   18  C   UNL     1     -39.431  49.360 -53.067  1.00  0.00     0.036 A 
HETATM   19  C   UNL     1     -39.883  49.958 -54.241  1.00  0.00     0.005 A 
HETATM   20  C   UNL     1     -40.310  51.288 -54.228  1.00  0.00     0.029 A 
BRANCH  17  21
HETATM   21  O   UNL     1     -38.972  49.557 -50.720  1.00  0.00    -0.361 OA
HETATM   22  H   UNL     1     -38.380  50.190 -50.284  1.00  0.00     0.217 HD
ENDBRANCH  17  21
ENDBRANCH  12  15
ENDBRANCH   1  11
BRANCH   8  23
HETATM   23  C   UNL     1     -42.431  59.491 -51.655  1.00  0.00     0.409 C 
HETATM   24  F   UNL     1     -43.602  58.822 -51.592  1.00  0.00    -0.169 F 
HETATM   25  F   UNL     1     -41.907  59.471 -50.401  1.00  0.00    -0.169 F 
HETATM   26  F   UNL     1     -42.707  60.783 -51.934  1.00  0.00    -0.169 F 
ENDBRANCH   8  23
BRANCH   6  27
HETATM   27  C   UNL     1     -42.379  59.848 -56.256  1.00  0.00    -0.035 A 
HETATM   28  C   UNL     1     -42.291  61.210 -56.589  1.00  0.00     0.012 A 
HETATM   29  C   UNL     1     -42.056  61.600 -57.909  1.00  0.00     0.043 A 
HETATM   30  C   UNL     1     -41.909  60.636 -58.899  1.00  0.00     0.116 A 
HETATM   31  F   UNL     1     -41.685  61.016 -60.163  1.00  0.00    -0.206 F 
HETATM   32  C   UNL     1     -41.993  59.284 -58.596  1.00  0.00     0.043 A 
HETATM   33  C   UNL     1     -42.229  58.890 -57.279  1.00  0.00     0.012 A 
ENDBRANCH   6  27
TORSDOF 5
ENDMDL
MODEL 9
REMARK VINA RESULT:      -8.1      5.178      7.897
REMARK  5 active torsions:
REMARK  status: ('A' for Active; 'I' for Inactive)
REMARK    1  A    between atoms: C_3  and  O_4 
REMARK    2  A    between atoms: C_6  and  N_7 
REMARK       I    between atoms: N_7  and  C_8 
REMARK    3  A    between atoms: C_8  and  C_9 
REMARK    4  A    between atoms: C_14  and  C_15 
REMARK    5  A    between atoms: C_23  and  C_24 
ROOT
HETATM    1  C   UNL     1     -44.305  59.528 -51.447  1.00  0.00     0.148 A 
HETATM    2  N   UNL     1     -43.945  59.693 -52.745  1.00  0.00    -0.165 NA
HETATM    3  N   UNL     1     -43.875  58.431 -53.205  1.00  0.00    -0.240 N 
HETATM    4  C   UNL     1     -44.045  57.475 -52.244  1.00  0.00     0.123 A 
HETATM    5  N   UNL     1     -43.846  56.170 -52.514  1.00  0.00    -0.366 N 
HETATM    6  C   UNL     1     -43.276  55.702 -53.774  1.00  0.00     0.118 C 
HETATM    7  C   UNL     1     -42.634  56.856 -54.575  1.00  0.00     0.066 C 
HETATM    8  C   UNL     1     -43.507  58.120 -54.572  1.00  0.00     0.221 C 
HETATM    9  C   UNL     1     -44.402  58.149 -51.108  1.00  0.00     0.089 A 
HETATM   10  H   UNL     1     -44.006  55.452 -51.806  1.00  0.00     0.161 HD
ENDROOT
BRANCH   1  11
HETATM   11  C   UNL     1     -44.504  60.670 -50.535  1.00  0.00     0.276 C 
HETATM   12  N   UNL     1     -45.122  60.284 -49.362  1.00  0.00    -0.322 N 
HETATM   13  H   UNL     1     -45.324  59.288 -49.324  1.00  0.00     0.169 HD
HETATM   14  O   UNL     1     -44.169  61.804 -50.854  1.00  0.00    -0.266 OA
BRANCH  12  15
HETATM   15  C   UNL     1     -45.528  61.087 -48.284  1.00  0.00     0.037 A 
HETATM   16  C   UNL     1     -46.654  61.911 -48.306  1.00  0.00     0.066 A 
HETATM   17  C   UNL     1     -46.985  62.669 -47.183  1.00  0.00     0.067 A 
HETATM   18  C   UNL     1     -46.212  62.618 -46.028  1.00  0.00     0.036 A 
HETATM   19  C   UNL     1     -45.087  61.797 -45.998  1.00  0.00     0.005 A 
HETATM   20  C   UNL     1     -44.745  61.039 -47.122  1.00  0.00     0.029 A 
BRANCH  17  21
HETATM   21  O   UNL     1     -48.091  63.465 -47.257  1.00  0.00    -0.361 OA
HETATM   22  H   UNL     1     -48.666  63.274 -46.498  1.00  0.00     0.217 HD
ENDBRANCH  17  21
ENDBRANCH  12  15
ENDBRANCH   1  11
BRANCH   8  23
HETATM   23  C   UNL     1     -44.749  57.976 -55.421  1.00  0.00     0.409 C 
HETATM   24  F   UNL     1     -45.257  59.169 -55.799  1.00  0.00    -0.169 F 
HETATM   25  F   UNL     1     -44.443  57.308 -56.565  1.00  0.00    -0.169 F 
HETATM   26  F   UNL     1     -45.736  57.277 -54.822  1.00  0.00    -0.169 F 
ENDBRANCH   8  23
BRANCH   6  27
HETATM   27  C   UNL     1     -42.253  54.616 -53.478  1.00  0.00    -0.035 A 
HETATM   28  C   UNL     1     -41.749  53.811 -54.513  1.00  0.00     0.012 A 
HETATM   29  C   UNL     1     -40.810  52.815 -54.239  1.00  0.00     0.043 A 
HETATM   30  C   UNL     1     -40.370  52.619 -52.936  1.00  0.00     0.116 A 
HETATM   31  F   UNL     1     -39.470  51.662 -52.679  1.00  0.00    -0.206 F 
HETATM   32  C   UNL     1     -40.854  53.401 -51.895  1.00  0.00     0.043 A 
HETATM   33  C   UNL     1     -41.793  54.396 -52.165  1.00  0.00     0.012 A 
ENDBRANCH   6  27
TORSDOF 5
ENDMDL
MODEL 10
REMARK VINA RESULT:      -8.1      4.387      9.210
REMARK  5 active torsions:
REMARK  status: ('A' for Active; 'I' for Inactive)
REMARK    1  A    between atoms: C_3  and  O_4 
REMARK    2  A    between atoms: C_6  and  N_7 
REMARK       I    between atoms: N_7  and  C_8 
REMARK    3  A    between atoms: C_8  and  C_9 
REMARK    4  A    between atoms: C_14  and  C_15 
REMARK    5  A    between atoms: C_23  and  C_24 
ROOT
HETATM    1  C   UNL     1     -43.088  56.116 -55.679  1.00  0.00     0.148 A 
HETATM    2  N   UNL     1     -44.150  56.958 -55.626  1.00  0.00    -0.165 NA
HETATM    3  N   UNL     1     -44.018  57.687 -56.749  1.00  0.00    -0.240 N 
HETATM    4  C   UNL     1     -42.868  57.441 -57.443  1.00  0.00     0.123 A 
HETATM    5  N   UNL     1     -42.514  58.200 -58.500  1.00  0.00    -0.366 N 
HETATM    6  C   UNL     1     -43.225  59.422 -58.868  1.00  0.00     0.118 C 
HETATM    7  C   UNL     1     -44.164  59.900 -57.739  1.00  0.00     0.066 C 
HETATM    8  C   UNL     1     -44.949  58.739 -57.108  1.00  0.00     0.221 C 
HETATM    9  C   UNL     1     -42.277  56.376 -56.821  1.00  0.00     0.089 A 
HETATM   10  H   UNL     1     -41.672  57.997 -59.040  1.00  0.00     0.161 HD
ENDROOT
BRANCH   1  11
HETATM   11  C   UNL     1     -42.825  55.115 -54.629  1.00  0.00     0.276 C 
HETATM   12  N   UNL     1     -41.495  54.744 -54.598  1.00  0.00    -0.322 N 
HETATM   13  H   UNL     1     -40.928  55.227 -55.292  1.00  0.00     0.169 HD
HETATM   14  O   UNL     1     -43.728  54.679 -53.925  1.00  0.00    -0.266 OA
BRANCH  12  15
HETATM   15  C   UNL     1     -40.874  53.782 -53.785  1.00  0.00     0.037 A 
HETATM   16  C   UNL     1     -40.720  53.911 -52.404  1.00  0.00     0.066 A 
HETATM   17  C   UNL     1     -40.095  52.898 -51.676  1.00  0.00     0.067 A 
HETATM   18  C   UNL     1     -39.622  51.750 -52.301  1.00  0.00     0.036 A 
HETATM   19  C   UNL     1     -39.773  51.615 -53.679  1.00  0.00     0.005 A 
HETATM   20  C   UNL     1     -40.392  52.628 -54.417  1.00  0.00     0.029 A 
BRANCH  17  21
HETATM   21  O   UNL     1     -39.962  53.074 -50.329  1.00  0.00    -0.361 OA
HETATM   22  H   UNL     1     -40.430  52.358 -49.872  1.00  0.00     0.217 HD
ENDBRANCH  17  21
ENDBRANCH  12  15
ENDBRANCH   1  11
BRANCH   8  23
HETATM   23  C   UNL     1     -46.021  58.191 -58.021  1.00  0.00     0.409 C 
HETATM   24  F   UNL     1     -47.142  57.847 -57.351  1.00  0.00    -0.169 F 
HETATM   25  F   UNL     1     -46.386  59.146 -58.918  1.00  0.00    -0.169 F 
HETATM   26  F   UNL     1     -45.625  57.121 -58.741  1.00  0.00    -0.169 F 
ENDBRANCH   8  23
BRANCH   6  27
HETATM   27  C   UNL     1     -42.206  60.497 -59.214  1.00  0.00    -0.035 A 
HETATM   28  C   UNL     1     -42.065  60.944 -60.538  1.00  0.00     0.012 A 
HETATM   29  C   UNL     1     -41.129  61.932 -60.854  1.00  0.00     0.043 A 
HETATM   30  C   UNL     1     -40.335  62.477 -59.852  1.00  0.00     0.116 A 
HETATM   31  F   UNL     1     -39.440  63.423 -60.160  1.00  0.00    -0.206 F 
HETATM   32  C   UNL     1     -40.455  62.051 -58.535  1.00  0.00     0.043 A 
HETATM   33  C   UNL     1     -41.387  61.064 -58.217  1.00  0.00     0.012 A 
ENDBRANCH   6  27
TORSDOF 5
ENDMDL
