MODEL 1
REMARK VINA RESULT:     -10.5      0.000      0.000
REMARK  4 active torsions:
REMARK  status: ('A' for Active; 'I' for Inactive)
REMARK    1  A    between atoms: C_2  and  C_3 
REMARK    2  A    between atoms: N_16  and  C_17 
REMARK    3  A    between atoms: C_17  and  C_18 
REMARK       I    between atoms: C_18  and  N_19 
REMARK    4  A    between atoms: N_19  and  C_20 
ROOT
HETATM    1  C   UNL     1     -41.318  56.515 -50.664  1.00  0.00     0.054 C 
HETATM    2  C   UNL     1     -41.369  56.431 -52.192  1.00  0.00     0.140 A 
HETATM    3  N   UNL     1     -40.569  57.499 -52.754  1.00  0.00    -0.321 N 
HETATM    4  C   UNL     1     -41.312  58.415 -53.453  1.00  0.00     0.326 A 
HETATM    5  O   UNL     1     -40.837  59.403 -53.985  1.00  0.00    -0.247 OA
HETATM    6  N   UNL     1     -42.614  58.035 -53.423  1.00  0.00    -0.259 N 
HETATM    7  C   UNL     1     -42.760  56.888 -52.698  1.00  0.00     0.261 A 
HETATM    8  O   UNL     1     -43.828  56.328 -52.483  1.00  0.00    -0.270 OA
HETATM    9  H   UNL     1     -39.572  57.615 -52.634  1.00  0.00     0.165 HD
ENDROOT
BRANCH   6  10
HETATM   10  C   UNL     1     -43.687  58.777 -54.053  1.00  0.00     0.240 C 
BRANCH  10  11
HETATM   11  C   UNL     1     -43.967  58.276 -55.469  1.00  0.00     0.240 C 
HETATM   12  N   UNL     1     -42.838  57.942 -56.187  1.00  0.00    -0.324 N 
HETATM   13  H   UNL     1     -41.945  57.871 -55.697  1.00  0.00     0.169 HD
HETATM   14  O   UNL     1     -45.123  58.073 -55.837  1.00  0.00    -0.271 OA
BRANCH  12  15
HETATM   15  C   UNL     1     -42.753  57.533 -57.540  1.00  0.00     0.064 A 
HETATM   16  C   UNL     1     -42.434  58.537 -58.469  1.00  0.00     0.093 A 
HETATM   17  C   UNL     1     -42.348  58.187 -59.835  1.00  0.00    -0.005 A 
HETATM   18  N   UNL     1     -42.215  59.803 -58.043  1.00  0.00    -0.258 NA
HETATM   19  C   UNL     1     -42.017  59.190 -60.756  1.00  0.00     0.015 A 
HETATM   20  C   UNL     1     -42.587  56.865 -60.245  1.00  0.00     0.014 A 
HETATM   21  C   UNL     1     -41.791  60.487 -60.316  1.00  0.00     0.020 A 
HETATM   22  C   UNL     1     -41.903  60.741 -58.962  1.00  0.00     0.117 A 
HETATM   23  C   UNL     1     -42.915  55.888 -59.310  1.00  0.00     0.003 A 
HETATM   24  C   UNL     1     -42.997  56.221 -57.959  1.00  0.00     0.032 A 
ENDBRANCH  12  15
ENDBRANCH  10  11
ENDBRANCH   6  10
BRANCH   2  25
HETATM   25  C   UNL     1     -40.995  55.050 -52.721  1.00  0.00    -0.020 A 
HETATM   26  C   UNL     1     -40.599  53.998 -51.874  1.00  0.00     0.022 A 
HETATM   27  C   UNL     1     -40.266  52.725 -52.377  1.00  0.00    -0.025 A 
HETATM   28  C   UNL     1     -40.324  52.491 -53.767  1.00  0.00    -0.026 A 
HETATM   29  C   UNL     1     -39.878  51.679 -51.523  1.00  0.00     0.012 A 
HETATM   30  C   UNL     1     -40.707  53.535 -54.617  1.00  0.00     0.013 A 
HETATM   31  C   UNL     1     -39.995  51.221 -54.267  1.00  0.00     0.012 A 
HETATM   32  C   UNL     1     -41.035  54.793 -54.102  1.00  0.00     0.011 A 
HETATM   33  C   UNL     1     -39.614  50.193 -53.406  1.00  0.00     0.001 A 
HETATM   34  C   UNL     1     -39.555  50.421 -52.034  1.00  0.00     0.001 A 
ENDBRANCH   2  25
TORSDOF 4
ENDMDL
MODEL 2
REMARK VINA RESULT:     -10.2      1.751      2.081
REMARK  4 active torsions:
REMARK  status: ('A' for Active; 'I' for Inactive)
REMARK    1  A    between atoms: C_2  and  C_3 
REMARK    2  A    between atoms: N_16  and  C_17 
REMARK    3  A    between atoms: C_17  and  C_18 
REMARK       I    between atoms: C_18  and  N_19 
REMARK    4  A    between atoms: N_19  and  C_20 
ROOT
HETATM    1  C   UNL     1     -42.027  56.114 -50.722  1.00  0.00     0.054 C 
HETATM    2  C   UNL     1     -41.589  56.193 -52.187  1.00  0.00     0.140 A 
HETATM    3  N   UNL     1     -40.574  57.217 -52.325  1.00  0.00    -0.321 N 
HETATM    4  C   UNL     1     -40.982  58.278 -53.092  1.00  0.00     0.326 A 
HETATM    5  O   UNL     1     -40.291  59.256 -53.314  1.00  0.00    -0.247 OA
HETATM    6  N   UNL     1     -42.249  58.044 -53.520  1.00  0.00    -0.259 N 
HETATM    7  C   UNL     1     -42.706  56.852 -53.035  1.00  0.00     0.261 A 
HETATM    8  O   UNL     1     -43.823  56.397 -53.240  1.00  0.00    -0.270 OA
HETATM    9  H   UNL     1     -39.664  57.207 -51.887  1.00  0.00     0.165 HD
ENDROOT
BRANCH   6  10
HETATM   10  C   UNL     1     -43.004  58.962 -54.348  1.00  0.00     0.240 C 
BRANCH  10  11
HETATM   11  C   UNL     1     -42.868  58.630 -55.833  1.00  0.00     0.240 C 
HETATM   12  N   UNL     1     -43.794  57.721 -56.299  1.00  0.00    -0.324 N 
HETATM   13  H   UNL     1     -44.590  57.480 -55.707  1.00  0.00     0.169 HD
HETATM   14  O   UNL     1     -42.075  59.255 -56.537  1.00  0.00    -0.271 OA
BRANCH  12  15
HETATM   15  C   UNL     1     -43.880  57.147 -57.591  1.00  0.00     0.064 A 
HETATM   16  C   UNL     1     -44.987  57.533 -58.365  1.00  0.00     0.093 A 
HETATM   17  C   UNL     1     -45.130  56.982 -59.657  1.00  0.00    -0.005 A 
HETATM   18  N   UNL     1     -45.883  58.415 -57.863  1.00  0.00    -0.258 NA
HETATM   19  C   UNL     1     -46.230  57.379 -60.428  1.00  0.00     0.015 A 
HETATM   20  C   UNL     1     -44.186  56.064 -60.145  1.00  0.00     0.014 A 
HETATM   21  C   UNL     1     -47.146  58.286 -59.913  1.00  0.00     0.020 A 
HETATM   22  C   UNL     1     -46.932  58.769 -58.636  1.00  0.00     0.117 A 
HETATM   23  C   UNL     1     -43.102  55.686 -59.358  1.00  0.00     0.003 A 
HETATM   24  C   UNL     1     -42.949  56.227 -58.083  1.00  0.00     0.032 A 
ENDBRANCH  12  15
ENDBRANCH  10  11
ENDBRANCH   6  10
BRANCH   2  25
HETATM   25  C   UNL     1     -41.166  54.841 -52.752  1.00  0.00    -0.020 A 
HETATM   26  C   UNL     1     -40.715  53.788 -51.934  1.00  0.00     0.022 A 
HETATM   27  C   UNL     1     -40.338  52.541 -52.470  1.00  0.00    -0.025 A 
HETATM   28  C   UNL     1     -40.408  52.335 -53.864  1.00  0.00    -0.026 A 
HETATM   29  C   UNL     1     -39.895  51.494 -51.645  1.00  0.00     0.012 A 
HETATM   30  C   UNL     1     -40.846  53.380 -54.685  1.00  0.00     0.013 A 
HETATM   31  C   UNL     1     -40.034  51.091 -54.397  1.00  0.00     0.012 A 
HETATM   32  C   UNL     1     -41.216  54.613 -54.138  1.00  0.00     0.011 A 
HETATM   33  C   UNL     1     -39.599  50.061 -53.563  1.00  0.00     0.001 A 
HETATM   34  C   UNL     1     -39.528  50.262 -52.188  1.00  0.00     0.001 A 
ENDBRANCH   2  25
TORSDOF 4
ENDMDL
MODEL 3
REMARK VINA RESULT:      -9.9      1.554      1.885
REMARK  4 active torsions:
REMARK  status: ('A' for Active; 'I' for Inactive)
REMARK    1  A    between atoms: C_2  and  C_3 
REMARK    2  A    between atoms: N_16  and  C_17 
REMARK    3  A    between atoms: C_17  and  C_18 
REMARK       I    between atoms: C_18  and  N_19 
REMARK    4  A    between atoms: N_19  and  C_20 
ROOT
HETATM    1  C   UNL     1     -41.079  56.543 -50.429  1.00  0.00     0.054 C 
HETATM    2  C   UNL     1     -41.428  56.359 -51.908  1.00  0.00     0.140 A 
HETATM    3  N   UNL     1     -40.874  57.460 -52.668  1.00  0.00    -0.321 N 
HETATM    4  C   UNL     1     -41.833  58.259 -53.236  1.00  0.00     0.326 A 
HETATM    5  O   UNL     1     -41.582  59.251 -53.896  1.00  0.00    -0.247 OA
HETATM    6  N   UNL     1     -43.056  57.761 -52.921  1.00  0.00    -0.259 N 
HETATM    7  C   UNL     1     -42.933  56.652 -52.134  1.00  0.00     0.261 A 
HETATM    8  O   UNL     1     -43.871  56.010 -51.680  1.00  0.00    -0.270 OA
HETATM    9  H   UNL     1     -39.891  57.676 -52.762  1.00  0.00     0.165 HD
ENDROOT
BRANCH   6  10
HETATM   10  C   UNL     1     -44.305  58.359 -53.345  1.00  0.00     0.240 C 
BRANCH  10  11
HETATM   11  C   UNL     1     -44.826  57.728 -54.637  1.00  0.00     0.240 C 
HETATM   12  N   UNL     1     -44.794  58.567 -55.731  1.00  0.00    -0.324 N 
HETATM   13  H   UNL     1     -44.279  59.446 -55.664  1.00  0.00     0.169 HD
HETATM   14  O   UNL     1     -45.103  56.530 -54.673  1.00  0.00    -0.271 OA
BRANCH  12  15
HETATM   15  C   UNL     1     -45.281  58.316 -57.037  1.00  0.00     0.064 A 
HETATM   16  C   UNL     1     -44.308  58.062 -58.019  1.00  0.00     0.093 A 
HETATM   17  C   UNL     1     -44.737  57.817 -59.342  1.00  0.00    -0.005 A 
HETATM   18  N   UNL     1     -42.997  58.054 -57.681  1.00  0.00    -0.258 NA
HETATM   19  C   UNL     1     -43.763  57.552 -60.315  1.00  0.00     0.015 A 
HETATM   20  C   UNL     1     -46.104  57.838 -59.661  1.00  0.00     0.014 A 
HETATM   21  C   UNL     1     -42.420  57.542 -59.965  1.00  0.00     0.020 A 
HETATM   22  C   UNL     1     -42.090  57.800 -58.648  1.00  0.00     0.117 A 
HETATM   23  C   UNL     1     -47.050  58.104 -58.676  1.00  0.00     0.003 A 
HETATM   24  C   UNL     1     -46.640  58.343 -57.366  1.00  0.00     0.032 A 
ENDBRANCH  12  15
ENDBRANCH  10  11
ENDBRANCH   6  10
BRANCH   2  25
HETATM   25  C   UNL     1     -41.027  54.990 -52.446  1.00  0.00    -0.020 A 
HETATM   26  C   UNL     1     -40.645  53.930 -51.602  1.00  0.00     0.022 A 
HETATM   27  C   UNL     1     -40.287  52.667 -52.113  1.00  0.00    -0.025 A 
HETATM   28  C   UNL     1     -40.305  52.451 -53.507  1.00  0.00    -0.026 A 
HETATM   29  C   UNL     1     -39.913  51.613 -51.262  1.00  0.00     0.012 A 
HETATM   30  C   UNL     1     -40.675  53.503 -54.353  1.00  0.00     0.013 A 
HETATM   31  C   UNL     1     -39.951  51.191 -54.014  1.00  0.00     0.012 A 
HETATM   32  C   UNL     1     -41.027  54.751 -53.830  1.00  0.00     0.011 A 
HETATM   33  C   UNL     1     -39.584  50.154 -53.156  1.00  0.00     0.001 A 
HETATM   34  C   UNL     1     -39.564  50.365 -51.781  1.00  0.00     0.001 A 
ENDBRANCH   2  25
TORSDOF 4
ENDMDL
MODEL 4
REMARK VINA RESULT:      -9.8      1.671      2.612
REMARK  4 active torsions:
REMARK  status: ('A' for Active; 'I' for Inactive)
REMARK    1  A    between atoms: C_2  and  C_3 
REMARK    2  A    between atoms: N_16  and  C_17 
REMARK    3  A    between atoms: C_17  and  C_18 
REMARK       I    between atoms: C_18  and  N_19 
REMARK    4  A    between atoms: N_19  and  C_20 
ROOT
HETATM    1  C   UNL     1     -41.015  54.975 -48.613  1.00  0.00     0.054 C 
HETATM    2  C   UNL     1     -41.139  55.056 -50.137  1.00  0.00     0.140 A 
HETATM    3  N   UNL     1     -40.401  56.208 -50.613  1.00  0.00    -0.321 N 
HETATM    4  C   UNL     1     -41.205  57.168 -51.172  1.00  0.00     0.326 A 
HETATM    5  O   UNL     1     -40.789  58.225 -51.612  1.00  0.00    -0.247 OA
HETATM    6  N   UNL     1     -42.492  56.739 -51.125  1.00  0.00    -0.259 N 
HETATM    7  C   UNL     1     -42.567  55.515 -50.525  1.00  0.00     0.261 A 
HETATM    8  O   UNL     1     -43.605  54.897 -50.325  1.00  0.00    -0.270 OA
HETATM    9  H   UNL     1     -39.403  56.346 -50.526  1.00  0.00     0.165 HD
ENDROOT
BRANCH   6  10
HETATM   10  C   UNL     1     -43.617  57.506 -51.619  1.00  0.00     0.240 C 
BRANCH  10  11
HETATM   11  C   UNL     1     -43.924  57.185 -53.081  1.00  0.00     0.240 C 
HETATM   12  N   UNL     1     -42.817  56.852 -53.833  1.00  0.00    -0.324 N 
HETATM   13  H   UNL     1     -41.934  56.664 -53.356  1.00  0.00     0.169 HD
HETATM   14  O   UNL     1     -45.090  57.105 -53.466  1.00  0.00    -0.271 OA
BRANCH  12  15
HETATM   15  C   UNL     1     -42.754  56.588 -55.223  1.00  0.00     0.064 A 
HETATM   16  C   UNL     1     -42.483  57.692 -56.049  1.00  0.00     0.093 A 
HETATM   17  C   UNL     1     -42.420  57.488 -57.445  1.00  0.00    -0.005 A 
HETATM   18  N   UNL     1     -42.287  58.913 -55.497  1.00  0.00    -0.258 NA
HETATM   19  C   UNL     1     -42.138  58.591 -58.263  1.00  0.00     0.015 A 
HETATM   20  C   UNL     1     -42.635  56.211 -57.986  1.00  0.00     0.014 A 
HETATM   21  C   UNL     1     -41.935  59.841 -57.694  1.00  0.00     0.020 A 
HETATM   22  C   UNL     1     -42.022  59.950 -56.319  1.00  0.00     0.117 A 
HETATM   23  C   UNL     1     -42.914  55.133 -57.151  1.00  0.00     0.003 A 
HETATM   24  C   UNL     1     -42.974  55.320 -55.772  1.00  0.00     0.032 A 
ENDBRANCH  12  15
ENDBRANCH  10  11
ENDBRANCH   6  10
BRANCH   2  25
HETATM   25  C   UNL     1     -40.748  53.757 -50.832  1.00  0.00    -0.020 A 
HETATM   26  C   UNL     1     -40.718  53.630 -52.234  1.00  0.00     0.022 A 
HETATM   27  C   UNL     1     -40.344  52.426 -52.862  1.00  0.00    -0.025 A 
HETATM   28  C   UNL     1     -39.994  51.310 -52.072  1.00  0.00    -0.026 A 
HETATM   29  C   UNL     1     -40.311  52.310 -54.262  1.00  0.00     0.012 A 
HETATM   30  C   UNL     1     -40.031  51.426 -50.678  1.00  0.00     0.013 A 
HETATM   31  C   UNL     1     -39.620  50.111 -52.700  1.00  0.00     0.012 A 
HETATM   32  C   UNL     1     -40.404  52.628 -50.069  1.00  0.00     0.011 A 
HETATM   33  C   UNL     1     -39.589  50.014 -54.091  1.00  0.00     0.001 A 
HETATM   34  C   UNL     1     -39.935  51.113 -54.872  1.00  0.00     0.001 A 
ENDBRANCH   2  25
TORSDOF 4
ENDMDL
MODEL 5
REMARK VINA RESULT:      -9.8      0.750      2.005
REMARK  4 active torsions:
REMARK  status: ('A' for Active; 'I' for Inactive)
REMARK    1  A    between atoms: C_2  and  C_3 
REMARK    2  A    between atoms: N_16  and  C_17 
REMARK    3  A    between atoms: C_17  and  C_18 
REMARK       I    between atoms: C_18  and  N_19 
REMARK    4  A    between atoms: N_19  and  C_20 
ROOT
HETATM    1  C   UNL     1     -41.302  56.611 -50.481  1.00  0.00     0.054 C 
HETATM    2  C   UNL     1     -41.437  56.646 -52.006  1.00  0.00     0.140 A 
HETATM    3  N   UNL     1     -40.622  57.722 -52.531  1.00  0.00    -0.321 N 
HETATM    4  C   UNL     1     -41.360  58.718 -53.117  1.00  0.00     0.326 A 
HETATM    5  O   UNL     1     -40.873  59.725 -53.600  1.00  0.00    -0.247 OA
HETATM    6  N   UNL     1     -42.675  58.388 -53.043  1.00  0.00    -0.259 N 
HETATM    7  C   UNL     1     -42.832  57.195 -52.398  1.00  0.00     0.261 A 
HETATM    8  O   UNL     1     -43.910  56.662 -52.167  1.00  0.00    -0.270 OA
HETATM    9  H   UNL     1     -39.616  57.790 -52.458  1.00  0.00     0.165 HD
ENDROOT
BRANCH   6  10
HETATM   10  C   UNL     1     -43.746  59.217 -53.555  1.00  0.00     0.240 C 
BRANCH  10  11
HETATM   11  C   UNL     1     -43.884  59.093 -55.072  1.00  0.00     0.240 C 
HETATM   12  N   UNL     1     -42.687  59.128 -55.756  1.00  0.00    -0.324 N 
HETATM   13  H   UNL     1     -41.816  59.048 -55.229  1.00  0.00     0.169 HD
HETATM   14  O   UNL     1     -44.978  58.842 -55.576  1.00  0.00    -0.271 OA
BRANCH  12  15
HETATM   15  C   UNL     1     -42.482  59.123 -57.157  1.00  0.00     0.064 A 
HETATM   16  C   UNL     1     -42.622  57.880 -57.797  1.00  0.00     0.093 A 
HETATM   17  C   UNL     1     -42.416  57.815 -59.192  1.00  0.00    -0.005 A 
HETATM   18  N   UNL     1     -42.950  56.784 -57.072  1.00  0.00    -0.258 NA
HETATM   19  C   UNL     1     -42.569  56.575 -59.827  1.00  0.00     0.015 A 
HETATM   20  C   UNL     1     -42.071  58.970 -59.913  1.00  0.00     0.014 A 
HETATM   21  C   UNL     1     -42.908  55.453 -59.082  1.00  0.00     0.020 A 
HETATM   22  C   UNL     1     -43.083  55.607 -57.720  1.00  0.00     0.117 A 
HETATM   23  C   UNL     1     -41.925  60.189 -59.258  1.00  0.00     0.003 A 
HETATM   24  C   UNL     1     -42.130  60.266 -57.882  1.00  0.00     0.032 A 
ENDBRANCH  12  15
ENDBRANCH  10  11
ENDBRANCH   6  10
BRANCH   2  25
HETATM   25  C   UNL     1     -41.151  55.297 -52.657  1.00  0.00    -0.020 A 
HETATM   26  C   UNL     1     -40.603  54.215 -51.942  1.00  0.00     0.022 A 
HETATM   27  C   UNL     1     -40.354  52.971 -52.555  1.00  0.00    -0.025 A 
HETATM   28  C   UNL     1     -40.655  52.798 -53.923  1.00  0.00    -0.026 A 
HETATM   29  C   UNL     1     -39.813  51.895 -51.832  1.00  0.00     0.012 A 
HETATM   30  C   UNL     1     -41.191  53.873 -54.642  1.00  0.00     0.013 A 
HETATM   31  C   UNL     1     -40.409  51.558 -54.531  1.00  0.00     0.012 A 
HETATM   32  C   UNL     1     -41.432  55.101 -54.019  1.00  0.00     0.011 A 
HETATM   33  C   UNL     1     -39.874  50.498 -53.799  1.00  0.00     0.001 A 
HETATM   34  C   UNL     1     -39.575  50.666 -52.450  1.00  0.00     0.001 A 
ENDBRANCH   2  25
TORSDOF 4
ENDMDL
MODEL 6
REMARK VINA RESULT:      -9.6      3.871      6.062
REMARK  4 active torsions:
REMARK  status: ('A' for Active; 'I' for Inactive)
REMARK    1  A    between atoms: C_2  and  C_3 
REMARK    2  A    between atoms: N_16  and  C_17 
REMARK    3  A    between atoms: C_17  and  C_18 
REMARK       I    between atoms: C_18  and  N_19 
REMARK    4  A    between atoms: N_19  and  C_20 
ROOT
HETATM    1  C   UNL     1     -40.838  56.051 -50.348  1.00  0.00     0.054 C 
HETATM    2  C   UNL     1     -41.407  55.819 -51.751  1.00  0.00     0.140 A 
HETATM    3  N   UNL     1     -41.086  56.957 -52.587  1.00  0.00    -0.321 N 
HETATM    4  C   UNL     1     -42.195  57.659 -52.987  1.00  0.00     0.326 A 
HETATM    5  O   UNL     1     -42.146  58.663 -53.676  1.00  0.00    -0.247 OA
HETATM    6  N   UNL     1     -43.299  57.056 -52.478  1.00  0.00    -0.259 N 
HETATM    7  C   UNL     1     -42.948  55.972 -51.726  1.00  0.00     0.261 A 
HETATM    8  O   UNL     1     -43.737  55.253 -51.126  1.00  0.00    -0.270 OA
HETATM    9  H   UNL     1     -40.156  57.260 -52.840  1.00  0.00     0.165 HD
ENDROOT
BRANCH   6  10
HETATM   10  C   UNL     1     -44.650  57.534 -52.690  1.00  0.00     0.240 C 
BRANCH  10  11
HETATM   11  C   UNL     1     -45.096  58.483 -51.578  1.00  0.00     0.240 C 
HETATM   12  N   UNL     1     -44.786  59.807 -51.804  1.00  0.00    -0.324 N 
HETATM   13  H   UNL     1     -44.465  60.088 -52.732  1.00  0.00     0.169 HD
HETATM   14  O   UNL     1     -45.794  58.069 -50.653  1.00  0.00    -0.271 OA
BRANCH  12  15
HETATM   15  C   UNL     1     -44.984  60.910 -50.937  1.00  0.00     0.064 A 
HETATM   16  C   UNL     1     -46.102  61.716 -51.210  1.00  0.00     0.093 A 
HETATM   17  C   UNL     1     -46.341  62.837 -50.385  1.00  0.00    -0.005 A 
HETATM   18  N   UNL     1     -46.918  61.406 -52.245  1.00  0.00    -0.258 NA
HETATM   19  C   UNL     1     -47.463  63.631 -50.655  1.00  0.00     0.015 A 
HETATM   20  C   UNL     1     -45.470  63.135 -49.324  1.00  0.00     0.014 A 
HETATM   21  C   UNL     1     -48.301  63.309 -51.714  1.00  0.00     0.020 A 
HETATM   22  C   UNL     1     -47.987  62.198 -52.474  1.00  0.00     0.117 A 
HETATM   23  C   UNL     1     -44.362  62.330 -49.078  1.00  0.00     0.003 A 
HETATM   24  C   UNL     1     -44.119  61.219 -49.883  1.00  0.00     0.032 A 
ENDBRANCH  12  15
ENDBRANCH  10  11
ENDBRANCH   6  10
BRANCH   2  25
HETATM   25  C   UNL     1     -40.975  54.486 -52.352  1.00  0.00    -0.020 A 
HETATM   26  C   UNL     1     -40.588  53.390 -51.558  1.00  0.00     0.022 A 
HETATM   27  C   UNL     1     -40.203  52.160 -52.127  1.00  0.00    -0.025 A 
HETATM   28  C   UNL     1     -40.197  52.017 -53.531  1.00  0.00    -0.026 A 
HETATM   29  C   UNL     1     -39.824  51.070 -51.327  1.00  0.00     0.012 A 
HETATM   30  C   UNL     1     -40.571  53.105 -54.327  1.00  0.00     0.013 A 
HETATM   31  C   UNL     1     -39.815  50.790 -54.097  1.00  0.00     0.012 A 
HETATM   32  C   UNL     1     -40.952  54.319 -53.747  1.00  0.00     0.011 A 
HETATM   33  C   UNL     1     -39.444  49.716 -53.288  1.00  0.00     0.001 A 
HETATM   34  C   UNL     1     -39.448  49.856 -51.903  1.00  0.00     0.001 A 
ENDBRANCH   2  25
TORSDOF 4
ENDMDL
MODEL 7
REMARK VINA RESULT:      -9.5      4.151      7.105
REMARK  4 active torsions:
REMARK  status: ('A' for Active; 'I' for Inactive)
REMARK    1  A    between atoms: C_2  and  C_3 
REMARK    2  A    between atoms: N_16  and  C_17 
REMARK    3  A    between atoms: C_17  and  C_18 
REMARK       I    between atoms: C_18  and  N_19 
REMARK    4  A    between atoms: N_19  and  C_20 
ROOT
HETATM    1  C   UNL     1     -40.800  56.386 -50.184  1.00  0.00     0.054 C 
HETATM    2  C   UNL     1     -41.626  56.217 -51.462  1.00  0.00     0.140 A 
HETATM    3  N   UNL     1     -41.505  57.413 -52.268  1.00  0.00    -0.321 N 
HETATM    4  C   UNL     1     -42.688  58.095 -52.399  1.00  0.00     0.326 A 
HETATM    5  O   UNL     1     -42.801  59.139 -53.016  1.00  0.00    -0.247 OA
HETATM    6  N   UNL     1     -43.656  57.421 -51.726  1.00  0.00    -0.259 N 
HETATM    7  C   UNL     1     -43.136  56.309 -51.128  1.00  0.00     0.261 A 
HETATM    8  O   UNL     1     -43.774  55.526 -50.436  1.00  0.00    -0.270 OA
HETATM    9  H   UNL     1     -40.650  57.765 -52.676  1.00  0.00     0.165 HD
ENDROOT
BRANCH   6  10
HETATM   10  C   UNL     1     -45.034  57.859 -51.640  1.00  0.00     0.240 C 
BRANCH  10  11
HETATM   11  C   UNL     1     -45.136  59.358 -51.358  1.00  0.00     0.240 C 
HETATM   12  N   UNL     1     -44.343  59.795 -50.318  1.00  0.00    -0.324 N 
HETATM   13  H   UNL     1     -43.632  59.166 -49.941  1.00  0.00     0.169 HD
HETATM   14  O   UNL     1     -45.774  60.088 -52.115  1.00  0.00    -0.271 OA
BRANCH  12  15
HETATM   15  C   UNL     1     -44.276  61.095 -49.759  1.00  0.00     0.064 A 
HETATM   16  C   UNL     1     -44.972  61.285 -48.554  1.00  0.00     0.093 A 
HETATM   17  C   UNL     1     -44.949  62.565 -47.958  1.00  0.00    -0.005 A 
HETATM   18  N   UNL     1     -45.642  60.250 -47.994  1.00  0.00    -0.258 NA
HETATM   19  C   UNL     1     -45.636  62.745 -46.750  1.00  0.00     0.015 A 
HETATM   20  C   UNL     1     -44.251  63.619 -48.568  1.00  0.00     0.014 A 
HETATM   21  C   UNL     1     -46.319  61.682 -46.176  1.00  0.00     0.020 A 
HETATM   22  C   UNL     1     -46.295  60.466 -46.832  1.00  0.00     0.117 A 
HETATM   23  C   UNL     1     -43.577  63.413 -49.769  1.00  0.00     0.003 A 
HETATM   24  C   UNL     1     -43.589  62.153 -50.363  1.00  0.00     0.032 A 
ENDBRANCH  12  15
ENDBRANCH  10  11
ENDBRANCH   6  10
BRANCH   2  25
HETATM   25  C   UNL     1     -41.287  54.938 -52.221  1.00  0.00    -0.020 A 
HETATM   26  C   UNL     1     -40.633  53.850 -51.613  1.00  0.00     0.022 A 
HETATM   27  C   UNL     1     -40.336  52.671 -52.324  1.00  0.00    -0.025 A 
HETATM   28  C   UNL     1     -40.696  52.572 -53.685  1.00  0.00    -0.026 A 
HETATM   29  C   UNL     1     -39.688  51.587 -51.707  1.00  0.00     0.012 A 
HETATM   30  C   UNL     1     -41.337  53.654 -54.299  1.00  0.00     0.013 A 
HETATM   31  C   UNL     1     -40.401  51.396 -54.392  1.00  0.00     0.012 A 
HETATM   32  C   UNL     1     -41.625  54.817 -53.579  1.00  0.00     0.011 A 
HETATM   33  C   UNL     1     -39.761  50.328 -53.764  1.00  0.00     0.001 A 
HETATM   34  C   UNL     1     -39.403  50.423 -52.422  1.00  0.00     0.001 A 
ENDBRANCH   2  25
TORSDOF 4
ENDMDL
MODEL 8
REMARK VINA RESULT:      -9.4      4.281      6.674
REMARK  4 active torsions:
REMARK  status: ('A' for Active; 'I' for Inactive)
REMARK    1  A    between atoms: C_2  and  C_3 
REMARK    2  A    between atoms: N_16  and  C_17 
REMARK    3  A    between atoms: C_17  and  C_18 
REMARK       I    between atoms: C_18  and  N_19 
REMARK    4  A    between atoms: N_19  and  C_20 
ROOT
HETATM    1  C   UNL     1     -41.310  55.666 -49.461  1.00  0.00     0.054 C 
HETATM    2  C   UNL     1     -41.461  55.829 -50.976  1.00  0.00     0.140 A 
HETATM    3  N   UNL     1     -40.760  57.025 -51.397  1.00  0.00    -0.321 N 
HETATM    4  C   UNL     1     -41.598  57.993 -51.889  1.00  0.00     0.326 A 
HETATM    5  O   UNL     1     -41.216  59.084 -52.275  1.00  0.00    -0.247 OA
HETATM    6  N   UNL     1     -42.873  57.529 -51.847  1.00  0.00    -0.259 N 
HETATM    7  C   UNL     1     -42.906  56.271 -51.316  1.00  0.00     0.261 A 
HETATM    8  O   UNL     1     -43.925  55.616 -51.137  1.00  0.00    -0.270 OA
HETATM    9  H   UNL     1     -39.765  57.184 -51.318  1.00  0.00     0.165 HD
ENDROOT
BRANCH   6  10
HETATM   10  C   UNL     1     -44.025  58.292 -52.280  1.00  0.00     0.240 C 
BRANCH  10  11
HETATM   11  C   UNL     1     -44.774  58.907 -51.098  1.00  0.00     0.240 C 
HETATM   12  N   UNL     1     -44.209  60.066 -50.610  1.00  0.00    -0.324 N 
HETATM   13  H   UNL     1     -43.475  60.525 -51.153  1.00  0.00     0.169 HD
HETATM   14  O   UNL     1     -45.859  58.447 -50.745  1.00  0.00    -0.271 OA
BRANCH  12  15
HETATM   15  C   UNL     1     -44.608  60.823 -49.481  1.00  0.00     0.064 A 
HETATM   16  C   UNL     1     -44.139  62.146 -49.428  1.00  0.00     0.093 A 
HETATM   17  C   UNL     1     -44.496  62.943 -48.318  1.00  0.00    -0.005 A 
HETATM   18  N   UNL     1     -43.365  62.626 -50.431  1.00  0.00    -0.258 NA
HETATM   19  C   UNL     1     -44.034  64.265 -48.276  1.00  0.00     0.015 A 
HETATM   20  C   UNL     1     -45.294  62.413 -47.292  1.00  0.00     0.014 A 
HETATM   21  C   UNL     1     -43.244  64.756 -49.307  1.00  0.00     0.020 A 
HETATM   22  C   UNL     1     -42.937  63.904 -50.351  1.00  0.00     0.117 A 
HETATM   23  C   UNL     1     -45.738  61.095 -47.357  1.00  0.00     0.003 A 
HETATM   24  C   UNL     1     -45.396  60.301 -48.450  1.00  0.00     0.032 A 
ENDBRANCH  12  15
ENDBRANCH  10  11
ENDBRANCH   6  10
BRANCH   2  25
HETATM   25  C   UNL     1     -41.048  54.581 -51.750  1.00  0.00    -0.020 A 
HETATM   26  C   UNL     1     -40.587  53.415 -51.111  1.00  0.00     0.022 A 
HETATM   27  C   UNL     1     -40.220  52.266 -51.839  1.00  0.00    -0.025 A 
HETATM   28  C   UNL     1     -40.310  52.278 -53.247  1.00  0.00    -0.026 A 
HETATM   29  C   UNL     1     -39.766  51.104 -51.193  1.00  0.00     0.012 A 
HETATM   30  C   UNL     1     -40.759  53.438 -53.890  1.00  0.00     0.013 A 
HETATM   31  C   UNL     1     -39.947  51.132 -53.972  1.00  0.00     0.012 A 
HETATM   32  C   UNL     1     -41.119  54.570 -53.153  1.00  0.00     0.011 A 
HETATM   33  C   UNL     1     -39.501  49.985 -53.315  1.00  0.00     0.001 A 
HETATM   34  C   UNL     1     -39.410  49.971 -51.926  1.00  0.00     0.001 A 
ENDBRANCH   2  25
TORSDOF 4
ENDMDL
MODEL 9
REMARK VINA RESULT:      -9.3      4.246      7.319
REMARK  4 active torsions:
REMARK  status: ('A' for Active; 'I' for Inactive)
REMARK    1  A    between atoms: C_2  and  C_3 
REMARK    2  A    between atoms: N_16  and  C_17 
REMARK    3  A    between atoms: C_17  and  C_18 
REMARK       I    between atoms: C_18  and  N_19 
REMARK    4  A    between atoms: N_19  and  C_20 
ROOT
HETATM    1  C   UNL     1     -43.238  56.812 -54.954  1.00  0.00     0.054 C 
HETATM    2  C   UNL     1     -42.810  56.312 -53.572  1.00  0.00     0.140 A 
HETATM    3  N   UNL     1     -43.971  56.246 -52.710  1.00  0.00    -0.321 N 
HETATM    4  C   UNL     1     -43.914  57.131 -51.663  1.00  0.00     0.326 A 
HETATM    5  O   UNL     1     -44.799  57.254 -50.834  1.00  0.00    -0.247 OA
HETATM    6  N   UNL     1     -42.747  57.819 -51.737  1.00  0.00    -0.259 N 
HETATM    7  C   UNL     1     -42.028  57.425 -52.829  1.00  0.00     0.261 A 
HETATM    8  O   UNL     1     -40.945  57.892 -53.158  1.00  0.00    -0.270 OA
HETATM    9  H   UNL     1     -44.778  55.654 -52.851  1.00  0.00     0.165 HD
ENDROOT
BRANCH   6  10
HETATM   10  C   UNL     1     -42.354  58.848 -50.796  1.00  0.00     0.240 C 
BRANCH  10  11
HETATM   11  C   UNL     1     -43.228  60.095 -50.923  1.00  0.00     0.240 C 
HETATM   12  N   UNL     1     -44.228  60.187 -49.978  1.00  0.00    -0.324 N 
HETATM   13  H   UNL     1     -44.211  59.552 -49.179  1.00  0.00     0.169 HD
HETATM   14  O   UNL     1     -42.933  60.979 -51.727  1.00  0.00    -0.271 OA
BRANCH  12  15
HETATM   15  C   UNL     1     -45.248  61.165 -49.878  1.00  0.00     0.064 A 
HETATM   16  C   UNL     1     -45.511  61.651 -48.586  1.00  0.00     0.093 A 
HETATM   17  C   UNL     1     -46.526  62.619 -48.426  1.00  0.00    -0.005 A 
HETATM   18  N   UNL     1     -44.794  61.189 -47.535  1.00  0.00    -0.258 NA
HETATM   19  C   UNL     1     -46.777  63.108 -47.138  1.00  0.00     0.015 A 
HETATM   20  C   UNL     1     -47.256  63.072 -49.537  1.00  0.00     0.014 A 
HETATM   21  C   UNL     1     -46.039  62.636 -46.061  1.00  0.00     0.020 A 
HETATM   22  C   UNL     1     -45.069  61.682 -46.308  1.00  0.00     0.117 A 
HETATM   23  C   UNL     1     -46.988  62.569 -50.806  1.00  0.00     0.003 A 
HETATM   24  C   UNL     1     -45.985  61.617 -50.977  1.00  0.00     0.032 A 
ENDBRANCH  12  15
ENDBRANCH  10  11
ENDBRANCH   6  10
BRANCH   2  25
HETATM   25  C   UNL     1     -42.025  55.006 -53.632  1.00  0.00    -0.020 A 
HETATM   26  C   UNL     1     -41.519  54.376 -52.479  1.00  0.00     0.022 A 
HETATM   27  C   UNL     1     -40.805  53.163 -52.549  1.00  0.00    -0.025 A 
HETATM   28  C   UNL     1     -40.583  52.560 -53.805  1.00  0.00    -0.026 A 
HETATM   29  C   UNL     1     -40.309  52.538 -51.393  1.00  0.00     0.012 A 
HETATM   30  C   UNL     1     -41.074  53.186 -54.956  1.00  0.00     0.013 A 
HETATM   31  C   UNL     1     -39.873  51.351 -53.874  1.00  0.00     0.012 A 
HETATM   32  C   UNL     1     -41.781  54.390 -54.870  1.00  0.00     0.011 A 
HETATM   33  C   UNL     1     -39.390  50.742 -52.716  1.00  0.00     0.001 A 
HETATM   34  C   UNL     1     -39.607  51.335 -51.476  1.00  0.00     0.001 A 
ENDBRANCH   2  25
TORSDOF 4
ENDMDL
MODEL 10
REMARK VINA RESULT:      -9.3      1.817      6.831
REMARK  4 active torsions:
REMARK  status: ('A' for Active; 'I' for Inactive)
REMARK    1  A    between atoms: C_2  and  C_3 
REMARK    2  A    between atoms: N_16  and  C_17 
REMARK    3  A    between atoms: C_17  and  C_18 
REMARK       I    between atoms: C_18  and  N_19 
REMARK    4  A    between atoms: N_19  and  C_20 
ROOT
HETATM    1  C   UNL     1     -43.165  61.908 -54.841  1.00  0.00     0.054 C 
HETATM    2  C   UNL     1     -43.302  60.389 -54.712  1.00  0.00     0.140 A 
HETATM    3  N   UNL     1     -44.630  60.071 -54.229  1.00  0.00    -0.321 N 
HETATM    4  C   UNL     1     -44.625  59.499 -52.982  1.00  0.00     0.326 A 
HETATM    5  O   UNL     1     -45.636  59.177 -52.383  1.00  0.00    -0.247 OA
HETATM    6  N   UNL     1     -43.340  59.383 -52.561  1.00  0.00    -0.259 N 
HETATM    7  C   UNL     1     -42.483  59.887 -53.496  1.00  0.00     0.261 A 
HETATM    8  O   UNL     1     -41.266  59.936 -53.374  1.00  0.00    -0.270 OA
HETATM    9  H   UNL     1     -45.496  60.269 -54.710  1.00  0.00     0.165 HD
ENDROOT
BRANCH   6  10
HETATM   10  C   UNL     1     -42.957  58.829 -51.278  1.00  0.00     0.240 C 
BRANCH  10  11
HETATM   11  C   UNL     1     -42.878  57.304 -51.321  1.00  0.00     0.240 C 
HETATM   12  N   UNL     1     -41.594  56.802 -51.341  1.00  0.00    -0.324 N 
HETATM   13  H   UNL     1     -40.815  57.433 -51.146  1.00  0.00     0.169 HD
HETATM   14  O   UNL     1     -43.899  56.627 -51.201  1.00  0.00    -0.271 OA
BRANCH  12  15
HETATM   15  C   UNL     1     -41.186  55.451 -51.465  1.00  0.00     0.064 A 
HETATM   16  C   UNL     1     -40.969  54.991 -52.775  1.00  0.00     0.093 A 
HETATM   17  C   UNL     1     -40.573  53.648 -52.958  1.00  0.00    -0.005 A 
HETATM   18  N   UNL     1     -41.140  55.833 -53.821  1.00  0.00    -0.258 NA
HETATM   19  C   UNL     1     -40.347  53.197 -54.266  1.00  0.00     0.015 A 
HETATM   20  C   UNL     1     -40.411  52.798 -51.852  1.00  0.00     0.014 A 
HETATM   21  C   UNL     1     -40.519  54.064 -55.337  1.00  0.00     0.020 A 
HETATM   22  C   UNL     1     -40.916  55.359 -55.065  1.00  0.00     0.117 A 
HETATM   23  C   UNL     1     -40.643  53.271 -50.564  1.00  0.00     0.003 A 
HETATM   24  C   UNL     1     -41.030  54.596 -50.370  1.00  0.00     0.032 A 
ENDBRANCH  12  15
ENDBRANCH  10  11
ENDBRANCH   6  10
BRANCH   2  25
HETATM   25  C   UNL     1     -42.932  59.650 -55.994  1.00  0.00    -0.020 A 
HETATM   26  C   UNL     1     -43.333  58.324 -56.244  1.00  0.00     0.022 A 
HETATM   27  C   UNL     1     -42.992  57.659 -57.438  1.00  0.00    -0.025 A 
HETATM   28  C   UNL     1     -42.223  58.330 -58.412  1.00  0.00    -0.026 A 
HETATM   29  C   UNL     1     -43.402  56.337 -57.682  1.00  0.00     0.012 A 
HETATM   30  C   UNL     1     -41.813  59.645 -58.166  1.00  0.00     0.013 A 
HETATM   31  C   UNL     1     -41.886  57.667 -59.602  1.00  0.00     0.012 A 
HETATM   32  C   UNL     1     -42.159  60.292 -56.976  1.00  0.00     0.011 A 
HETATM   33  C   UNL     1     -42.303  56.355 -59.830  1.00  0.00     0.001 A 
HETATM   34  C   UNL     1     -43.061  55.690 -58.870  1.00  0.00     0.001 A 
ENDBRANCH   2  25
TORSDOF 4
ENDMDL
