MODEL 1
REMARK VINA RESULT:      -7.8      0.000      0.000
REMARK  9 active torsions:
REMARK  status: ('A' for Active; 'I' for Inactive)
REMARK       I    between atoms: C_2  and  N_3 
REMARK    1  A    between atoms: N_3  and  C_4 
REMARK    2  A    between atoms: C_6  and  O_7 
REMARK    3  A    between atoms: O_7  and  C_8 
REMARK    4  A    between atoms: C_8  and  C_9 
REMARK    5  A    between atoms: C_9  and  C_10 
REMARK    6  A    between atoms: C_10  and  C_11 
REMARK    7  A    between atoms: C_11  and  N_12 
REMARK       I    between atoms: N_12  and  C_13 
REMARK    8  A    between atoms: C_13  and  C_14 
REMARK    9  A    between atoms: C_18  and  C_19 
ROOT
HETATM    1  C   UNL     1     -43.571  58.335 -51.077  1.00  0.00     0.217 C 
ENDROOT
BRANCH   1   2
HETATM    2  C   UNL     1     -43.459  58.901 -52.484  1.00  0.00    -0.085 C 
BRANCH   2   3
HETATM    3  C   UNL     1     -43.362  59.385 -53.690  1.00  0.00    -0.078 C 
BRANCH   3   4
HETATM    4  C   UNL     1     -43.249  59.949 -55.097  1.00  0.00     0.269 C 
BRANCH   4   5
HETATM    5  O   UNL     1     -42.205  59.290 -55.807  1.00  0.00    -0.339 OA
BRANCH   5   6
HETATM    6  C   UNL     1     -42.439  57.976 -56.126  1.00  0.00     0.072 A 
HETATM    7  C   UNL     1     -43.196  57.518 -57.213  1.00  0.00     0.066 A 
HETATM    8  C   UNL     1     -43.355  56.149 -57.452  1.00  0.00     0.037 A 
HETATM    9  C   UNL     1     -42.755  55.235 -56.577  1.00  0.00     0.029 A 
HETATM   10  C   UNL     1     -42.004  55.682 -55.490  1.00  0.00     0.005 A 
HETATM   11  C   UNL     1     -41.846  57.049 -55.268  1.00  0.00     0.037 A 
BRANCH   8  12
HETATM   12  N   UNL     1     -44.092  55.621 -58.536  1.00  0.00    -0.327 N 
HETATM   13  C   UNL     1     -43.735  55.612 -59.872  1.00  0.00     0.218 C 
HETATM   14  C   UNL     1     -44.771  54.947 -60.746  1.00  0.00     0.117 C 
HETATM   15  O   UNL     1     -42.696  56.043 -60.361  1.00  0.00    -0.274 OA
HETATM   16  H   UNL     1     -44.973  55.185 -58.296  1.00  0.00     0.169 HD
ENDBRANCH   8  12
ENDBRANCH   5   6
ENDBRANCH   4   5
ENDBRANCH   3   4
ENDBRANCH   2   3
ENDBRANCH   1   2
BRANCH   1  17
HETATM   17  N   UNL     1     -42.932  57.046 -51.052  1.00  0.00    -0.345 N 
HETATM   18  C   UNL     1     -41.586  56.921 -50.826  1.00  0.00     0.270 C 
HETATM   19  O   UNL     1     -40.862  57.882 -50.589  1.00  0.00    -0.266 OA
HETATM   20  H   UNL     1     -43.470  56.246 -51.348  1.00  0.00     0.163 HD
BRANCH  18  21
HETATM   21  C   UNL     1     -41.078  55.577 -50.896  1.00  0.00     0.120 A 
HETATM   22  N   UNL     1     -40.432  54.999 -49.840  1.00  0.00    -0.272 N 
HETATM   23  H   UNL     1     -40.253  55.421 -48.933  1.00  0.00     0.189 HD
HETATM   24  N   UNL     1     -39.998  53.752 -50.074  1.00  0.00    -0.174 NA
HETATM   25  C   UNL     1     -40.394  53.483 -51.328  1.00  0.00     0.089 A 
HETATM   26  C   UNL     1     -41.078  54.604 -51.877  1.00  0.00     0.071 A 
BRANCH  25  27
HETATM   27  C   UNL     1     -40.107  52.194 -51.970  1.00  0.00    -0.006 A 
HETATM   28  C   UNL     1     -40.126  52.055 -53.365  1.00  0.00     0.014 A 
HETATM   29  C   UNL     1     -39.836  50.826 -53.966  1.00  0.00     0.001 A 
HETATM   30  C   UNL     1     -39.525  49.720 -53.178  1.00  0.00     0.000 A 
HETATM   31  C   UNL     1     -39.507  49.839 -51.791  1.00  0.00     0.001 A 
HETATM   32  C   UNL     1     -39.798  51.067 -51.191  1.00  0.00     0.014 A 
ENDBRANCH  25  27
ENDBRANCH  18  21
ENDBRANCH   1  17
TORSDOF 9
ENDMDL
MODEL 2
REMARK VINA RESULT:      -7.7      2.544      3.335
REMARK  9 active torsions:
REMARK  status: ('A' for Active; 'I' for Inactive)
REMARK       I    between atoms: C_2  and  N_3 
REMARK    1  A    between atoms: N_3  and  C_4 
REMARK    2  A    between atoms: C_6  and  O_7 
REMARK    3  A    between atoms: O_7  and  C_8 
REMARK    4  A    between atoms: C_8  and  C_9 
REMARK    5  A    between atoms: C_9  and  C_10 
REMARK    6  A    between atoms: C_10  and  C_11 
REMARK    7  A    between atoms: C_11  and  N_12 
REMARK       I    between atoms: N_12  and  C_13 
REMARK    8  A    between atoms: C_13  and  C_14 
REMARK    9  A    between atoms: C_18  and  C_19 
ROOT
HETATM    1  C   UNL     1     -42.413  59.061 -54.701  1.00  0.00     0.217 C 
ENDROOT
BRANCH   1   2
HETATM    2  C   UNL     1     -42.158  59.694 -56.059  1.00  0.00    -0.085 C 
BRANCH   2   3
HETATM    3  C   UNL     1     -41.939  60.236 -57.224  1.00  0.00    -0.078 C 
BRANCH   3   4
HETATM    4  C   UNL     1     -41.684  60.869 -58.583  1.00  0.00     0.269 C 
BRANCH   4   5
HETATM    5  O   UNL     1     -41.785  59.885 -59.608  1.00  0.00    -0.339 OA
BRANCH   5   6
HETATM    6  C   UNL     1     -42.960  59.178 -59.641  1.00  0.00     0.072 A 
HETATM    7  C   UNL     1     -43.095  57.801 -59.417  1.00  0.00     0.066 A 
HETATM    8  C   UNL     1     -44.351  57.186 -59.460  1.00  0.00     0.037 A 
HETATM    9  C   UNL     1     -45.478  57.966 -59.745  1.00  0.00     0.029 A 
HETATM   10  C   UNL     1     -45.352  59.337 -59.975  1.00  0.00     0.005 A 
HETATM   11  C   UNL     1     -44.096  59.939 -59.920  1.00  0.00     0.037 A 
BRANCH   8  12
HETATM   12  N   UNL     1     -44.558  55.808 -59.230  1.00  0.00    -0.327 N 
HETATM   13  C   UNL     1     -44.691  54.805 -60.174  1.00  0.00     0.218 C 
HETATM   14  C   UNL     1     -44.887  53.444 -59.554  1.00  0.00     0.117 C 
HETATM   15  O   UNL     1     -44.631  54.929 -61.394  1.00  0.00    -0.274 OA
HETATM   16  H   UNL     1     -44.593  55.526 -58.259  1.00  0.00     0.169 HD
ENDBRANCH   8  12
ENDBRANCH   5   6
ENDBRANCH   4   5
ENDBRANCH   3   4
ENDBRANCH   2   3
ENDBRANCH   1   2
BRANCH   1  17
HETATM   17  N   UNL     1     -41.982  57.690 -54.749  1.00  0.00    -0.345 N 
HETATM   18  C   UNL     1     -41.464  57.064 -53.645  1.00  0.00     0.270 C 
HETATM   19  O   UNL     1     -41.382  57.612 -52.551  1.00  0.00    -0.266 OA
HETATM   20  H   UNL     1     -41.933  57.241 -55.651  1.00  0.00     0.163 HD
BRANCH  18  21
HETATM   21  C   UNL     1     -41.015  55.715 -53.862  1.00  0.00     0.120 A 
HETATM   22  N   UNL     1     -40.577  55.293 -55.086  1.00  0.00    -0.272 N 
HETATM   23  H   UNL     1     -40.513  55.850 -55.933  1.00  0.00     0.189 HD
HETATM   24  N   UNL     1     -40.216  54.002 -55.128  1.00  0.00    -0.174 NA
HETATM   25  C   UNL     1     -40.399  53.556 -53.875  1.00  0.00     0.089 A 
HETATM   26  C   UNL     1     -40.897  54.604 -53.050  1.00  0.00     0.071 A 
BRANCH  25  27
HETATM   27  C   UNL     1     -40.113  52.166 -53.500  1.00  0.00    -0.006 A 
HETATM   28  C   UNL     1     -40.149  51.133 -54.448  1.00  0.00     0.014 A 
HETATM   29  C   UNL     1     -39.861  49.814 -54.081  1.00  0.00     0.001 A 
HETATM   30  C   UNL     1     -39.535  49.512 -52.761  1.00  0.00     0.000 A 
HETATM   31  C   UNL     1     -39.500  50.525 -51.806  1.00  0.00     0.001 A 
HETATM   32  C   UNL     1     -39.790  51.842 -52.172  1.00  0.00     0.014 A 
ENDBRANCH  25  27
ENDBRANCH  18  21
ENDBRANCH   1  17
TORSDOF 9
ENDMDL
MODEL 3
REMARK VINA RESULT:      -7.7      2.031      5.068
REMARK  9 active torsions:
REMARK  status: ('A' for Active; 'I' for Inactive)
REMARK       I    between atoms: C_2  and  N_3 
REMARK    1  A    between atoms: N_3  and  C_4 
REMARK    2  A    between atoms: C_6  and  O_7 
REMARK    3  A    between atoms: O_7  and  C_8 
REMARK    4  A    between atoms: C_8  and  C_9 
REMARK    5  A    between atoms: C_9  and  C_10 
REMARK    6  A    between atoms: C_10  and  C_11 
REMARK    7  A    between atoms: C_11  and  N_12 
REMARK       I    between atoms: N_12  and  C_13 
REMARK    8  A    between atoms: C_13  and  C_14 
REMARK    9  A    between atoms: C_18  and  C_19 
ROOT
HETATM    1  C   UNL     1     -43.635  56.586 -58.194  1.00  0.00     0.217 C 
ENDROOT
BRANCH   1   2
HETATM    2  C   UNL     1     -43.362  58.010 -57.734  1.00  0.00    -0.085 C 
BRANCH   2   3
HETATM    3  C   UNL     1     -43.128  59.230 -57.341  1.00  0.00    -0.078 C 
BRANCH   3   4
HETATM    4  C   UNL     1     -42.855  60.653 -56.883  1.00  0.00     0.269 C 
BRANCH   4   5
HETATM    5  O   UNL     1     -41.754  60.675 -55.979  1.00  0.00    -0.339 OA
BRANCH   5   6
HETATM    6  C   UNL     1     -42.012  60.208 -54.715  1.00  0.00     0.072 A 
HETATM    7  C   UNL     1     -41.528  59.012 -54.169  1.00  0.00     0.066 A 
HETATM    8  C   UNL     1     -41.843  58.642 -52.857  1.00  0.00     0.037 A 
HETATM    9  C   UNL     1     -42.666  59.480 -52.096  1.00  0.00     0.029 A 
HETATM   10  C   UNL     1     -43.157  60.671 -52.634  1.00  0.00     0.005 A 
HETATM   11  C   UNL     1     -42.828  61.033 -53.940  1.00  0.00     0.037 A 
BRANCH   8  12
HETATM   12  N   UNL     1     -41.377  57.459 -52.242  1.00  0.00    -0.327 N 
HETATM   13  C   UNL     1     -42.091  56.301 -51.990  1.00  0.00     0.218 C 
HETATM   14  C   UNL     1     -41.255  55.234 -51.326  1.00  0.00     0.117 C 
HETATM   15  O   UNL     1     -43.264  56.081 -52.277  1.00  0.00    -0.274 OA
HETATM   16  H   UNL     1     -40.401  57.459 -51.974  1.00  0.00     0.169 HD
ENDBRANCH   8  12
ENDBRANCH   5   6
ENDBRANCH   4   5
ENDBRANCH   3   4
ENDBRANCH   2   3
ENDBRANCH   1   2
BRANCH   1  17
HETATM   17  N   UNL     1     -42.787  55.696 -57.445  1.00  0.00    -0.345 N 
HETATM   18  C   UNL     1     -42.891  55.587 -56.083  1.00  0.00     0.270 C 
HETATM   19  O   UNL     1     -43.731  56.199 -55.432  1.00  0.00    -0.266 OA
HETATM   20  H   UNL     1     -42.016  55.261 -57.928  1.00  0.00     0.163 HD
BRANCH  18  21
HETATM   21  C   UNL     1     -41.934  54.709 -55.466  1.00  0.00     0.120 A 
HETATM   22  N   UNL     1     -40.590  54.937 -55.553  1.00  0.00    -0.272 N 
HETATM   23  H   UNL     1     -40.135  55.712 -56.028  1.00  0.00     0.189 HD
HETATM   24  N   UNL     1     -39.832  54.012 -54.946  1.00  0.00    -0.174 NA
HETATM   25  C   UNL     1     -40.710  53.148 -54.413  1.00  0.00     0.089 A 
HETATM   26  C   UNL     1     -42.042  53.553 -54.716  1.00  0.00     0.071 A 
BRANCH  25  27
HETATM   27  C   UNL     1     -40.273  51.971 -53.653  1.00  0.00    -0.006 A 
HETATM   28  C   UNL     1     -40.140  50.716 -54.265  1.00  0.00     0.014 A 
HETATM   29  C   UNL     1     -39.709  49.605 -53.533  1.00  0.00     0.001 A 
HETATM   30  C   UNL     1     -39.406  49.735 -52.179  1.00  0.00     0.000 A 
HETATM   31  C   UNL     1     -39.538  50.972 -51.555  1.00  0.00     0.001 A 
HETATM   32  C   UNL     1     -39.971  52.082 -52.285  1.00  0.00     0.014 A 
ENDBRANCH  25  27
ENDBRANCH  18  21
ENDBRANCH   1  17
TORSDOF 9
ENDMDL
MODEL 4
REMARK VINA RESULT:      -7.7      2.953      4.054
REMARK  9 active torsions:
REMARK  status: ('A' for Active; 'I' for Inactive)
REMARK       I    between atoms: C_2  and  N_3 
REMARK    1  A    between atoms: N_3  and  C_4 
REMARK    2  A    between atoms: C_6  and  O_7 
REMARK    3  A    between atoms: O_7  and  C_8 
REMARK    4  A    between atoms: C_8  and  C_9 
REMARK    5  A    between atoms: C_9  and  C_10 
REMARK    6  A    between atoms: C_10  and  C_11 
REMARK    7  A    between atoms: C_11  and  N_12 
REMARK       I    between atoms: N_12  and  C_13 
REMARK    8  A    between atoms: C_13  and  C_14 
REMARK    9  A    between atoms: C_18  and  C_19 
ROOT
HETATM    1  C   UNL     1     -44.376  58.075 -54.514  1.00  0.00     0.217 C 
ENDROOT
BRANCH   1   2
HETATM    2  C   UNL     1     -45.157  58.078 -55.819  1.00  0.00    -0.085 C 
BRANCH   2   3
HETATM    3  C   UNL     1     -45.825  58.080 -56.938  1.00  0.00    -0.078 C 
BRANCH   3   4
HETATM    4  C   UNL     1     -46.605  58.082 -58.242  1.00  0.00     0.269 C 
BRANCH   4   5
HETATM    5  O   UNL     1     -46.082  57.096 -59.128  1.00  0.00    -0.339 OA
BRANCH   5   6
HETATM    6  C   UNL     1     -44.781  57.280 -59.522  1.00  0.00     0.072 A 
HETATM    7  C   UNL     1     -44.253  58.447 -60.090  1.00  0.00     0.066 A 
HETATM    8  C   UNL     1     -42.901  58.527 -60.440  1.00  0.00     0.037 A 
HETATM    9  C   UNL     1     -42.079  57.414 -60.228  1.00  0.00     0.029 A 
HETATM   10  C   UNL     1     -42.598  56.246 -59.669  1.00  0.00     0.005 A 
HETATM   11  C   UNL     1     -43.945  56.182 -59.315  1.00  0.00     0.037 A 
BRANCH   8  12
HETATM   12  N   UNL     1     -42.303  59.677 -61.002  1.00  0.00    -0.327 N 
HETATM   13  C   UNL     1     -41.788  60.773 -60.332  1.00  0.00     0.218 C 
HETATM   14  C   UNL     1     -41.214  61.809 -61.266  1.00  0.00     0.117 C 
HETATM   15  O   UNL     1     -41.737  60.937 -59.116  1.00  0.00    -0.274 OA
HETATM   16  H   UNL     1     -42.229  59.685 -62.011  1.00  0.00     0.169 HD
ENDBRANCH   8  12
ENDBRANCH   5   6
ENDBRANCH   4   5
ENDBRANCH   3   4
ENDBRANCH   2   3
ENDBRANCH   1   2
BRANCH   1  17
HETATM   17  N   UNL     1     -43.572  56.882 -54.467  1.00  0.00    -0.345 N 
HETATM   18  C   UNL     1     -42.262  56.919 -54.067  1.00  0.00     0.270 C 
HETATM   19  O   UNL     1     -41.715  57.949 -53.684  1.00  0.00    -0.266 OA
HETATM   20  H   UNL     1     -43.950  56.041 -54.874  1.00  0.00     0.163 HD
BRANCH  18  21
HETATM   21  C   UNL     1     -41.567  55.662 -54.134  1.00  0.00     0.120 A 
HETATM   22  N   UNL     1     -40.759  55.345 -55.190  1.00  0.00    -0.272 N 
HETATM   23  H   UNL     1     -40.560  55.927 -55.998  1.00  0.00     0.189 HD
HETATM   24  N   UNL     1     -40.204  54.127 -55.113  1.00  0.00    -0.174 NA
HETATM   25  C   UNL     1     -40.641  53.625 -53.948  1.00  0.00     0.089 A 
HETATM   26  C   UNL     1     -41.499  54.562 -53.302  1.00  0.00     0.071 A 
BRANCH  25  27
HETATM   27  C   UNL     1     -40.254  52.286 -53.488  1.00  0.00    -0.006 A 
HETATM   28  C   UNL     1     -39.841  52.061 -52.166  1.00  0.00     0.014 A 
HETATM   29  C   UNL     1     -39.488  50.777 -51.736  1.00  0.00     0.001 A 
HETATM   30  C   UNL     1     -39.543  49.704 -52.622  1.00  0.00     0.000 A 
HETATM   31  C   UNL     1     -39.945  49.911 -53.939  1.00  0.00     0.001 A 
HETATM   32  C   UNL     1     -40.296  51.193 -54.369  1.00  0.00     0.014 A 
ENDBRANCH  25  27
ENDBRANCH  18  21
ENDBRANCH   1  17
TORSDOF 9
ENDMDL
MODEL 5
REMARK VINA RESULT:      -7.7      2.222      3.420
REMARK  9 active torsions:
REMARK  status: ('A' for Active; 'I' for Inactive)
REMARK       I    between atoms: C_2  and  N_3 
REMARK    1  A    between atoms: N_3  and  C_4 
REMARK    2  A    between atoms: C_6  and  O_7 
REMARK    3  A    between atoms: O_7  and  C_8 
REMARK    4  A    between atoms: C_8  and  C_9 
REMARK    5  A    between atoms: C_9  and  C_10 
REMARK    6  A    between atoms: C_10  and  C_11 
REMARK    7  A    between atoms: C_11  and  N_12 
REMARK       I    between atoms: N_12  and  C_13 
REMARK    8  A    between atoms: C_13  and  C_14 
REMARK    9  A    between atoms: C_18  and  C_19 
ROOT
HETATM    1  C   UNL     1     -42.775  59.047 -54.828  1.00  0.00     0.217 C 
ENDROOT
BRANCH   1   2
HETATM    2  C   UNL     1     -42.678  59.003 -56.345  1.00  0.00    -0.085 C 
BRANCH   2   3
HETATM    3  C   UNL     1     -42.595  58.966 -57.645  1.00  0.00    -0.078 C 
BRANCH   3   4
HETATM    4  C   UNL     1     -42.498  58.923 -59.161  1.00  0.00     0.269 C 
BRANCH   4   5
HETATM    5  O   UNL     1     -42.117  57.620 -59.592  1.00  0.00    -0.339 OA
BRANCH   5   6
HETATM    6  C   UNL     1     -43.144  56.725 -59.760  1.00  0.00     0.072 A 
HETATM    7  C   UNL     1     -44.293  56.931 -60.535  1.00  0.00     0.066 A 
HETATM    8  C   UNL     1     -45.271  55.938 -60.648  1.00  0.00     0.037 A 
HETATM    9  C   UNL     1     -45.094  54.731 -59.962  1.00  0.00     0.029 A 
HETATM   10  C   UNL     1     -43.955  54.519 -59.183  1.00  0.00     0.005 A 
HETATM   11  C   UNL     1     -42.983  55.514 -59.086  1.00  0.00     0.037 A 
BRANCH   8  12
HETATM   12  N   UNL     1     -46.444  56.076 -61.424  1.00  0.00    -0.327 N 
HETATM   13  C   UNL     1     -47.451  57.011 -61.270  1.00  0.00     0.218 C 
HETATM   14  C   UNL     1     -48.546  56.861 -62.298  1.00  0.00     0.117 C 
HETATM   15  O   UNL     1     -47.500  57.913 -60.439  1.00  0.00    -0.274 OA
HETATM   16  H   UNL     1     -46.542  55.422 -62.191  1.00  0.00     0.169 HD
ENDBRANCH   8  12
ENDBRANCH   5   6
ENDBRANCH   4   5
ENDBRANCH   3   4
ENDBRANCH   2   3
ENDBRANCH   1   2
BRANCH   1  17
HETATM   17  N   UNL     1     -42.551  57.720 -54.319  1.00  0.00    -0.345 N 
HETATM   18  C   UNL     1     -41.367  57.374 -53.722  1.00  0.00     0.270 C 
HETATM   19  O   UNL     1     -40.455  58.175 -53.545  1.00  0.00    -0.266 OA
HETATM   20  H   UNL     1     -43.230  57.008 -54.540  1.00  0.00     0.163 HD
BRANCH  18  21
HETATM   21  C   UNL     1     -41.264  55.996 -53.322  1.00  0.00     0.120 A 
HETATM   22  N   UNL     1     -41.918  55.518 -52.222  1.00  0.00    -0.272 N 
HETATM   23  H   UNL     1     -42.523  56.044 -51.599  1.00  0.00     0.189 HD
HETATM   24  N   UNL     1     -41.698  54.219 -51.971  1.00  0.00    -0.174 NA
HETATM   25  C   UNL     1     -40.886  53.813 -52.959  1.00  0.00     0.089 A 
HETATM   26  C   UNL     1     -40.593  54.901 -53.830  1.00  0.00     0.071 A 
BRANCH  25  27
HETATM   27  C   UNL     1     -40.405  52.429 -53.046  1.00  0.00    -0.006 A 
HETATM   28  C   UNL     1     -39.867  51.773 -51.928  1.00  0.00     0.014 A 
HETATM   29  C   UNL     1     -39.425  50.449 -52.020  1.00  0.00     0.001 A 
HETATM   30  C   UNL     1     -39.514  49.765 -53.230  1.00  0.00     0.000 A 
HETATM   31  C   UNL     1     -40.041  50.403 -54.350  1.00  0.00     0.001 A 
HETATM   32  C   UNL     1     -40.480  51.726 -54.259  1.00  0.00     0.014 A 
ENDBRANCH  25  27
ENDBRANCH  18  21
ENDBRANCH   1  17
TORSDOF 9
ENDMDL
MODEL 6
REMARK VINA RESULT:      -7.6      2.372      5.366
REMARK  9 active torsions:
REMARK  status: ('A' for Active; 'I' for Inactive)
REMARK       I    between atoms: C_2  and  N_3 
REMARK    1  A    between atoms: N_3  and  C_4 
REMARK    2  A    between atoms: C_6  and  O_7 
REMARK    3  A    between atoms: O_7  and  C_8 
REMARK    4  A    between atoms: C_8  and  C_9 
REMARK    5  A    between atoms: C_9  and  C_10 
REMARK    6  A    between atoms: C_10  and  C_11 
REMARK    7  A    between atoms: C_11  and  N_12 
REMARK       I    between atoms: N_12  and  C_13 
REMARK    8  A    between atoms: C_13  and  C_14 
REMARK    9  A    between atoms: C_18  and  C_19 
ROOT
HETATM    1  C   UNL     1     -44.896  57.335 -55.524  1.00  0.00     0.217 C 
ENDROOT
BRANCH   1   2
HETATM    2  C   UNL     1     -44.815  58.617 -54.710  1.00  0.00    -0.085 C 
BRANCH   2   3
HETATM    3  C   UNL     1     -44.747  59.716 -54.013  1.00  0.00    -0.078 C 
BRANCH   3   4
HETATM    4  C   UNL     1     -44.667  60.998 -53.201  1.00  0.00     0.269 C 
BRANCH   4   5
HETATM    5  O   UNL     1     -44.628  60.695 -51.809  1.00  0.00    -0.339 OA
BRANCH   5   6
HETATM    6  C   UNL     1     -43.557  59.946 -51.393  1.00  0.00     0.072 A 
HETATM    7  C   UNL     1     -43.563  58.563 -51.162  1.00  0.00     0.066 A 
HETATM    8  C   UNL     1     -42.402  57.898 -50.753  1.00  0.00     0.037 A 
HETATM    9  C   UNL     1     -41.229  58.638 -50.562  1.00  0.00     0.029 A 
HETATM   10  C   UNL     1     -41.216  60.016 -50.784  1.00  0.00     0.005 A 
HETATM   11  C   UNL     1     -42.377  60.665 -51.200  1.00  0.00     0.037 A 
BRANCH   8  12
HETATM   12  N   UNL     1     -42.337  56.507 -50.518  1.00  0.00    -0.327 N 
HETATM   13  C   UNL     1     -42.883  55.495 -51.287  1.00  0.00     0.218 C 
HETATM   14  C   UNL     1     -42.596  54.122 -50.730  1.00  0.00     0.117 C 
HETATM   15  O   UNL     1     -43.511  55.622 -52.334  1.00  0.00    -0.274 OA
HETATM   16  H   UNL     1     -41.811  56.224 -49.700  1.00  0.00     0.169 HD
ENDBRANCH   8  12
ENDBRANCH   5   6
ENDBRANCH   4   5
ENDBRANCH   3   4
ENDBRANCH   2   3
ENDBRANCH   1   2
BRANCH   1  17
HETATM   17  N   UNL     1     -43.835  56.460 -55.101  1.00  0.00    -0.345 N 
HETATM   18  C   UNL     1     -43.020  55.835 -56.008  1.00  0.00     0.270 C 
HETATM   19  O   UNL     1     -43.113  56.017 -57.218  1.00  0.00    -0.266 OA
HETATM   20  H   UNL     1     -43.796  56.202 -54.127  1.00  0.00     0.163 HD
BRANCH  18  21
HETATM   21  C   UNL     1     -42.048  54.940 -55.441  1.00  0.00     0.120 A 
HETATM   22  N   UNL     1     -40.706  55.173 -55.554  1.00  0.00    -0.272 N 
HETATM   23  H   UNL     1     -40.264  55.962 -56.017  1.00  0.00     0.189 HD
HETATM   24  N   UNL     1     -39.933  54.232 -54.992  1.00  0.00    -0.174 NA
HETATM   25  C   UNL     1     -40.797  53.351 -54.463  1.00  0.00     0.089 A 
HETATM   26  C   UNL     1     -42.136  53.763 -54.722  1.00  0.00     0.071 A 
BRANCH  25  27
HETATM   27  C   UNL     1     -40.341  52.154 -53.749  1.00  0.00    -0.006 A 
HETATM   28  C   UNL     1     -39.948  52.213 -52.403  1.00  0.00     0.014 A 
HETATM   29  C   UNL     1     -39.529  51.061 -51.729  1.00  0.00     0.001 A 
HETATM   30  C   UNL     1     -39.497  49.836 -52.392  1.00  0.00     0.000 A 
HETATM   31  C   UNL     1     -39.878  49.761 -53.729  1.00  0.00     0.001 A 
HETATM   32  C   UNL     1     -40.295  50.911 -54.403  1.00  0.00     0.014 A 
ENDBRANCH  25  27
ENDBRANCH  18  21
ENDBRANCH   1  17
TORSDOF 9
ENDMDL
MODEL 7
REMARK VINA RESULT:      -7.6      1.650      2.278
REMARK  9 active torsions:
REMARK  status: ('A' for Active; 'I' for Inactive)
REMARK       I    between atoms: C_2  and  N_3 
REMARK    1  A    between atoms: N_3  and  C_4 
REMARK    2  A    between atoms: C_6  and  O_7 
REMARK    3  A    between atoms: O_7  and  C_8 
REMARK    4  A    between atoms: C_8  and  C_9 
REMARK    5  A    between atoms: C_9  and  C_10 
REMARK    6  A    between atoms: C_10  and  C_11 
REMARK    7  A    between atoms: C_11  and  N_12 
REMARK       I    between atoms: N_12  and  C_13 
REMARK    8  A    between atoms: C_13  and  C_14 
REMARK    9  A    between atoms: C_18  and  C_19 
ROOT
HETATM    1  C   UNL     1     -41.984  59.300 -51.401  1.00  0.00     0.217 C 
ENDROOT
BRANCH   1   2
HETATM    2  C   UNL     1     -42.186  59.872 -52.795  1.00  0.00    -0.085 C 
BRANCH   2   3
HETATM    3  C   UNL     1     -42.359  60.362 -53.990  1.00  0.00    -0.078 C 
BRANCH   3   4
HETATM    4  C   UNL     1     -42.561  60.934 -55.384  1.00  0.00     0.269 C 
BRANCH   4   5
HETATM    5  O   UNL     1     -41.614  60.371 -56.287  1.00  0.00    -0.339 OA
BRANCH   5   6
HETATM    6  C   UNL     1     -42.030  59.255 -56.967  1.00  0.00     0.072 A 
HETATM    7  C   UNL     1     -42.463  58.055 -56.388  1.00  0.00     0.066 A 
HETATM    8  C   UNL     1     -42.882  56.983 -57.183  1.00  0.00     0.037 A 
HETATM    9  C   UNL     1     -42.851  57.120 -58.576  1.00  0.00     0.029 A 
HETATM   10  C   UNL     1     -42.416  58.310 -59.162  1.00  0.00     0.005 A 
HETATM   11  C   UNL     1     -42.009  59.373 -58.358  1.00  0.00     0.037 A 
BRANCH   8  12
HETATM   12  N   UNL     1     -43.344  55.753 -56.663  1.00  0.00    -0.327 N 
HETATM   13  C   UNL     1     -42.609  54.795 -55.987  1.00  0.00     0.218 C 
HETATM   14  C   UNL     1     -43.445  53.611 -55.567  1.00  0.00     0.117 C 
HETATM   15  O   UNL     1     -41.418  54.849 -55.696  1.00  0.00    -0.274 OA
HETATM   16  H   UNL     1     -44.331  55.567 -56.786  1.00  0.00     0.169 HD
ENDBRANCH   8  12
ENDBRANCH   5   6
ENDBRANCH   4   5
ENDBRANCH   3   4
ENDBRANCH   2   3
ENDBRANCH   1   2
BRANCH   1  17
HETATM   17  N   UNL     1     -41.461  57.966 -51.528  1.00  0.00    -0.345 N 
HETATM   18  C   UNL     1     -42.216  56.869 -51.207  1.00  0.00     0.270 C 
HETATM   19  O   UNL     1     -43.384  56.953 -50.840  1.00  0.00    -0.266 OA
HETATM   20  H   UNL     1     -40.477  57.860 -51.721  1.00  0.00     0.163 HD
BRANCH  18  21
HETATM   21  C   UNL     1     -41.539  55.605 -51.322  1.00  0.00     0.120 A 
HETATM   22  N   UNL     1     -40.621  55.197 -50.395  1.00  0.00    -0.272 N 
HETATM   23  H   UNL     1     -40.332  55.703 -49.563  1.00  0.00     0.189 HD
HETATM   24  N   UNL     1     -40.062  54.008 -50.660  1.00  0.00    -0.174 NA
HETATM   25  C   UNL     1     -40.650  53.598 -51.794  1.00  0.00     0.089 A 
HETATM   26  C   UNL     1     -41.586  54.574 -52.240  1.00  0.00     0.071 A 
BRANCH  25  27
HETATM   27  C   UNL     1     -40.307  52.319 -52.426  1.00  0.00    -0.006 A 
HETATM   28  C   UNL     1     -40.499  52.109 -53.800  1.00  0.00     0.014 A 
HETATM   29  C   UNL     1     -40.154  50.890 -54.393  1.00  0.00     0.001 A 
HETATM   30  C   UNL     1     -39.613  49.865 -53.620  1.00  0.00     0.000 A 
HETATM   31  C   UNL     1     -39.421  50.055 -52.254  1.00  0.00     0.001 A 
HETATM   32  C   UNL     1     -39.767  51.272 -51.661  1.00  0.00     0.014 A 
ENDBRANCH  25  27
ENDBRANCH  18  21
ENDBRANCH   1  17
TORSDOF 9
ENDMDL
MODEL 8
REMARK VINA RESULT:      -7.6      2.014      2.395
REMARK  9 active torsions:
REMARK  status: ('A' for Active; 'I' for Inactive)
REMARK       I    between atoms: C_2  and  N_3 
REMARK    1  A    between atoms: N_3  and  C_4 
REMARK    2  A    between atoms: C_6  and  O_7 
REMARK    3  A    between atoms: O_7  and  C_8 
REMARK    4  A    between atoms: C_8  and  C_9 
REMARK    5  A    between atoms: C_9  and  C_10 
REMARK    6  A    between atoms: C_10  and  C_11 
REMARK    7  A    between atoms: C_11  and  N_12 
REMARK       I    between atoms: N_12  and  C_13 
REMARK    8  A    between atoms: C_13  and  C_14 
REMARK    9  A    between atoms: C_18  and  C_19 
ROOT
HETATM    1  C   UNL     1     -45.094  57.956 -52.688  1.00  0.00     0.217 C 
ENDROOT
BRANCH   1   2
HETATM    2  C   UNL     1     -44.911  59.031 -53.747  1.00  0.00    -0.085 C 
BRANCH   2   3
HETATM    3  C   UNL     1     -44.756  59.953 -54.655  1.00  0.00    -0.078 C 
BRANCH   3   4
HETATM    4  C   UNL     1     -44.575  61.029 -55.714  1.00  0.00     0.269 C 
BRANCH   4   5
HETATM    5  O   UNL     1     -44.962  60.531 -56.990  1.00  0.00    -0.339 OA
BRANCH   5   6
HETATM    6  C   UNL     1     -44.194  59.509 -57.489  1.00  0.00     0.072 A 
HETATM    7  C   UNL     1     -44.631  58.202 -57.742  1.00  0.00     0.066 A 
HETATM    8  C   UNL     1     -43.761  57.242 -58.269  1.00  0.00     0.037 A 
HETATM    9  C   UNL     1     -42.433  57.602 -58.530  1.00  0.00     0.029 A 
HETATM   10  C   UNL     1     -41.988  58.900 -58.276  1.00  0.00     0.005 A 
HETATM   11  C   UNL     1     -42.868  59.850 -57.759  1.00  0.00     0.037 A 
BRANCH   8  12
HETATM   12  N   UNL     1     -44.141  55.913 -58.560  1.00  0.00    -0.327 N 
HETATM   13  C   UNL     1     -44.297  55.334 -59.807  1.00  0.00     0.218 C 
HETATM   14  C   UNL     1     -44.701  53.882 -59.727  1.00  0.00     0.117 C 
HETATM   15  O   UNL     1     -44.111  55.868 -60.896  1.00  0.00    -0.274 OA
HETATM   16  H   UNL     1     -44.298  55.316 -57.758  1.00  0.00     0.169 HD
ENDBRANCH   8  12
ENDBRANCH   5   6
ENDBRANCH   4   5
ENDBRANCH   3   4
ENDBRANCH   2   3
ENDBRANCH   1   2
BRANCH   1  17
HETATM   17  N   UNL     1     -44.162  56.892 -52.954  1.00  0.00    -0.345 N 
HETATM   18  C   UNL     1     -42.951  56.827 -52.316  1.00  0.00     0.270 C 
HETATM   19  O   UNL     1     -42.610  57.634 -51.457  1.00  0.00    -0.266 OA
HETATM   20  H   UNL     1     -44.357  56.275 -53.727  1.00  0.00     0.163 HD
BRANCH  18  21
HETATM   21  C   UNL     1     -42.098  55.746 -52.732  1.00  0.00     0.120 A 
HETATM   22  N   UNL     1     -41.112  55.927 -53.661  1.00  0.00    -0.272 N 
HETATM   23  H   UNL     1     -40.873  56.795 -54.132  1.00  0.00     0.189 HD
HETATM   24  N   UNL     1     -40.423  54.816 -53.957  1.00  0.00    -0.174 NA
HETATM   25  C   UNL     1     -40.957  53.864 -53.176  1.00  0.00     0.089 A 
HETATM   26  C   UNL     1     -42.011  54.411 -52.390  1.00  0.00     0.071 A 
BRANCH  25  27
HETATM   27  C   UNL     1     -40.473  52.479 -53.203  1.00  0.00    -0.006 A 
HETATM   28  C   UNL     1     -39.867  51.897 -52.080  1.00  0.00     0.014 A 
HETATM   29  C   UNL     1     -39.423  50.571 -52.113  1.00  0.00     0.001 A 
HETATM   30  C   UNL     1     -39.577  49.811 -53.271  1.00  0.00     0.000 A 
HETATM   31  C   UNL     1     -40.170  50.376 -54.397  1.00  0.00     0.001 A 
HETATM   32  C   UNL     1     -40.613  51.700 -54.364  1.00  0.00     0.014 A 
ENDBRANCH  25  27
ENDBRANCH  18  21
ENDBRANCH   1  17
TORSDOF 9
ENDMDL
MODEL 9
REMARK VINA RESULT:      -7.5     15.085     19.995
REMARK  9 active torsions:
REMARK  status: ('A' for Active; 'I' for Inactive)
REMARK       I    between atoms: C_2  and  N_3 
REMARK    1  A    between atoms: N_3  and  C_4 
REMARK    2  A    between atoms: C_6  and  O_7 
REMARK    3  A    between atoms: O_7  and  C_8 
REMARK    4  A    between atoms: C_8  and  C_9 
REMARK    5  A    between atoms: C_9  and  C_10 
REMARK    6  A    between atoms: C_10  and  C_11 
REMARK    7  A    between atoms: C_11  and  N_12 
REMARK       I    between atoms: N_12  and  C_13 
REMARK    8  A    between atoms: C_13  and  C_14 
REMARK    9  A    between atoms: C_18  and  C_19 
ROOT
HETATM    1  C   UNL     1     -34.539  42.194 -51.162  1.00  0.00     0.217 C 
ENDROOT
BRANCH   1   2
HETATM    2  C   UNL     1     -33.622  41.128 -50.585  1.00  0.00    -0.085 C 
BRANCH   2   3
HETATM    3  C   UNL     1     -32.835  40.214 -50.089  1.00  0.00    -0.078 C 
BRANCH   3   4
HETATM    4  C   UNL     1     -31.919  39.149 -49.511  1.00  0.00     0.269 C 
BRANCH   4   5
HETATM    5  O   UNL     1     -30.873  39.757 -48.759  1.00  0.00    -0.339 OA
BRANCH   5   6
HETATM    6  C   UNL     1     -30.912  39.541 -47.404  1.00  0.00     0.072 A 
HETATM    7  C   UNL     1     -30.109  40.180 -46.449  1.00  0.00     0.066 A 
HETATM    8  C   UNL     1     -30.247  39.892 -45.087  1.00  0.00     0.037 A 
HETATM    9  C   UNL     1     -31.193  38.940 -44.687  1.00  0.00     0.029 A 
HETATM   10  C   UNL     1     -31.992  38.296 -45.633  1.00  0.00     0.005 A 
HETATM   11  C   UNL     1     -31.852  38.598 -46.986  1.00  0.00     0.037 A 
BRANCH   8  12
HETATM   12  N   UNL     1     -29.481  40.509 -44.073  1.00  0.00    -0.327 N 
HETATM   13  C   UNL     1     -28.470  39.943 -43.316  1.00  0.00     0.218 C 
HETATM   14  C   UNL     1     -27.866  40.916 -42.333  1.00  0.00     0.117 C 
HETATM   15  O   UNL     1     -28.037  38.798 -43.404  1.00  0.00    -0.274 OA
HETATM   16  H   UNL     1     -29.689  41.484 -43.899  1.00  0.00     0.169 HD
ENDBRANCH   8  12
ENDBRANCH   5   6
ENDBRANCH   4   5
ENDBRANCH   3   4
ENDBRANCH   2   3
ENDBRANCH   1   2
BRANCH   1  17
HETATM   17  N   UNL     1     -34.589  42.026 -52.591  1.00  0.00    -0.345 N 
HETATM   18  C   UNL     1     -35.772  42.105 -53.278  1.00  0.00     0.270 C 
HETATM   19  O   UNL     1     -36.840  42.365 -52.732  1.00  0.00    -0.266 OA
HETATM   20  H   UNL     1     -33.756  41.706 -53.059  1.00  0.00     0.163 HD
BRANCH  18  21
HETATM   21  C   UNL     1     -35.676  41.851 -54.690  1.00  0.00     0.120 A 
HETATM   22  N   UNL     1     -34.488  41.947 -55.357  1.00  0.00    -0.272 N 
HETATM   23  H   UNL     1     -33.585  42.187 -54.958  1.00  0.00     0.189 HD
HETATM   24  N   UNL     1     -34.572  41.703 -56.673  1.00  0.00    -0.174 NA
HETATM   25  C   UNL     1     -35.865  41.409 -56.884  1.00  0.00     0.089 A 
HETATM   26  C   UNL     1     -36.590  41.488 -55.661  1.00  0.00     0.071 A 
BRANCH  25  27
HETATM   27  C   UNL     1     -36.375  41.078 -58.219  1.00  0.00    -0.006 A 
HETATM   28  C   UNL     1     -36.228  39.791 -58.757  1.00  0.00     0.014 A 
HETATM   29  C   UNL     1     -36.732  39.484 -60.025  1.00  0.00     0.001 A 
HETATM   30  C   UNL     1     -37.389  40.460 -60.772  1.00  0.00     0.000 A 
HETATM   31  C   UNL     1     -37.538  41.744 -60.255  1.00  0.00     0.001 A 
HETATM   32  C   UNL     1     -37.033  42.051 -58.989  1.00  0.00     0.014 A 
ENDBRANCH  25  27
ENDBRANCH  18  21
ENDBRANCH   1  17
TORSDOF 9
ENDMDL
MODEL 10
REMARK VINA RESULT:      -7.4      2.331      2.869
REMARK  9 active torsions:
REMARK  status: ('A' for Active; 'I' for Inactive)
REMARK       I    between atoms: C_2  and  N_3 
REMARK    1  A    between atoms: N_3  and  C_4 
REMARK    2  A    between atoms: C_6  and  O_7 
REMARK    3  A    between atoms: O_7  and  C_8 
REMARK    4  A    between atoms: C_8  and  C_9 
REMARK    5  A    between atoms: C_9  and  C_10 
REMARK    6  A    between atoms: C_10  and  C_11 
REMARK    7  A    between atoms: C_11  and  N_12 
REMARK       I    between atoms: N_12  and  C_13 
REMARK    8  A    between atoms: C_13  and  C_14 
REMARK    9  A    between atoms: C_18  and  C_19 
ROOT
HETATM    1  C   UNL     1     -44.399  58.013 -53.617  1.00  0.00     0.217 C 
ENDROOT
BRANCH   1   2
HETATM    2  C   UNL     1     -43.815  59.101 -54.504  1.00  0.00    -0.085 C 
BRANCH   2   3
HETATM    3  C   UNL     1     -43.315  60.033 -55.265  1.00  0.00    -0.078 C 
BRANCH   3   4
HETATM    4  C   UNL     1     -42.732  61.121 -56.152  1.00  0.00     0.269 C 
BRANCH   4   5
HETATM    5  O   UNL     1     -41.588  60.629 -56.844  1.00  0.00    -0.339 OA
BRANCH   5   6
HETATM    6  C   UNL     1     -41.837  60.016 -58.046  1.00  0.00     0.072 A 
HETATM    7  C   UNL     1     -42.211  58.677 -58.223  1.00  0.00     0.066 A 
HETATM    8  C   UNL     1     -42.456  58.162 -59.500  1.00  0.00     0.037 A 
HETATM    9  C   UNL     1     -42.309  59.003 -60.609  1.00  0.00     0.029 A 
HETATM   10  C   UNL     1     -41.931  60.336 -60.443  1.00  0.00     0.005 A 
HETATM   11  C   UNL     1     -41.699  60.840 -59.164  1.00  0.00     0.037 A 
BRANCH   8  12
HETATM   12  N   UNL     1     -42.850  56.828 -59.746  1.00  0.00    -0.327 N 
HETATM   13  C   UNL     1     -44.107  56.275 -59.577  1.00  0.00     0.218 C 
HETATM   14  C   UNL     1     -44.155  54.815 -59.956  1.00  0.00     0.117 C 
HETATM   15  O   UNL     1     -45.122  56.852 -59.201  1.00  0.00    -0.274 OA
HETATM   16  H   UNL     1     -42.128  56.216 -60.105  1.00  0.00     0.169 HD
ENDBRANCH   8  12
ENDBRANCH   5   6
ENDBRANCH   4   5
ENDBRANCH   3   4
ENDBRANCH   2   3
ENDBRANCH   1   2
BRANCH   1  17
HETATM   17  N   UNL     1     -43.578  56.837 -53.738  1.00  0.00    -0.345 N 
HETATM   18  C   UNL     1     -42.380  56.731 -53.081  1.00  0.00     0.270 C 
HETATM   19  O   UNL     1     -41.961  57.600 -52.323  1.00  0.00    -0.266 OA
HETATM   20  H   UNL     1     -43.834  56.152 -54.431  1.00  0.00     0.163 HD
BRANCH  18  21
HETATM   21  C   UNL     1     -41.640  55.528 -53.350  1.00  0.00     0.120 A 
HETATM   22  N   UNL     1     -40.769  55.441 -54.400  1.00  0.00    -0.272 N 
HETATM   23  H   UNL     1     -40.549  56.174 -55.068  1.00  0.00     0.189 HD
HETATM   24  N   UNL     1     -40.178  54.244 -54.528  1.00  0.00    -0.174 NA
HETATM   25  C   UNL     1     -40.657  53.515 -53.508  1.00  0.00     0.089 A 
HETATM   26  C   UNL     1     -41.577  54.288 -52.744  1.00  0.00     0.071 A 
BRANCH  25  27
HETATM   27  C   UNL     1     -40.248  52.122 -53.294  1.00  0.00    -0.006 A 
HETATM   28  C   UNL     1     -40.289  51.182 -54.335  1.00  0.00     0.014 A 
HETATM   29  C   UNL     1     -39.883  49.861 -54.122  1.00  0.00     0.001 A 
HETATM   30  C   UNL     1     -39.432  49.462 -52.866  1.00  0.00     0.000 A 
HETATM   31  C   UNL     1     -39.390  50.381 -51.820  1.00  0.00     0.001 A 
HETATM   32  C   UNL     1     -39.798  51.700 -52.032  1.00  0.00     0.014 A 
ENDBRANCH  25  27
ENDBRANCH  18  21
ENDBRANCH   1  17
TORSDOF 9
ENDMDL
