MODEL 1
REMARK VINA RESULT:      -8.2      0.000      0.000
REMARK  3 active torsions:
REMARK  status: ('A' for Active; 'I' for Inactive)
REMARK    1  A    between atoms: O_2  and  C_3 
REMARK    2  A    between atoms: C_7  and  C_8 
REMARK    3  A    between atoms: C_19  and  N_20 
ROOT
HETATM    1  C   UNL     1     -40.160  54.208 -51.264  1.00  0.00     0.244 A 
HETATM    2  N   UNL     1     -40.138  52.764 -51.264  1.00  0.00    -0.151 N 
HETATM    3  C   UNL     1     -40.296  52.061 -50.096  1.00  0.00     0.734 A 
HETATM    4  N   UNL     1     -40.201  50.773 -50.341  1.00  0.00    -0.060 NA
HETATM    5  C   UNL     1     -39.940  50.651 -51.683  1.00  0.00     0.103 A 
HETATM    6  C   UNL     1     -39.884  51.900 -52.294  1.00  0.00     0.083 A 
HETATM    7  C   UNL     1     -39.731  49.496 -52.450  1.00  0.00     0.034 A 
HETATM    8  C   UNL     1     -39.468  49.636 -53.816  1.00  0.00     0.002 A 
HETATM    9  C   UNL     1     -39.415  50.900 -54.408  1.00  0.00     0.002 A 
HETATM   10  C   UNL     1     -39.621  52.065 -53.659  1.00  0.00     0.033 A 
HETATM   11  N   UNL     1     -40.512  52.660 -48.904  1.00  0.00    -0.033 NA
HETATM   12  C   UNL     1     -40.542  53.942 -48.845  1.00  0.00     0.193 A 
HETATM   13  N   UNL     1     -40.366  54.792 -49.942  1.00  0.00    -0.339 N 
HETATM   14  H   UNL     1     -40.343  55.792 -49.819  1.00  0.00     0.164 HD
ENDROOT
BRANCH   1  15
HETATM   15  C   UNL     1     -41.245  54.779 -52.160  1.00  0.00    -0.014 A 
HETATM   16  C   UNL     1     -41.076  56.004 -52.824  1.00  0.00     0.033 A 
HETATM   17  C   UNL     1     -42.067  56.492 -53.686  1.00  0.00     0.044 A 
HETATM   18  C   UNL     1     -43.245  55.766 -53.913  1.00  0.00     0.085 A 
HETATM   19 BR   UNL     1     -41.743  58.156 -54.543  1.00  0.00    -0.048 Br
HETATM   20  C   UNL     1     -43.416  54.546 -53.251  1.00  0.00     0.039 A 
HETATM   21  C   UNL     1     -42.426  54.055 -52.389  1.00  0.00     0.014 A 
BRANCH  18  22
HETATM   22  O   UNL     1     -44.152  56.312 -54.778  1.00  0.00    -0.355 OA
HETATM   23  C   UNL     1     -45.098  57.239 -54.260  1.00  0.00     0.210 C 
ENDBRANCH  18  22
ENDBRANCH   1  15
BRANCH  12  24
HETATM   24  N   UNL     1     -40.743  54.618 -47.695  1.00  0.00    -0.272 NA
HETATM   25  H   UNL     1     -41.375  54.106 -47.083  1.00  0.00     0.127 HD
HETATM   26  H   UNL     1     -41.040  55.581 -47.788  1.00  0.00     0.127 HD
ENDBRANCH  12  24
TORSDOF 3
ENDMDL
MODEL 2
REMARK VINA RESULT:      -8.1      2.208      2.619
REMARK  3 active torsions:
REMARK  status: ('A' for Active; 'I' for Inactive)
REMARK    1  A    between atoms: O_2  and  C_3 
REMARK    2  A    between atoms: C_7  and  C_8 
REMARK    3  A    between atoms: C_19  and  N_20 
ROOT
HETATM    1  C   UNL     1     -40.630  55.450 -50.507  1.00  0.00     0.244 A 
HETATM    2  N   UNL     1     -40.581  54.234 -51.287  1.00  0.00    -0.151 N 
HETATM    3  C   UNL     1     -40.511  53.010 -50.671  1.00  0.00     0.734 A 
HETATM    4  N   UNL     1     -40.437  52.064 -51.581  1.00  0.00    -0.060 NA
HETATM    5  C   UNL     1     -40.421  52.697 -52.799  1.00  0.00     0.103 A 
HETATM    6  C   UNL     1     -40.500  54.077 -52.644  1.00  0.00     0.083 A 
HETATM    7  C   UNL     1     -40.332  52.150 -54.087  1.00  0.00     0.034 A 
HETATM    8  C   UNL     1     -40.323  53.017 -55.185  1.00  0.00     0.002 A 
HETATM    9  C   UNL     1     -40.402  54.399 -55.005  1.00  0.00     0.002 A 
HETATM   10  C   UNL     1     -40.492  54.964 -53.727  1.00  0.00     0.033 A 
HETATM   11  N   UNL     1     -40.520  52.864 -49.328  1.00  0.00    -0.033 NA
HETATM   12  C   UNL     1     -40.563  53.910 -48.585  1.00  0.00     0.193 A 
HETATM   13  N   UNL     1     -40.604  55.223 -49.065  1.00  0.00    -0.339 N 
HETATM   14  H   UNL     1     -40.578  56.004 -48.429  1.00  0.00     0.164 HD
ENDROOT
BRANCH   1  15
HETATM   15  C   UNL     1     -41.869  56.279 -50.790  1.00  0.00    -0.014 A 
HETATM   16  C   UNL     1     -41.776  57.592 -51.278  1.00  0.00     0.033 A 
HETATM   17  C   UNL     1     -42.930  58.326 -51.582  1.00  0.00     0.044 A 
HETATM   18  C   UNL     1     -44.204  57.765 -51.414  1.00  0.00     0.085 A 
HETATM   19 BR   UNL     1     -42.699  60.092 -52.242  1.00  0.00    -0.048 Br
HETATM   20  C   UNL     1     -44.300  56.458 -50.927  1.00  0.00     0.039 A 
HETATM   21  C   UNL     1     -43.147  55.722 -50.624  1.00  0.00     0.014 A 
BRANCH  18  22
HETATM   22  O   UNL     1     -45.275  58.549 -51.746  1.00  0.00    -0.355 OA
HETATM   23  C   UNL     1     -45.960  59.225 -50.699  1.00  0.00     0.210 C 
ENDBRANCH  18  22
ENDBRANCH   1  15
BRANCH  12  24
HETATM   24  N   UNL     1     -40.566  53.852 -47.238  1.00  0.00    -0.272 NA
HETATM   25  H   UNL     1     -41.356  53.304 -46.903  1.00  0.00     0.127 HD
HETATM   26  H   UNL     1     -40.517  54.738 -46.752  1.00  0.00     0.127 HD
ENDBRANCH  12  24
TORSDOF 3
ENDMDL
MODEL 3
REMARK VINA RESULT:      -7.6      3.251      5.068
REMARK  3 active torsions:
REMARK  status: ('A' for Active; 'I' for Inactive)
REMARK    1  A    between atoms: O_2  and  C_3 
REMARK    2  A    between atoms: C_7  and  C_8 
REMARK    3  A    between atoms: C_19  and  N_20 
ROOT
HETATM    1  C   UNL     1     -43.554  55.342 -52.894  1.00  0.00     0.244 A 
HETATM    2  N   UNL     1     -42.326  54.679 -52.520  1.00  0.00    -0.151 N 
HETATM    3  C   UNL     1     -41.642  53.908 -53.426  1.00  0.00     0.734 A 
HETATM    4  N   UNL     1     -40.586  53.381 -52.847  1.00  0.00    -0.060 NA
HETATM    5  C   UNL     1     -40.615  53.793 -51.537  1.00  0.00     0.103 A 
HETATM    6  C   UNL     1     -41.715  54.610 -51.297  1.00  0.00     0.083 A 
HETATM    7  C   UNL     1     -39.731  53.497 -50.490  1.00  0.00     0.034 A 
HETATM    8  C   UNL     1     -39.985  54.037 -49.225  1.00  0.00     0.002 A 
HETATM    9  C   UNL     1     -41.097  54.854 -49.007  1.00  0.00     0.002 A 
HETATM   10  C   UNL     1     -41.990  55.160 -50.040  1.00  0.00     0.033 A 
HETATM   11  N   UNL     1     -42.045  53.751 -54.706  1.00  0.00    -0.033 NA
HETATM   12  C   UNL     1     -43.131  54.317 -55.094  1.00  0.00     0.193 A 
HETATM   13  N   UNL     1     -43.950  55.106 -54.279  1.00  0.00    -0.339 N 
HETATM   14  H   UNL     1     -44.819  55.475 -54.629  1.00  0.00     0.164 HD
ENDROOT
BRANCH   1  15
HETATM   15  C   UNL     1     -43.485  56.848 -52.717  1.00  0.00    -0.014 A 
HETATM   16  C   UNL     1     -44.362  57.524 -51.853  1.00  0.00     0.033 A 
HETATM   17  C   UNL     1     -44.252  58.908 -51.663  1.00  0.00     0.044 A 
HETATM   18  C   UNL     1     -43.261  59.649 -52.323  1.00  0.00     0.085 A 
HETATM   19 BR   UNL     1     -45.480  59.730 -50.469  1.00  0.00    -0.048 Br
HETATM   20  C   UNL     1     -42.389  58.978 -53.185  1.00  0.00     0.039 A 
HETATM   21  C   UNL     1     -42.495  57.594 -53.376  1.00  0.00     0.014 A 
BRANCH  18  22
HETATM   22  O   UNL     1     -43.221  60.992 -52.070  1.00  0.00    -0.355 OA
HETATM   23  C   UNL     1     -43.406  61.885 -53.161  1.00  0.00     0.210 C 
ENDBRANCH  18  22
ENDBRANCH   1  15
BRANCH  12  24
HETATM   24  N   UNL     1     -43.607  54.203 -56.350  1.00  0.00    -0.272 NA
HETATM   25  H   UNL     1     -42.957  54.611 -57.020  1.00  0.00     0.127 HD
HETATM   26  H   UNL     1     -44.544  54.552 -56.506  1.00  0.00     0.127 HD
ENDBRANCH  12  24
TORSDOF 3
ENDMDL
MODEL 4
REMARK VINA RESULT:      -7.6      3.115      4.453
REMARK  3 active torsions:
REMARK  status: ('A' for Active; 'I' for Inactive)
REMARK    1  A    between atoms: O_2  and  C_3 
REMARK    2  A    between atoms: C_7  and  C_8 
REMARK    3  A    between atoms: C_19  and  N_20 
ROOT
HETATM    1  C   UNL     1     -42.766  57.493 -53.065  1.00  0.00     0.244 A 
HETATM    2  N   UNL     1     -42.541  56.074 -52.913  1.00  0.00    -0.151 N 
HETATM    3  C   UNL     1     -43.152  55.371 -51.907  1.00  0.00     0.734 A 
HETATM    4  N   UNL     1     -42.765  54.115 -51.948  1.00  0.00    -0.060 NA
HETATM    5  C   UNL     1     -41.861  54.022 -52.977  1.00  0.00     0.103 A 
HETATM    6  C   UNL     1     -41.689  55.253 -53.602  1.00  0.00     0.083 A 
HETATM    7  C   UNL     1     -41.138  52.910 -53.431  1.00  0.00     0.034 A 
HETATM    8  C   UNL     1     -40.257  53.074 -54.505  1.00  0.00     0.002 A 
HETATM    9  C   UNL     1     -40.100  54.320 -55.116  1.00  0.00     0.002 A 
HETATM   10  C   UNL     1     -40.814  55.442 -54.678  1.00  0.00     0.033 A 
HETATM   11  N   UNL     1     -44.012  55.940 -51.033  1.00  0.00    -0.033 NA
HETATM   12  C   UNL     1     -44.250  57.199 -51.120  1.00  0.00     0.193 A 
HETATM   13  N   UNL     1     -43.679  58.051 -52.071  1.00  0.00    -0.339 N 
HETATM   14  H   UNL     1     -43.863  59.041 -52.050  1.00  0.00     0.164 HD
ENDROOT
BRANCH   1  15
HETATM   15  C   UNL     1     -43.336  57.856 -54.424  1.00  0.00    -0.014 A 
HETATM   16  C   UNL     1     -42.532  58.419 -55.428  1.00  0.00     0.033 A 
HETATM   17  C   UNL     1     -43.062  58.701 -56.693  1.00  0.00     0.044 A 
HETATM   18  C   UNL     1     -44.404  58.421 -56.991  1.00  0.00     0.085 A 
HETATM   19 BR   UNL     1     -41.892  59.456 -57.986  1.00  0.00    -0.048 Br
HETATM   20  C   UNL     1     -45.206  57.862 -55.992  1.00  0.00     0.039 A 
HETATM   21  C   UNL     1     -44.678  57.578 -54.726  1.00  0.00     0.014 A 
BRANCH  18  22
HETATM   22  O   UNL     1     -44.833  58.719 -58.255  1.00  0.00    -0.355 OA
HETATM   23  C   UNL     1     -45.161  57.640 -59.121  1.00  0.00     0.210 C 
ENDBRANCH  18  22
ENDBRANCH   1  15
BRANCH  12  24
HETATM   24  N   UNL     1     -45.087  57.845 -50.284  1.00  0.00    -0.272 NA
HETATM   25  H   UNL     1     -45.986  58.012 -50.733  1.00  0.00     0.127 HD
HETATM   26  H   UNL     1     -44.734  58.697 -49.867  1.00  0.00     0.127 HD
ENDBRANCH  12  24
TORSDOF 3
ENDMDL
MODEL 5
REMARK VINA RESULT:      -7.5      3.554      4.978
REMARK  3 active torsions:
REMARK  status: ('A' for Active; 'I' for Inactive)
REMARK    1  A    between atoms: O_2  and  C_3 
REMARK    2  A    between atoms: C_7  and  C_8 
REMARK    3  A    between atoms: C_19  and  N_20 
ROOT
HETATM    1  C   UNL     1     -43.426  55.434 -53.644  1.00  0.00     0.244 A 
HETATM    2  N   UNL     1     -42.262  54.578 -53.679  1.00  0.00    -0.151 N 
HETATM    3  C   UNL     1     -41.647  54.281 -54.869  1.00  0.00     0.734 A 
HETATM    4  N   UNL     1     -40.642  53.461 -54.653  1.00  0.00    -0.060 NA
HETATM    5  C   UNL     1     -40.639  53.199 -53.305  1.00  0.00     0.103 A 
HETATM    6  C   UNL     1     -41.663  53.887 -52.661  1.00  0.00     0.083 A 
HETATM    7  C   UNL     1     -39.787  52.372 -52.560  1.00  0.00     0.034 A 
HETATM    8  C   UNL     1     -39.996  52.261 -51.181  1.00  0.00     0.002 A 
HETATM    9  C   UNL     1     -41.032  52.959 -50.557  1.00  0.00     0.002 A 
HETATM   10  C   UNL     1     -41.893  53.790 -51.284  1.00  0.00     0.033 A 
HETATM   11  N   UNL     1     -42.059  54.786 -56.053  1.00  0.00    -0.033 NA
HETATM   12  C   UNL     1     -43.089  55.552 -56.082  1.00  0.00     0.193 A 
HETATM   13  N   UNL     1     -43.838  55.918 -54.959  1.00  0.00    -0.339 N 
HETATM   14  H   UNL     1     -44.670  56.477 -55.056  1.00  0.00     0.164 HD
ENDROOT
BRANCH   1  15
HETATM   15  C   UNL     1     -43.226  56.662 -52.776  1.00  0.00    -0.014 A 
HETATM   16  C   UNL     1     -41.952  57.216 -52.574  1.00  0.00     0.033 A 
HETATM   17  C   UNL     1     -41.791  58.379 -51.810  1.00  0.00     0.044 A 
HETATM   18  C   UNL     1     -42.898  59.023 -51.237  1.00  0.00     0.085 A 
HETATM   19 BR   UNL     1     -40.028  59.054 -51.599  1.00  0.00    -0.048 Br
HETATM   20  C   UNL     1     -44.167  58.472 -51.436  1.00  0.00     0.039 A 
HETATM   21  C   UNL     1     -44.331  57.310 -52.201  1.00  0.00     0.014 A 
BRANCH  18  22
HETATM   22  O   UNL     1     -42.649  60.159 -50.517  1.00  0.00    -0.355 OA
HETATM   23  C   UNL     1     -43.760  60.938 -50.092  1.00  0.00     0.210 C 
ENDBRANCH  18  22
ENDBRANCH   1  15
BRANCH  12  24
HETATM   24  N   UNL     1     -43.570  56.089 -57.221  1.00  0.00    -0.272 NA
HETATM   25  H   UNL     1     -43.047  55.751 -58.028  1.00  0.00     0.127 HD
HETATM   26  H   UNL     1     -43.645  57.098 -57.244  1.00  0.00     0.127 HD
ENDBRANCH  12  24
TORSDOF 3
ENDMDL
MODEL 6
REMARK VINA RESULT:      -7.4      3.345      5.921
REMARK  3 active torsions:
REMARK  status: ('A' for Active; 'I' for Inactive)
REMARK    1  A    between atoms: O_2  and  C_3 
REMARK    2  A    between atoms: C_7  and  C_8 
REMARK    3  A    between atoms: C_19  and  N_20 
ROOT
HETATM    1  C   UNL     1     -42.399  55.832 -51.826  1.00  0.00     0.244 A 
HETATM    2  N   UNL     1     -42.223  56.477 -53.106  1.00  0.00    -0.151 N 
HETATM    3  C   UNL     1     -41.773  57.771 -53.183  1.00  0.00     0.734 A 
HETATM    4  N   UNL     1     -41.732  58.149 -54.441  1.00  0.00    -0.060 NA
HETATM    5  C   UNL     1     -42.199  57.090 -55.180  1.00  0.00     0.103 A 
HETATM    6  C   UNL     1     -42.529  56.017 -54.359  1.00  0.00     0.083 A 
HETATM    7  C   UNL     1     -42.375  56.980 -56.567  1.00  0.00     0.034 A 
HETATM    8  C   UNL     1     -42.884  55.785 -57.085  1.00  0.00     0.002 A 
HETATM    9  C   UNL     1     -43.210  54.721 -56.241  1.00  0.00     0.002 A 
HETATM   10  C   UNL     1     -43.041  54.813 -54.854  1.00  0.00     0.033 A 
HETATM   11  N   UNL     1     -41.441  58.497 -52.092  1.00  0.00    -0.033 NA
HETATM   12  C   UNL     1     -41.578  57.974 -50.928  1.00  0.00     0.193 A 
HETATM   13  N   UNL     1     -42.053  56.680 -50.689  1.00  0.00    -0.339 N 
HETATM   14  H   UNL     1     -42.191  56.349 -49.748  1.00  0.00     0.164 HD
ENDROOT
BRANCH   1  15
HETATM   15  C   UNL     1     -41.572  54.567 -51.687  1.00  0.00    -0.014 A 
HETATM   16  C   UNL     1     -41.308  53.740 -52.790  1.00  0.00     0.033 A 
HETATM   17  C   UNL     1     -40.501  52.603 -52.654  1.00  0.00     0.044 A 
HETATM   18  C   UNL     1     -39.930  52.269 -51.418  1.00  0.00     0.085 A 
HETATM   19 BR   UNL     1     -40.199  51.551 -54.207  1.00  0.00    -0.048 Br
HETATM   20  C   UNL     1     -40.192  53.090 -50.317  1.00  0.00     0.039 A 
HETATM   21  C   UNL     1     -40.999  54.229 -50.451  1.00  0.00     0.014 A 
BRANCH  18  22
HETATM   22  O   UNL     1     -39.147  51.148 -51.380  1.00  0.00    -0.355 OA
HETATM   23  C   UNL     1     -39.681  49.978 -50.774  1.00  0.00     0.210 C 
ENDBRANCH  18  22
ENDBRANCH   1  15
BRANCH  12  24
HETATM   24  N   UNL     1     -41.278  58.632 -49.790  1.00  0.00    -0.272 NA
HETATM   25  H   UNL     1     -41.999  58.482 -49.087  1.00  0.00     0.127 HD
HETATM   26  H   UNL     1     -41.072  59.618 -49.884  1.00  0.00     0.127 HD
ENDBRANCH  12  24
TORSDOF 3
ENDMDL
MODEL 7
REMARK VINA RESULT:      -7.4      3.860      6.515
REMARK  3 active torsions:
REMARK  status: ('A' for Active; 'I' for Inactive)
REMARK    1  A    between atoms: O_2  and  C_3 
REMARK    2  A    between atoms: C_7  and  C_8 
REMARK    3  A    between atoms: C_19  and  N_20 
ROOT
HETATM    1  C   UNL     1     -43.703  55.395 -53.626  1.00  0.00     0.244 A 
HETATM    2  N   UNL     1     -43.411  56.547 -54.449  1.00  0.00    -0.151 N 
HETATM    3  C   UNL     1     -43.500  57.816 -53.935  1.00  0.00     0.734 A 
HETATM    4  N   UNL     1     -43.228  58.692 -54.876  1.00  0.00    -0.060 NA
HETATM    5  C   UNL     1     -42.997  57.972 -56.022  1.00  0.00     0.103 A 
HETATM    6  C   UNL     1     -43.116  56.607 -55.784  1.00  0.00     0.083 A 
HETATM    7  C   UNL     1     -42.684  58.425 -57.311  1.00  0.00     0.034 A 
HETATM    8  C   UNL     1     -42.504  57.481 -58.328  1.00  0.00     0.002 A 
HETATM    9  C   UNL     1     -42.630  56.115 -58.067  1.00  0.00     0.002 A 
HETATM   10  C   UNL     1     -42.941  55.645 -56.785  1.00  0.00     0.033 A 
HETATM   11  N   UNL     1     -43.826  58.063 -52.647  1.00  0.00    -0.033 NA
HETATM   12  C   UNL     1     -44.097  57.078 -51.870  1.00  0.00     0.193 A 
HETATM   13  N   UNL     1     -44.079  55.733 -52.256  1.00  0.00    -0.339 N 
HETATM   14  H   UNL     1     -44.357  55.010 -51.613  1.00  0.00     0.164 HD
ENDROOT
BRANCH   1  15
HETATM   15  C   UNL     1     -42.534  54.433 -53.527  1.00  0.00    -0.014 A 
HETATM   16  C   UNL     1     -41.750  54.351 -52.365  1.00  0.00     0.033 A 
HETATM   17  C   UNL     1     -40.706  53.422 -52.271  1.00  0.00     0.044 A 
HETATM   18  C   UNL     1     -40.424  52.547 -53.330  1.00  0.00     0.085 A 
HETATM   19 BR   UNL     1     -39.707  53.384 -50.656  1.00  0.00    -0.048 Br
HETATM   20  C   UNL     1     -41.202  52.627 -54.489  1.00  0.00     0.039 A 
HETATM   21  C   UNL     1     -42.248  53.555 -54.584  1.00  0.00     0.014 A 
BRANCH  18  22
HETATM   22  O   UNL     1     -39.394  51.665 -53.147  1.00  0.00    -0.355 OA
HETATM   23  C   UNL     1     -39.664  50.278 -53.311  1.00  0.00     0.210 C 
ENDBRANCH  18  22
ENDBRANCH   1  15
BRANCH  12  24
HETATM   24  N   UNL     1     -44.439  57.238 -50.576  1.00  0.00    -0.272 NA
HETATM   25  H   UNL     1     -43.914  58.004 -50.157  1.00  0.00     0.127 HD
HETATM   26  H   UNL     1     -44.388  56.412 -49.993  1.00  0.00     0.127 HD
ENDBRANCH  12  24
TORSDOF 3
ENDMDL
MODEL 8
REMARK VINA RESULT:      -7.4      4.256      5.526
REMARK  3 active torsions:
REMARK  status: ('A' for Active; 'I' for Inactive)
REMARK    1  A    between atoms: O_2  and  C_3 
REMARK    2  A    between atoms: C_7  and  C_8 
REMARK    3  A    between atoms: C_19  and  N_20 
ROOT
HETATM    1  C   UNL     1     -42.358  57.355 -55.159  1.00  0.00     0.244 A 
HETATM    2  N   UNL     1     -42.368  56.215 -54.271  1.00  0.00    -0.151 N 
HETATM    3  C   UNL     1     -43.204  56.181 -53.183  1.00  0.00     0.734 A 
HETATM    4  N   UNL     1     -43.006  55.069 -52.511  1.00  0.00    -0.060 NA
HETATM    5  C   UNL     1     -42.000  54.396 -53.160  1.00  0.00     0.103 A 
HETATM    6  C   UNL     1     -41.567  55.105 -54.276  1.00  0.00     0.083 A 
HETATM    7  C   UNL     1     -41.399  53.170 -52.843  1.00  0.00     0.034 A 
HETATM    8  C   UNL     1     -40.372  52.694 -53.665  1.00  0.00     0.002 A 
HETATM    9  C   UNL     1     -39.953  53.423 -54.780  1.00  0.00     0.002 A 
HETATM   10  C   UNL     1     -40.542  54.649 -55.112  1.00  0.00     0.033 A 
HETATM   11  N   UNL     1     -44.074  57.174 -52.898  1.00  0.00    -0.033 NA
HETATM   12  C   UNL     1     -44.109  58.213 -53.652  1.00  0.00     0.193 A 
HETATM   13  N   UNL     1     -43.298  58.405 -54.776  1.00  0.00    -0.339 N 
HETATM   14  H   UNL     1     -43.333  59.268 -55.293  1.00  0.00     0.164 HD
ENDROOT
BRANCH   1  15
HETATM   15  C   UNL     1     -42.686  56.986 -56.594  1.00  0.00    -0.014 A 
HETATM   16  C   UNL     1     -42.375  57.845 -57.660  1.00  0.00     0.033 A 
HETATM   17  C   UNL     1     -42.639  57.467 -58.983  1.00  0.00     0.044 A 
HETATM   18  C   UNL     1     -43.212  56.220 -59.274  1.00  0.00     0.085 A 
HETATM   19 BR   UNL     1     -42.176  58.695 -60.356  1.00  0.00    -0.048 Br
HETATM   20  C   UNL     1     -43.524  55.364 -58.214  1.00  0.00     0.039 A 
HETATM   21  C   UNL     1     -43.260  55.739 -56.890  1.00  0.00     0.014 A 
BRANCH  18  22
HETATM   22  O   UNL     1     -43.424  55.930 -60.594  1.00  0.00    -0.355 OA
HETATM   23  C   UNL     1     -44.692  55.405 -60.968  1.00  0.00     0.210 C 
ENDBRANCH  18  22
ENDBRANCH   1  15
BRANCH  12  24
HETATM   24  N   UNL     1     -44.941  59.250 -53.432  1.00  0.00    -0.272 NA
HETATM   25  H   UNL     1     -45.228  59.674 -54.313  1.00  0.00     0.127 HD
HETATM   26  H   UNL     1     -44.613  59.958 -52.787  1.00  0.00     0.127 HD
ENDBRANCH  12  24
TORSDOF 3
ENDMDL
MODEL 9
REMARK VINA RESULT:      -7.2      3.292      6.618
REMARK  3 active torsions:
REMARK  status: ('A' for Active; 'I' for Inactive)
REMARK    1  A    between atoms: O_2  and  C_3 
REMARK    2  A    between atoms: C_7  and  C_8 
REMARK    3  A    between atoms: C_19  and  N_20 
ROOT
HETATM    1  C   UNL     1     -41.769  57.392 -51.449  1.00  0.00     0.244 A 
HETATM    2  N   UNL     1     -42.149  58.163 -52.610  1.00  0.00    -0.151 N 
HETATM    3  C   UNL     1     -41.448  59.288 -52.964  1.00  0.00     0.734 A 
HETATM    4  N   UNL     1     -42.002  59.837 -54.023  1.00  0.00    -0.060 NA
HETATM    5  C   UNL     1     -43.099  59.070 -54.328  1.00  0.00     0.103 A 
HETATM    6  C   UNL     1     -43.225  58.006 -53.441  1.00  0.00     0.083 A 
HETATM    7  C   UNL     1     -44.042  59.232 -55.353  1.00  0.00     0.034 A 
HETATM    8  C   UNL     1     -45.091  58.312 -55.451  1.00  0.00     0.002 A 
HETATM    9  C   UNL     1     -45.198  57.251 -54.548  1.00  0.00     0.002 A 
HETATM   10  C   UNL     1     -44.266  57.073 -53.519  1.00  0.00     0.033 A 
HETATM   11  N   UNL     1     -40.361  59.717 -52.287  1.00  0.00    -0.033 NA
HETATM   12  C   UNL     1     -39.977  59.071 -51.246  1.00  0.00     0.193 A 
HETATM   13  N   UNL     1     -40.607  57.927 -50.744  1.00  0.00    -0.339 N 
HETATM   14  H   UNL     1     -40.291  57.499 -49.889  1.00  0.00     0.164 HD
ENDROOT
BRANCH   1  15
HETATM   15  C   UNL     1     -41.441  55.949 -51.784  1.00  0.00    -0.014 A 
HETATM   16  C   UNL     1     -41.043  55.570 -53.076  1.00  0.00     0.033 A 
HETATM   17  C   UNL     1     -40.696  54.242 -53.356  1.00  0.00     0.044 A 
HETATM   18  C   UNL     1     -40.730  53.262 -52.353  1.00  0.00     0.085 A 
HETATM   19 BR   UNL     1     -40.164  53.830 -55.133  1.00  0.00    -0.048 Br
HETATM   20  C   UNL     1     -41.128  53.637 -51.067  1.00  0.00     0.039 A 
HETATM   21  C   UNL     1     -41.474  54.965 -50.783  1.00  0.00     0.014 A 
BRANCH  18  22
HETATM   22  O   UNL     1     -40.364  51.994 -52.713  1.00  0.00    -0.355 OA
HETATM   23  C   UNL     1     -39.404  51.321 -51.909  1.00  0.00     0.210 C 
ENDBRANCH  18  22
ENDBRANCH   1  15
BRANCH  12  24
HETATM   24  N   UNL     1     -38.909  59.437 -50.509  1.00  0.00    -0.272 NA
HETATM   25  H   UNL     1     -38.254  58.662 -50.414  1.00  0.00     0.127 HD
HETATM   26  H   UNL     1     -39.107  59.846 -49.605  1.00  0.00     0.127 HD
ENDBRANCH  12  24
TORSDOF 3
ENDMDL
MODEL 10
REMARK VINA RESULT:      -7.2      3.192      4.345
REMARK  3 active torsions:
REMARK  status: ('A' for Active; 'I' for Inactive)
REMARK    1  A    between atoms: O_2  and  C_3 
REMARK    2  A    between atoms: C_7  and  C_8 
REMARK    3  A    between atoms: C_19  and  N_20 
ROOT
HETATM    1  C   UNL     1     -41.569  56.809 -51.153  1.00  0.00     0.244 A 
HETATM    2  N   UNL     1     -41.824  55.687 -52.027  1.00  0.00    -0.151 N 
HETATM    3  C   UNL     1     -41.772  54.402 -51.549  1.00  0.00     0.734 A 
HETATM    4  N   UNL     1     -41.999  53.558 -52.531  1.00  0.00    -0.060 NA
HETATM    5  C   UNL     1     -42.162  54.316 -53.665  1.00  0.00     0.103 A 
HETATM    6  C   UNL     1     -42.046  55.672 -53.377  1.00  0.00     0.083 A 
HETATM    7  C   UNL     1     -42.406  53.907 -54.983  1.00  0.00     0.034 A 
HETATM    8  C   UNL     1     -42.524  54.883 -55.978  1.00  0.00     0.002 A 
HETATM    9  C   UNL     1     -42.403  56.239 -55.666  1.00  0.00     0.002 A 
HETATM   10  C   UNL     1     -42.159  56.667 -54.355  1.00  0.00     0.033 A 
HETATM   11  N   UNL     1     -41.519  54.111 -50.254  1.00  0.00    -0.033 NA
HETATM   12  C   UNL     1     -41.284  55.069 -49.432  1.00  0.00     0.193 A 
HETATM   13  N   UNL     1     -41.271  56.425 -49.776  1.00  0.00    -0.339 N 
HETATM   14  H   UNL     1     -41.023  57.125 -49.096  1.00  0.00     0.164 HD
ENDROOT
BRANCH   1  15
HETATM   15  C   UNL     1     -42.735  57.779 -51.087  1.00  0.00    -0.014 A 
HETATM   16  C   UNL     1     -42.531  59.167 -51.036  1.00  0.00     0.033 A 
HETATM   17  C   UNL     1     -43.619  60.049 -51.025  1.00  0.00     0.044 A 
HETATM   18  C   UNL     1     -44.936  59.569 -51.074  1.00  0.00     0.085 A 
HETATM   19 BR   UNL     1     -43.239  61.910 -50.961  1.00  0.00    -0.048 Br
HETATM   20  C   UNL     1     -45.141  58.187 -51.124  1.00  0.00     0.039 A 
HETATM   21  C   UNL     1     -44.055  57.303 -51.135  1.00  0.00     0.014 A 
BRANCH  18  22
HETATM   22  O   UNL     1     -45.935  60.503 -51.072  1.00  0.00    -0.355 OA
HETATM   23  C   UNL     1     -46.643  60.728 -52.284  1.00  0.00     0.210 C 
ENDBRANCH  18  22
ENDBRANCH   1  15
BRANCH  12  24
HETATM   24  N   UNL     1     -41.015  54.865 -48.127  1.00  0.00    -0.272 NA
HETATM   25  H   UNL     1     -40.157  55.343 -47.858  1.00  0.00     0.127 HD
HETATM   26  H   UNL     1     -40.996  53.901 -47.819  1.00  0.00     0.127 HD
ENDBRANCH  12  24
TORSDOF 3
ENDMDL
