MODEL 1
REMARK VINA RESULT:      -7.4      0.000      0.000
REMARK  5 active torsions:
REMARK  status: ('A' for Active; 'I' for Inactive)
REMARK    1  A    between atoms: C_5  and  N_6 
REMARK       I    between atoms: N_6  and  C_7 
REMARK       I    between atoms: C_7  and  N_8 
REMARK    2  A    between atoms: N_8  and  C_9 
REMARK    3  A    between atoms: C_16  and  O_17 
REMARK    4  A    between atoms: O_17  and  C_18 
REMARK    5  A    between atoms: C_18  and  C_19 
ROOT
HETATM    1  C   UNL     1     -39.852  51.762 -52.290  1.00  0.00     0.026 A 
HETATM    2  C   UNL     1     -39.839  51.431 -53.645  1.00  0.00     0.036 A 
HETATM    3 CL   UNL     1     -39.349  49.851 -54.122  1.00  0.00    -0.084 Cl
HETATM    4  C   UNL     1     -40.202  52.367 -54.616  1.00  0.00     0.056 A 
HETATM    5  C   UNL     1     -40.592  53.651 -54.232  1.00  0.00     0.071 A 
HETATM    6  C   UNL     1     -40.621  53.972 -52.862  1.00  0.00     0.096 A 
HETATM    7  C   UNL     1     -40.239  53.041 -51.893  1.00  0.00     0.041 A 
ENDROOT
BRANCH   5   8
HETATM    8  N   UNL     1     -40.948  54.671 -55.141  1.00  0.00    -0.306 N 
HETATM    9  C   UNL     1     -42.147  54.822 -55.812  1.00  0.00     0.325 C 
HETATM   10  N   UNL     1     -42.069  55.867 -56.719  1.00  0.00    -0.306 N 
HETATM   11  O   UNL     1     -43.145  54.138 -55.625  1.00  0.00    -0.247 OA
HETATM   12  H   UNL     1     -41.164  56.256 -56.931  1.00  0.00     0.171 HD
HETATM   13  H   UNL     1     -40.298  55.446 -55.180  1.00  0.00     0.171 HD
BRANCH  10  14
HETATM   14  C   UNL     1     -43.135  56.320 -57.472  1.00  0.00     0.072 A 
HETATM   15  C   UNL     1     -43.601  55.955 -58.754  1.00  0.00     0.169 A 
HETATM   16  N   UNL     1     -44.692  56.642 -59.113  1.00  0.00    -0.185 NA
HETATM   17  N   UNL     1     -44.916  57.447 -58.064  1.00  0.00    -0.287 N 
HETATM   18  H   UNL     1     -45.708  58.080 -58.107  1.00  0.00     0.188 HD
HETATM   19  C   UNL     1     -44.013  57.290 -57.051  1.00  0.00     0.140 A 
ENDBRANCH  10  14
ENDBRANCH   5   8
BRANCH   6  20
HETATM   20  O   UNL     1     -40.996  55.245 -52.507  1.00  0.00    -0.340 OA
BRANCH  20  21
HETATM   21  C   UNL     1     -41.789  55.250 -51.303  1.00  0.00     0.293 C 
BRANCH  21  22
HETATM   22  C   UNL     1     -43.261  55.104 -51.654  1.00  0.00     0.408 C 
HETATM   23  F   UNL     1     -43.633  53.802 -51.662  1.00  0.00    -0.169 F 
HETATM   24  F   UNL     1     -44.035  55.747 -50.753  1.00  0.00    -0.169 F 
HETATM   25  F   UNL     1     -43.537  55.618 -52.872  1.00  0.00    -0.169 F 
ENDBRANCH  21  22
ENDBRANCH  20  21
ENDBRANCH   6  20
TORSDOF 5
ENDMDL
MODEL 2
REMARK VINA RESULT:      -7.3      3.258      4.177
REMARK  5 active torsions:
REMARK  status: ('A' for Active; 'I' for Inactive)
REMARK    1  A    between atoms: C_5  and  N_6 
REMARK       I    between atoms: N_6  and  C_7 
REMARK       I    between atoms: C_7  and  N_8 
REMARK    2  A    between atoms: N_8  and  C_9 
REMARK    3  A    between atoms: C_16  and  O_17 
REMARK    4  A    between atoms: O_17  and  C_18 
REMARK    5  A    between atoms: C_18  and  C_19 
ROOT
HETATM    1  C   UNL     1     -40.990  54.464 -51.286  1.00  0.00     0.026 A 
HETATM    2  C   UNL     1     -41.748  55.565 -51.687  1.00  0.00     0.036 A 
HETATM    3 CL   UNL     1     -42.002  56.860 -50.582  1.00  0.00    -0.084 Cl
HETATM    4  C   UNL     1     -42.313  55.620 -52.964  1.00  0.00     0.056 A 
HETATM    5  C   UNL     1     -42.115  54.567 -53.858  1.00  0.00     0.071 A 
HETATM    6  C   UNL     1     -41.333  53.469 -53.453  1.00  0.00     0.096 A 
HETATM    7  C   UNL     1     -40.785  53.405 -52.170  1.00  0.00     0.041 A 
ENDROOT
BRANCH   5   8
HETATM    8  N   UNL     1     -42.668  54.521 -55.156  1.00  0.00    -0.306 N 
HETATM    9  C   UNL     1     -42.612  55.498 -56.132  1.00  0.00     0.325 C 
HETATM   10  N   UNL     1     -43.389  55.142 -57.223  1.00  0.00    -0.306 N 
HETATM   11  O   UNL     1     -41.957  56.529 -56.054  1.00  0.00    -0.247 OA
HETATM   12  H   UNL     1     -44.027  54.368 -57.130  1.00  0.00     0.171 HD
HETATM   13  H   UNL     1     -43.013  53.612 -55.435  1.00  0.00     0.171 HD
BRANCH  10  14
HETATM   14  C   UNL     1     -43.460  55.871 -58.394  1.00  0.00     0.072 A 
HETATM   15  C   UNL     1     -42.752  55.763 -59.611  1.00  0.00     0.169 A 
HETATM   16  N   UNL     1     -43.144  56.674 -60.510  1.00  0.00    -0.185 NA
HETATM   17  N   UNL     1     -44.096  57.364 -59.864  1.00  0.00    -0.287 N 
HETATM   18  H   UNL     1     -44.549  58.128 -60.355  1.00  0.00     0.188 HD
HETATM   19  C   UNL     1     -44.327  56.919 -58.593  1.00  0.00     0.140 A 
ENDBRANCH  10  14
ENDBRANCH   5   8
BRANCH   6  20
HETATM   20  O   UNL     1     -41.161  52.438 -54.345  1.00  0.00    -0.340 OA
BRANCH  20  21
HETATM   21  C   UNL     1     -40.002  51.645 -54.024  1.00  0.00     0.293 C 
BRANCH  21  22
HETATM   22  C   UNL     1     -40.288  50.178 -54.302  1.00  0.00     0.408 C 
HETATM   23  F   UNL     1     -41.573  49.996 -54.688  1.00  0.00    -0.169 F 
HETATM   24  F   UNL     1     -39.493  49.712 -55.290  1.00  0.00    -0.169 F 
HETATM   25  F   UNL     1     -40.073  49.412 -53.210  1.00  0.00    -0.169 F 
ENDBRANCH  21  22
ENDBRANCH  20  21
ENDBRANCH   6  20
TORSDOF 5
ENDMDL
MODEL 3
REMARK VINA RESULT:      -7.3      1.518      1.765
REMARK  5 active torsions:
REMARK  status: ('A' for Active; 'I' for Inactive)
REMARK    1  A    between atoms: C_5  and  N_6 
REMARK       I    between atoms: N_6  and  C_7 
REMARK       I    between atoms: C_7  and  N_8 
REMARK    2  A    between atoms: N_8  and  C_9 
REMARK    3  A    between atoms: C_16  and  O_17 
REMARK    4  A    between atoms: O_17  and  C_18 
REMARK    5  A    between atoms: C_18  and  C_19 
ROOT
HETATM    1  C   UNL     1     -39.744  51.460 -52.331  1.00  0.00     0.026 A 
HETATM    2  C   UNL     1     -39.750  51.273 -53.714  1.00  0.00     0.036 A 
HETATM    3 CL   UNL     1     -39.259  49.755 -54.361  1.00  0.00    -0.084 Cl
HETATM    4  C   UNL     1     -40.134  52.303 -54.576  1.00  0.00     0.056 A 
HETATM    5  C   UNL     1     -40.524  53.537 -54.054  1.00  0.00     0.071 A 
HETATM    6  C   UNL     1     -40.533  53.712 -52.658  1.00  0.00     0.096 A 
HETATM    7  C   UNL     1     -40.131  52.688 -51.797  1.00  0.00     0.041 A 
ENDROOT
BRANCH   5   8
HETATM    8  N   UNL     1     -40.899  54.644 -54.845  1.00  0.00    -0.306 N 
HETATM    9  C   UNL     1     -42.061  54.802 -55.578  1.00  0.00     0.325 C 
HETATM   10  N   UNL     1     -42.007  55.963 -56.333  1.00  0.00    -0.306 N 
HETATM   11  O   UNL     1     -43.013  54.032 -55.556  1.00  0.00    -0.247 OA
HETATM   12  H   UNL     1     -41.124  56.439 -56.425  1.00  0.00     0.171 HD
HETATM   13  H   UNL     1     -40.311  55.460 -54.736  1.00  0.00     0.171 HD
BRANCH  10  14
HETATM   14  C   UNL     1     -43.055  56.440 -57.096  1.00  0.00     0.072 A 
HETATM   15  C   UNL     1     -43.447  56.169 -58.426  1.00  0.00     0.169 A 
HETATM   16  N   UNL     1     -44.547  56.843 -58.779  1.00  0.00    -0.185 NA
HETATM   17  N   UNL     1     -44.851  57.548 -57.679  1.00  0.00    -0.287 N 
HETATM   18  H   UNL     1     -45.664  58.154 -57.708  1.00  0.00     0.188 HD
HETATM   19  C   UNL     1     -43.989  57.338 -56.639  1.00  0.00     0.140 A 
ENDBRANCH  10  14
ENDBRANCH   5   8
BRANCH   6  20
HETATM   20  O   UNL     1     -40.910  54.939 -52.166  1.00  0.00    -0.340 OA
BRANCH  20  21
HETATM   21  C   UNL     1     -41.604  54.818 -50.909  1.00  0.00     0.293 C 
BRANCH  21  22
HETATM   22  C   UNL     1     -40.845  55.569 -49.826  1.00  0.00     0.408 C 
HETATM   23  F   UNL     1     -39.575  55.113 -49.716  1.00  0.00    -0.169 F 
HETATM   24  F   UNL     1     -40.784  56.889 -50.110  1.00  0.00    -0.169 F 
HETATM   25  F   UNL     1     -41.436  55.437 -48.619  1.00  0.00    -0.169 F 
ENDBRANCH  21  22
ENDBRANCH  20  21
ENDBRANCH   6  20
TORSDOF 5
ENDMDL
MODEL 4
REMARK VINA RESULT:      -7.0      2.580      2.969
REMARK  5 active torsions:
REMARK  status: ('A' for Active; 'I' for Inactive)
REMARK    1  A    between atoms: C_5  and  N_6 
REMARK       I    between atoms: N_6  and  C_7 
REMARK       I    between atoms: C_7  and  N_8 
REMARK    2  A    between atoms: N_8  and  C_9 
REMARK    3  A    between atoms: C_16  and  O_17 
REMARK    4  A    between atoms: O_17  and  C_18 
REMARK    5  A    between atoms: C_18  and  C_19 
ROOT
HETATM    1  C   UNL     1     -39.631  51.038 -52.349  1.00  0.00     0.026 A 
HETATM    2  C   UNL     1     -39.921  51.203 -53.704  1.00  0.00     0.036 A 
HETATM    3 CL   UNL     1     -39.704  49.877 -54.780  1.00  0.00    -0.084 Cl
HETATM    4  C   UNL     1     -40.368  52.431 -54.198  1.00  0.00     0.056 A 
HETATM    5  C   UNL     1     -40.537  53.509 -53.329  1.00  0.00     0.071 A 
HETATM    6  C   UNL     1     -40.261  53.330 -51.961  1.00  0.00     0.096 A 
HETATM    7  C   UNL     1     -39.796  52.108 -51.471  1.00  0.00     0.041 A 
ENDROOT
BRANCH   5   8
HETATM    8  N   UNL     1     -40.956  54.794 -53.739  1.00  0.00    -0.306 N 
HETATM    9  C   UNL     1     -42.252  55.258 -53.866  1.00  0.00     0.325 C 
HETATM   10  N   UNL     1     -42.263  56.525 -54.425  1.00  0.00    -0.306 N 
HETATM   11  O   UNL     1     -43.253  54.642 -53.523  1.00  0.00    -0.247 OA
HETATM   12  H   UNL     1     -41.414  56.880 -54.836  1.00  0.00     0.171 HD
HETATM   13  H   UNL     1     -40.215  55.480 -53.801  1.00  0.00     0.171 HD
BRANCH  10  14
HETATM   14  C   UNL     1     -43.403  57.289 -54.592  1.00  0.00     0.072 A 
HETATM   15  C   UNL     1     -44.278  57.442 -55.690  1.00  0.00     0.169 A 
HETATM   16  N   UNL     1     -45.285  58.282 -55.425  1.00  0.00    -0.185 NA
HETATM   17  N   UNL     1     -45.048  58.668 -54.162  1.00  0.00    -0.287 N 
HETATM   18  H   UNL     1     -45.692  59.325 -53.734  1.00  0.00     0.188 HD
HETATM   19  C   UNL     1     -43.934  58.097 -53.615  1.00  0.00     0.140 A 
ENDBRANCH  10  14
ENDBRANCH   5   8
BRANCH   6  20
HETATM   20  O   UNL     1     -40.423  54.409 -51.125  1.00  0.00    -0.340 OA
BRANCH  20  21
HETATM   21  C   UNL     1     -41.334  54.116 -50.047  1.00  0.00     0.293 C 
BRANCH  21  22
HETATM   22  C   UNL     1     -40.580  54.087 -48.728  1.00  0.00     0.408 C 
HETATM   23  F   UNL     1     -39.256  54.297 -48.918  1.00  0.00    -0.169 F 
HETATM   24  F   UNL     1     -41.032  55.050 -47.895  1.00  0.00    -0.169 F 
HETATM   25  F   UNL     1     -40.723  52.902 -48.097  1.00  0.00    -0.169 F 
ENDBRANCH  21  22
ENDBRANCH  20  21
ENDBRANCH   6  20
TORSDOF 5
ENDMDL
MODEL 5
REMARK VINA RESULT:      -6.7      1.893      2.091
REMARK  5 active torsions:
REMARK  status: ('A' for Active; 'I' for Inactive)
REMARK    1  A    between atoms: C_5  and  N_6 
REMARK       I    between atoms: N_6  and  C_7 
REMARK       I    between atoms: C_7  and  N_8 
REMARK    2  A    between atoms: N_8  and  C_9 
REMARK    3  A    between atoms: C_16  and  O_17 
REMARK    4  A    between atoms: O_17  and  C_18 
REMARK    5  A    between atoms: C_18  and  C_19 
ROOT
HETATM    1  C   UNL     1     -40.382  52.863 -52.158  1.00  0.00     0.026 A 
HETATM    2  C   UNL     1     -40.127  52.368 -53.437  1.00  0.00     0.036 A 
HETATM    3 CL   UNL     1     -39.425  50.805 -53.612  1.00  0.00    -0.084 Cl
HETATM    4  C   UNL     1     -40.418  53.129 -54.572  1.00  0.00     0.056 A 
HETATM    5  C   UNL     1     -40.979  54.398 -54.432  1.00  0.00     0.071 A 
HETATM    6  C   UNL     1     -41.252  54.883 -53.139  1.00  0.00     0.096 A 
HETATM    7  C   UNL     1     -40.943  54.130 -52.004  1.00  0.00     0.041 A 
ENDROOT
BRANCH   5   8
HETATM    8  N   UNL     1     -41.280  55.251 -55.516  1.00  0.00    -0.306 N 
HETATM    9  C   UNL     1     -42.348  55.160 -56.389  1.00  0.00     0.325 C 
HETATM   10  N   UNL     1     -42.229  56.095 -57.404  1.00  0.00    -0.306 N 
HETATM   11  O   UNL     1     -43.279  54.373 -56.276  1.00  0.00    -0.247 OA
HETATM   12  H   UNL     1     -41.352  56.577 -57.517  1.00  0.00     0.171 HD
HETATM   13  H   UNL     1     -40.727  56.097 -55.555  1.00  0.00     0.171 HD
BRANCH  10  14
HETATM   14  C   UNL     1     -43.187  56.310 -58.376  1.00  0.00     0.072 A 
HETATM   15  C   UNL     1     -43.384  55.727 -59.647  1.00  0.00     0.169 A 
HETATM   16  N   UNL     1     -44.459  56.220 -60.273  1.00  0.00    -0.185 NA
HETATM   17  N   UNL     1     -44.942  57.121 -59.404  1.00  0.00    -0.287 N 
HETATM   18  H   UNL     1     -45.774  57.640 -59.666  1.00  0.00     0.188 HD
HETATM   19  C   UNL     1     -44.219  57.210 -58.248  1.00  0.00     0.140 A 
ENDBRANCH  10  14
ENDBRANCH   5   8
BRANCH   6  20
HETATM   20  O   UNL     1     -41.793  56.141 -53.024  1.00  0.00    -0.340 OA
BRANCH  20  21
HETATM   21  C   UNL     1     -41.896  56.552 -51.647  1.00  0.00     0.293 C 
BRANCH  21  22
HETATM   22  C   UNL     1     -41.122  57.844 -51.436  1.00  0.00     0.408 C 
HETATM   23  F   UNL     1     -41.926  58.822 -50.957  1.00  0.00    -0.169 F 
HETATM   24  F   UNL     1     -40.120  57.664 -50.547  1.00  0.00    -0.169 F 
HETATM   25  F   UNL     1     -40.571  58.289 -52.586  1.00  0.00    -0.169 F 
ENDBRANCH  21  22
ENDBRANCH  20  21
ENDBRANCH   6  20
TORSDOF 5
ENDMDL
MODEL 6
REMARK VINA RESULT:      -6.3      4.057      5.305
REMARK  5 active torsions:
REMARK  status: ('A' for Active; 'I' for Inactive)
REMARK    1  A    between atoms: C_5  and  N_6 
REMARK       I    between atoms: N_6  and  C_7 
REMARK       I    between atoms: C_7  and  N_8 
REMARK    2  A    between atoms: N_8  and  C_9 
REMARK    3  A    between atoms: C_16  and  O_17 
REMARK    4  A    between atoms: O_17  and  C_18 
REMARK    5  A    between atoms: C_18  and  C_19 
ROOT
HETATM    1  C   UNL     1     -40.140  53.148 -50.320  1.00  0.00     0.026 A 
HETATM    2  C   UNL     1     -40.729  53.898 -49.301  1.00  0.00     0.036 A 
HETATM    3 CL   UNL     1     -40.080  53.812 -47.709  1.00  0.00    -0.084 Cl
HETATM    4  C   UNL     1     -41.844  54.700 -49.554  1.00  0.00     0.056 A 
HETATM    5  C   UNL     1     -42.377  54.764 -50.842  1.00  0.00     0.071 A 
HETATM    6  C   UNL     1     -41.765  54.021 -51.869  1.00  0.00     0.096 A 
HETATM    7  C   UNL     1     -40.662  53.204 -51.612  1.00  0.00     0.041 A 
ENDROOT
BRANCH   5   8
HETATM    8  N   UNL     1     -43.517  55.523 -51.187  1.00  0.00    -0.306 N 
HETATM    9  C   UNL     1     -43.613  56.898 -51.296  1.00  0.00     0.325 C 
HETATM   10  N   UNL     1     -44.927  57.277 -51.519  1.00  0.00    -0.306 N 
HETATM   11  O   UNL     1     -42.670  57.674 -51.220  1.00  0.00    -0.247 OA
HETATM   12  H   UNL     1     -45.656  56.594 -51.392  1.00  0.00     0.171 HD
HETATM   13  H   UNL     1     -44.298  54.979 -51.530  1.00  0.00     0.171 HD
BRANCH  10  14
HETATM   14  C   UNL     1     -45.327  58.577 -51.763  1.00  0.00     0.072 A 
HETATM   15  C   UNL     1     -45.245  59.383 -52.920  1.00  0.00     0.169 A 
HETATM   16  N   UNL     1     -45.772  60.599 -52.731  1.00  0.00    -0.185 NA
HETATM   17  N   UNL     1     -46.182  60.569 -51.454  1.00  0.00    -0.287 N 
HETATM   18  H   UNL     1     -46.621  61.401 -51.073  1.00  0.00     0.188 HD
HETATM   19  C   UNL     1     -45.943  59.377 -50.830  1.00  0.00     0.140 A 
ENDBRANCH  10  14
ENDBRANCH   5   8
BRANCH   6  20
HETATM   20  O   UNL     1     -42.313  54.089 -53.127  1.00  0.00    -0.340 OA
BRANCH  20  21
HETATM   21  C   UNL     1     -41.543  53.338 -54.085  1.00  0.00     0.293 C 
BRANCH  21  22
HETATM   22  C   UNL     1     -40.931  54.281 -55.109  1.00  0.00     0.408 C 
HETATM   23  F   UNL     1     -41.858  54.699 -56.002  1.00  0.00    -0.169 F 
HETATM   24  F   UNL     1     -40.419  55.377 -54.506  1.00  0.00    -0.169 F 
HETATM   25  F   UNL     1     -39.931  53.689 -55.798  1.00  0.00    -0.169 F 
ENDBRANCH  21  22
ENDBRANCH  20  21
ENDBRANCH   6  20
TORSDOF 5
ENDMDL
MODEL 7
REMARK VINA RESULT:      -6.3      3.390      4.616
REMARK  5 active torsions:
REMARK  status: ('A' for Active; 'I' for Inactive)
REMARK    1  A    between atoms: C_5  and  N_6 
REMARK       I    between atoms: N_6  and  C_7 
REMARK       I    between atoms: C_7  and  N_8 
REMARK    2  A    between atoms: N_8  and  C_9 
REMARK    3  A    between atoms: C_16  and  O_17 
REMARK    4  A    between atoms: O_17  and  C_18 
REMARK    5  A    between atoms: C_18  and  C_19 
ROOT
HETATM    1  C   UNL     1     -43.337  56.516 -51.082  1.00  0.00     0.026 A 
HETATM    2  C   UNL     1     -44.140  57.429 -51.768  1.00  0.00     0.036 A 
HETATM    3 CL   UNL     1     -44.867  58.728 -50.903  1.00  0.00    -0.084 Cl
HETATM    4  C   UNL     1     -44.372  57.291 -53.139  1.00  0.00     0.056 A 
HETATM    5  C   UNL     1     -43.790  56.234 -53.839  1.00  0.00     0.071 A 
HETATM    6  C   UNL     1     -42.966  55.329 -53.145  1.00  0.00     0.096 A 
HETATM    7  C   UNL     1     -42.750  55.456 -51.771  1.00  0.00     0.041 A 
ENDROOT
BRANCH   5   8
HETATM    8  N   UNL     1     -43.989  55.998 -55.217  1.00  0.00    -0.306 N 
HETATM    9  C   UNL     1     -43.499  56.734 -56.279  1.00  0.00     0.325 C 
HETATM   10  N   UNL     1     -44.022  56.272 -57.475  1.00  0.00    -0.306 N 
HETATM   11  O   UNL     1     -42.704  57.660 -56.181  1.00  0.00    -0.247 OA
HETATM   12  H   UNL     1     -44.797  55.629 -57.448  1.00  0.00     0.171 HD
HETATM   13  H   UNL     1     -44.416  55.106 -55.435  1.00  0.00     0.171 HD
BRANCH  10  14
HETATM   14  C   UNL     1     -43.650  56.746 -58.718  1.00  0.00     0.072 A 
HETATM   15  C   UNL     1     -42.511  56.499 -59.515  1.00  0.00     0.169 A 
HETATM   16  N   UNL     1     -42.549  57.160 -60.678  1.00  0.00    -0.185 NA
HETATM   17  N   UNL     1     -43.708  57.833 -60.618  1.00  0.00    -0.287 N 
HETATM   18  H   UNL     1     -43.959  58.423 -61.405  1.00  0.00     0.188 HD
HETATM   19  C   UNL     1     -44.409  57.615 -59.466  1.00  0.00     0.140 A 
ENDBRANCH  10  14
ENDBRANCH   5   8
BRANCH   6  20
HETATM   20  O   UNL     1     -42.413  54.289 -53.852  1.00  0.00    -0.340 OA
BRANCH  20  21
HETATM   21  C   UNL     1     -41.519  53.507 -53.036  1.00  0.00     0.293 C 
BRANCH  21  22
HETATM   22  C   UNL     1     -40.606  52.676 -53.923  1.00  0.00     0.408 C 
HETATM   23  F   UNL     1     -40.114  53.415 -54.945  1.00  0.00    -0.169 F 
HETATM   24  F   UNL     1     -39.556  52.199 -53.219  1.00  0.00    -0.169 F 
HETATM   25  F   UNL     1     -41.255  51.617 -54.456  1.00  0.00    -0.169 F 
ENDBRANCH  21  22
ENDBRANCH  20  21
ENDBRANCH   6  20
TORSDOF 5
ENDMDL
MODEL 8
REMARK VINA RESULT:      -6.3      1.821      2.310
REMARK  5 active torsions:
REMARK  status: ('A' for Active; 'I' for Inactive)
REMARK    1  A    between atoms: C_5  and  N_6 
REMARK       I    between atoms: N_6  and  C_7 
REMARK       I    between atoms: C_7  and  N_8 
REMARK    2  A    between atoms: N_8  and  C_9 
REMARK    3  A    between atoms: C_16  and  O_17 
REMARK    4  A    between atoms: O_17  and  C_18 
REMARK    5  A    between atoms: C_18  and  C_19 
ROOT
HETATM    1  C   UNL     1     -40.816  53.411 -51.856  1.00  0.00     0.026 A 
HETATM    2  C   UNL     1     -40.477  52.693 -53.003  1.00  0.00     0.036 A 
HETATM    3 CL   UNL     1     -39.212  51.529 -52.925  1.00  0.00    -0.084 Cl
HETATM    4  C   UNL     1     -41.140  52.918 -54.212  1.00  0.00     0.056 A 
HETATM    5  C   UNL     1     -42.160  53.867 -54.279  1.00  0.00     0.071 A 
HETATM    6  C   UNL     1     -42.510  54.574 -53.113  1.00  0.00     0.096 A 
HETATM    7  C   UNL     1     -41.834  54.362 -51.910  1.00  0.00     0.041 A 
ENDROOT
BRANCH   5   8
HETATM    8  N   UNL     1     -42.866  54.184 -55.461  1.00  0.00    -0.306 N 
HETATM    9  C   UNL     1     -42.638  55.241 -56.322  1.00  0.00     0.325 C 
HETATM   10  N   UNL     1     -43.622  55.298 -57.295  1.00  0.00    -0.306 N 
HETATM   11  O   UNL     1     -41.692  56.015 -56.245  1.00  0.00    -0.247 OA
HETATM   12  H   UNL     1     -44.450  54.736 -57.178  1.00  0.00     0.171 HD
HETATM   13  H   UNL     1     -43.508  53.467 -55.774  1.00  0.00     0.171 HD
BRANCH  10  14
HETATM   14  C   UNL     1     -43.617  56.188 -58.351  1.00  0.00     0.072 A 
HETATM   15  C   UNL     1     -44.173  57.479 -58.494  1.00  0.00     0.169 A 
HETATM   16  N   UNL     1     -43.921  58.011 -59.696  1.00  0.00    -0.185 NA
HETATM   17  N   UNL     1     -43.212  57.058 -60.319  1.00  0.00    -0.287 N 
HETATM   18  H   UNL     1     -42.903  57.235 -61.269  1.00  0.00     0.188 HD
HETATM   19  C   UNL     1     -42.997  55.946 -59.554  1.00  0.00     0.140 A 
ENDBRANCH  10  14
ENDBRANCH   5   8
BRANCH   6  20
HETATM   20  O   UNL     1     -43.510  55.512 -53.205  1.00  0.00    -0.340 OA
BRANCH  20  21
HETATM   21  C   UNL     1     -43.021  56.839 -52.929  1.00  0.00     0.293 C 
BRANCH  21  22
HETATM   22  C   UNL     1     -43.870  57.487 -51.847  1.00  0.00     0.408 C 
HETATM   23  F   UNL     1     -43.493  58.770 -51.635  1.00  0.00    -0.169 F 
HETATM   24  F   UNL     1     -45.174  57.494 -52.199  1.00  0.00    -0.169 F 
HETATM   25  F   UNL     1     -43.767  56.828 -50.672  1.00  0.00    -0.169 F 
ENDBRANCH  21  22
ENDBRANCH  20  21
ENDBRANCH   6  20
TORSDOF 5
ENDMDL
MODEL 9
REMARK VINA RESULT:      -6.0     14.674     17.214
REMARK  5 active torsions:
REMARK  status: ('A' for Active; 'I' for Inactive)
REMARK    1  A    between atoms: C_5  and  N_6 
REMARK       I    between atoms: N_6  and  C_7 
REMARK       I    between atoms: C_7  and  N_8 
REMARK    2  A    between atoms: N_8  and  C_9 
REMARK    3  A    between atoms: C_16  and  O_17 
REMARK    4  A    between atoms: O_17  and  C_18 
REMARK    5  A    between atoms: C_18  and  C_19 
ROOT
HETATM    1  C   UNL     1     -37.568  41.977 -56.528  1.00  0.00     0.026 A 
HETATM    2  C   UNL     1     -36.587  42.034 -57.518  1.00  0.00     0.036 A 
HETATM    3 CL   UNL     1     -37.034  42.462 -59.124  1.00  0.00    -0.084 Cl
HETATM    4  C   UNL     1     -35.254  41.733 -57.225  1.00  0.00     0.056 A 
HETATM    5  C   UNL     1     -34.891  41.378 -55.926  1.00  0.00     0.071 A 
HETATM    6  C   UNL     1     -35.883  41.341 -54.928  1.00  0.00     0.096 A 
HETATM    7  C   UNL     1     -37.218  41.623 -55.226  1.00  0.00     0.041 A 
ENDROOT
BRANCH   5   8
HETATM    8  N   UNL     1     -33.578  41.030 -55.541  1.00  0.00    -0.306 N 
HETATM    9  C   UNL     1     -32.878  39.884 -55.871  1.00  0.00     0.325 C 
HETATM   10  N   UNL     1     -31.671  39.839 -55.194  1.00  0.00    -0.306 N 
HETATM   11  O   UNL     1     -33.264  39.030 -56.660  1.00  0.00    -0.247 OA
HETATM   12  H   UNL     1     -31.515  40.487 -54.439  1.00  0.00     0.171 HD
HETATM   13  H   UNL     1     -33.055  41.776 -55.101  1.00  0.00     0.171 HD
BRANCH  10  14
HETATM   14  C   UNL     1     -30.711  38.863 -55.384  1.00  0.00     0.072 A 
HETATM   15  C   UNL     1     -29.636  38.770 -56.295  1.00  0.00     0.169 A 
HETATM   16  N   UNL     1     -28.928  37.646 -56.132  1.00  0.00    -0.185 NA
HETATM   17  N   UNL     1     -29.556  37.021 -55.125  1.00  0.00    -0.287 N 
HETATM   18  H   UNL     1     -29.195  36.124 -54.818  1.00  0.00     0.188 HD
HETATM   19  C   UNL     1     -30.629  37.712 -54.637  1.00  0.00     0.140 A 
ENDBRANCH  10  14
ENDBRANCH   5   8
BRANCH   6  20
HETATM   20  O   UNL     1     -35.506  40.977 -53.658  1.00  0.00    -0.340 OA
BRANCH  20  21
HETATM   21  C   UNL     1     -35.751  42.032 -52.707  1.00  0.00     0.293 C 
BRANCH  21  22
HETATM   22  C   UNL     1     -34.758  41.933 -51.560  1.00  0.00     0.408 C 
HETATM   23  F   UNL     1     -33.637  41.276 -51.941  1.00  0.00    -0.169 F 
HETATM   24  F   UNL     1     -34.390  43.162 -51.136  1.00  0.00    -0.169 F 
HETATM   25  F   UNL     1     -35.281  41.276 -50.502  1.00  0.00    -0.169 F 
ENDBRANCH  21  22
ENDBRANCH  20  21
ENDBRANCH   6  20
TORSDOF 5
ENDMDL
MODEL 10
REMARK VINA RESULT:      -6.0      3.889      5.185
REMARK  5 active torsions:
REMARK  status: ('A' for Active; 'I' for Inactive)
REMARK    1  A    between atoms: C_5  and  N_6 
REMARK       I    between atoms: N_6  and  C_7 
REMARK       I    between atoms: C_7  and  N_8 
REMARK    2  A    between atoms: N_8  and  C_9 
REMARK    3  A    between atoms: C_16  and  O_17 
REMARK    4  A    between atoms: O_17  and  C_18 
REMARK    5  A    between atoms: C_18  and  C_19 
ROOT
HETATM    1  C   UNL     1     -40.312  52.999 -54.168  1.00  0.00     0.026 A 
HETATM    2  C   UNL     1     -40.369  53.298 -52.806  1.00  0.00     0.036 A 
HETATM    3 CL   UNL     1     -39.844  52.124 -51.662  1.00  0.00    -0.084 Cl
HETATM    4  C   UNL     1     -40.859  54.529 -52.362  1.00  0.00     0.056 A 
HETATM    5  C   UNL     1     -41.292  55.479 -53.288  1.00  0.00     0.071 A 
HETATM    6  C   UNL     1     -41.214  55.177 -54.660  1.00  0.00     0.096 A 
HETATM    7  C   UNL     1     -40.742  53.939 -55.102  1.00  0.00     0.041 A 
ENDROOT
BRANCH   5   8
HETATM    8  N   UNL     1     -41.829  56.736 -52.934  1.00  0.00    -0.306 N 
HETATM    9  C   UNL     1     -43.140  57.034 -52.613  1.00  0.00     0.325 C 
HETATM   10  N   UNL     1     -43.306  58.400 -52.457  1.00  0.00    -0.306 N 
HETATM   11  O   UNL     1     -44.032  56.206 -52.473  1.00  0.00    -0.247 OA
HETATM   12  H   UNL     1     -42.567  59.014 -52.761  1.00  0.00     0.171 HD
HETATM   13  H   UNL     1     -41.139  57.455 -52.759  1.00  0.00     0.171 HD
BRANCH  10  14
HETATM   14  C   UNL     1     -44.482  58.996 -52.044  1.00  0.00     0.072 A 
HETATM   15  C   UNL     1     -45.130  59.025 -50.790  1.00  0.00     0.169 A 
HETATM   16  N   UNL     1     -46.261  59.740 -50.818  1.00  0.00    -0.185 NA
HETATM   17  N   UNL     1     -46.336  60.159 -52.090  1.00  0.00    -0.287 N 
HETATM   18  H   UNL     1     -47.132  60.729 -52.360  1.00  0.00     0.188 HD
HETATM   19  C   UNL     1     -45.291  59.745 -52.866  1.00  0.00     0.140 A 
ENDBRANCH  10  14
ENDBRANCH   5   8
BRANCH   6  20
HETATM   20  O   UNL     1     -41.658  56.123 -55.553  1.00  0.00    -0.340 OA
BRANCH  20  21
HETATM   21  C   UNL     1     -42.760  55.634 -56.342  1.00  0.00     0.293 C 
BRANCH  21  22
HETATM   22  C   UNL     1     -42.893  56.461 -57.611  1.00  0.00     0.408 C 
HETATM   23  F   UNL     1     -42.670  55.704 -58.712  1.00  0.00    -0.169 F 
HETATM   24  F   UNL     1     -44.134  56.983 -57.716  1.00  0.00    -0.169 F 
HETATM   25  F   UNL     1     -42.015  57.487 -57.632  1.00  0.00    -0.169 F 
ENDBRANCH  21  22
ENDBRANCH  20  21
ENDBRANCH   6  20
TORSDOF 5
ENDMDL
