MODEL 1
REMARK VINA RESULT:      -7.7      0.000      0.000
REMARK  7 active torsions:
REMARK  status: ('A' for Active; 'I' for Inactive)
REMARK    1  A    between atoms: C_2  and  C_3 
REMARK    2  A    between atoms: C_3  and  C_4 
REMARK    3  A    between atoms: C_8  and  C_9 
REMARK       I    between atoms: C_9  and  N_10 
REMARK    4  A    between atoms: N_10  and  C_11 
REMARK    5  A    between atoms: C_11  and  C_12 
REMARK    6  A    between atoms: C_12  and  N_13 
REMARK    7  A    between atoms: C_16  and  C_17 
ROOT
HETATM    1  C   UNL     1     -42.121  57.975 -52.789  1.00  0.00     0.150 C 
ENDROOT
BRANCH   1   2
HETATM    2  N   UNL     1     -42.064  57.300 -54.076  1.00  0.00    -0.354 N 
HETATM    3  C   UNL     1     -43.202  57.184 -54.861  1.00  0.00     0.272 C 
HETATM    4  O   UNL     1     -44.329  57.184 -54.378  1.00  0.00    -0.266 OA
HETATM    5  H   UNL     1     -41.232  57.432 -54.657  1.00  0.00     0.162 HD
BRANCH   3   6
HETATM    6  C   UNL     1     -42.913  57.074 -56.295  1.00  0.00     0.146 A 
HETATM    7  N   UNL     1     -42.238  58.047 -56.942  1.00  0.00    -0.169 NA
HETATM    8  N   UNL     1     -42.205  57.623 -58.221  1.00  0.00    -0.282 N 
HETATM    9  C   UNL     1     -42.854  56.436 -58.422  1.00  0.00     0.030 A 
HETATM   10  H   UNL     1     -41.740  58.203 -58.914  1.00  0.00     0.189 HD
HETATM   11  C   UNL     1     -43.301  56.041 -57.180  1.00  0.00     0.065 A 
BRANCH   9  12
HETATM   12  C   UNL     1     -42.995  55.819 -59.771  1.00  0.00     0.058 C 
BRANCH  12  13
HETATM   13  C   UNL     1     -44.182  54.856 -59.818  1.00  0.00     0.002 C 
HETATM   14  C   UNL     1     -44.981  55.012 -61.102  1.00  0.00     0.005 C 
ENDBRANCH  12  13
ENDBRANCH   9  12
ENDBRANCH   3   6
ENDBRANCH   1   2
BRANCH   1  15
HETATM   15  C   UNL     1     -41.270  57.316 -51.688  1.00  0.00     0.254 C 
BRANCH  15  16
HETATM   16  N   UNL     1     -42.170  56.789 -50.583  1.00  0.00    -0.069 N 
HETATM   17  H   UNL     1     -42.156  57.528 -49.863  1.00  0.00     0.280 HD
HETATM   18  C   UNL     1     -41.655  55.511 -49.950  1.00  0.00     0.244 C 
HETATM   19  C   UNL     1     -42.526  54.395 -50.541  1.00  0.00     0.046 C 
HETATM   20  C   UNL     1     -43.887  55.098 -50.580  1.00  0.00     0.039 C 
HETATM   21  C   UNL     1     -43.595  56.528 -51.008  1.00  0.00     0.235 C 
BRANCH  19  22
HETATM   22  C   UNL     1     -41.951  53.851 -51.846  1.00  0.00    -0.046 A 
HETATM   23  C   UNL     1     -40.755  53.087 -51.846  1.00  0.00    -0.055 A 
HETATM   24  C   UNL     1     -40.010  52.700 -50.592  1.00  0.00     0.049 C 
HETATM   25  C   UNL     1     -40.192  52.673 -53.068  1.00  0.00     0.007 A 
HETATM   26  C   UNL     1     -40.815  52.952 -54.279  1.00  0.00     0.001 A 
HETATM   27  C   UNL     1     -42.019  53.641 -54.286  1.00  0.00     0.001 A 
HETATM   28  C   UNL     1     -42.583  54.077 -53.085  1.00  0.00     0.008 A 
ENDBRANCH  19  22
ENDBRANCH  15  16
ENDBRANCH   1  15
TORSDOF 7
ENDMDL
MODEL 2
REMARK VINA RESULT:      -7.2      1.258      1.642
REMARK  7 active torsions:
REMARK  status: ('A' for Active; 'I' for Inactive)
REMARK    1  A    between atoms: C_2  and  C_3 
REMARK    2  A    between atoms: C_3  and  C_4 
REMARK    3  A    between atoms: C_8  and  C_9 
REMARK       I    between atoms: C_9  and  N_10 
REMARK    4  A    between atoms: N_10  and  C_11 
REMARK    5  A    between atoms: C_11  and  C_12 
REMARK    6  A    between atoms: C_12  and  N_13 
REMARK    7  A    between atoms: C_16  and  C_17 
ROOT
HETATM    1  C   UNL     1     -42.654  57.929 -52.942  1.00  0.00     0.150 C 
ENDROOT
BRANCH   1   2
HETATM    2  N   UNL     1     -42.566  57.241 -54.220  1.00  0.00    -0.354 N 
HETATM    3  C   UNL     1     -43.708  57.001 -54.970  1.00  0.00     0.272 C 
HETATM    4  O   UNL     1     -44.816  56.898 -54.454  1.00  0.00    -0.266 OA
HETATM    5  H   UNL     1     -41.767  57.445 -54.827  1.00  0.00     0.162 HD
BRANCH   3   6
HETATM    6  C   UNL     1     -43.449  56.896 -56.410  1.00  0.00     0.146 A 
HETATM    7  N   UNL     1     -42.615  55.954 -56.898  1.00  0.00    -0.169 NA
HETATM    8  N   UNL     1     -42.595  56.194 -58.224  1.00  0.00    -0.282 N 
HETATM    9  C   UNL     1     -43.359  57.265 -58.598  1.00  0.00     0.030 A 
HETATM   10  H   UNL     1     -42.022  55.601 -58.817  1.00  0.00     0.189 HD
HETATM   11  C   UNL     1     -43.948  57.725 -57.442  1.00  0.00     0.065 A 
BRANCH   9  12
HETATM   12  C   UNL     1     -43.427  57.745 -60.008  1.00  0.00     0.058 C 
BRANCH  12  13
HETATM   13  C   UNL     1     -42.111  58.397 -60.434  1.00  0.00     0.002 C 
HETATM   14  C   UNL     1     -42.071  59.872 -60.064  1.00  0.00     0.005 C 
ENDBRANCH  12  13
ENDBRANCH   9  12
ENDBRANCH   3   6
ENDBRANCH   1   2
BRANCH   1  15
HETATM   15  C   UNL     1     -41.687  57.400 -51.868  1.00  0.00     0.254 C 
BRANCH  15  16
HETATM   16  N   UNL     1     -42.471  56.845 -50.691  1.00  0.00    -0.069 N 
HETATM   17  H   UNL     1     -42.515  57.625 -50.017  1.00  0.00     0.280 HD
HETATM   18  C   UNL     1     -41.783  55.678 -50.009  1.00  0.00     0.244 C 
HETATM   19  C   UNL     1     -42.540  54.433 -50.491  1.00  0.00     0.046 C 
HETATM   20  C   UNL     1     -43.974  54.970 -50.505  1.00  0.00     0.039 C 
HETATM   21  C   UNL     1     -43.872  56.395 -51.030  1.00  0.00     0.235 C 
BRANCH  19  22
HETATM   22  C   UNL     1     -41.959  53.876 -51.788  1.00  0.00    -0.046 A 
HETATM   23  C   UNL     1     -40.739  53.151 -51.781  1.00  0.00    -0.055 A 
HETATM   24  C   UNL     1     -39.971  52.818 -50.525  1.00  0.00     0.049 C 
HETATM   25  C   UNL     1     -40.174  52.726 -52.998  1.00  0.00     0.007 A 
HETATM   26  C   UNL     1     -40.816  52.956 -54.209  1.00  0.00     0.001 A 
HETATM   27  C   UNL     1     -42.042  53.605 -54.222  1.00  0.00     0.001 A 
HETATM   28  C   UNL     1     -42.609  54.053 -53.025  1.00  0.00     0.008 A 
ENDBRANCH  19  22
ENDBRANCH  15  16
ENDBRANCH   1  15
TORSDOF 7
ENDMDL
MODEL 3
REMARK VINA RESULT:      -7.2      1.913      2.199
REMARK  7 active torsions:
REMARK  status: ('A' for Active; 'I' for Inactive)
REMARK    1  A    between atoms: C_2  and  C_3 
REMARK    2  A    between atoms: C_3  and  C_4 
REMARK    3  A    between atoms: C_8  and  C_9 
REMARK       I    between atoms: C_9  and  N_10 
REMARK    4  A    between atoms: N_10  and  C_11 
REMARK    5  A    between atoms: C_11  and  C_12 
REMARK    6  A    between atoms: C_12  and  N_13 
REMARK    7  A    between atoms: C_16  and  C_17 
ROOT
HETATM    1  C   UNL     1     -41.765  58.550 -51.181  1.00  0.00     0.150 C 
ENDROOT
BRANCH   1   2
HETATM    2  N   UNL     1     -42.149  59.011 -52.507  1.00  0.00    -0.354 N 
HETATM    3  C   UNL     1     -41.202  59.125 -53.513  1.00  0.00     0.272 C 
HETATM    4  O   UNL     1     -40.014  59.318 -53.272  1.00  0.00    -0.266 OA
HETATM    5  H   UNL     1     -43.049  58.704 -52.885  1.00  0.00     0.162 HD
BRANCH   3   6
HETATM    6  C   UNL     1     -41.763  58.983 -54.861  1.00  0.00     0.146 A 
HETATM    7  N   UNL     1     -41.756  60.018 -55.727  1.00  0.00    -0.169 NA
HETATM    8  N   UNL     1     -42.381  59.531 -56.818  1.00  0.00    -0.282 N 
HETATM    9  C   UNL     1     -42.810  58.241 -56.673  1.00  0.00     0.030 A 
HETATM   10  H   UNL     1     -42.501  60.140 -57.622  1.00  0.00     0.189 HD
HETATM   11  C   UNL     1     -42.397  57.848 -55.419  1.00  0.00     0.065 A 
BRANCH   9  12
HETATM   12  C   UNL     1     -43.582  57.531 -57.733  1.00  0.00     0.058 C 
BRANCH  12  13
HETATM   13  C   UNL     1     -45.048  57.964 -57.733  1.00  0.00     0.002 C 
HETATM   14  C   UNL     1     -45.357  58.897 -58.894  1.00  0.00     0.005 C 
ENDBRANCH  12  13
ENDBRANCH   9  12
ENDBRANCH   3   6
ENDBRANCH   1   2
BRANCH   1  15
HETATM   15  C   UNL     1     -41.299  57.084 -51.130  1.00  0.00     0.254 C 
BRANCH  15  16
HETATM   16  N   UNL     1     -42.225  56.276 -50.235  1.00  0.00    -0.069 N 
HETATM   17  H   UNL     1     -42.257  56.805 -49.350  1.00  0.00     0.280 HD
HETATM   18  C   UNL     1     -41.700  54.886 -49.930  1.00  0.00     0.244 C 
HETATM   19  C   UNL     1     -42.519  53.946 -50.824  1.00  0.00     0.046 C 
HETATM   20  C   UNL     1     -43.895  54.614 -50.740  1.00  0.00     0.039 C 
HETATM   21  C   UNL     1     -43.625  56.111 -50.773  1.00  0.00     0.235 C 
BRANCH  19  22
HETATM   22  C   UNL     1     -41.882  53.765 -52.200  1.00  0.00    -0.046 A 
HETATM   23  C   UNL     1     -40.687  53.014 -52.349  1.00  0.00    -0.055 A 
HETATM   24  C   UNL     1     -40.003  52.295 -51.213  1.00  0.00     0.049 C 
HETATM   25  C   UNL     1     -40.066  52.936 -53.610  1.00  0.00     0.007 A 
HETATM   26  C   UNL     1     -40.630  53.539 -54.729  1.00  0.00     0.001 A 
HETATM   27  C   UNL     1     -41.832  54.219 -54.607  1.00  0.00     0.001 A 
HETATM   28  C   UNL     1     -42.453  54.324 -53.359  1.00  0.00     0.008 A 
ENDBRANCH  19  22
ENDBRANCH  15  16
ENDBRANCH   1  15
TORSDOF 7
ENDMDL
MODEL 4
REMARK VINA RESULT:      -7.1      1.651      2.978
REMARK  7 active torsions:
REMARK  status: ('A' for Active; 'I' for Inactive)
REMARK    1  A    between atoms: C_2  and  C_3 
REMARK    2  A    between atoms: C_3  and  C_4 
REMARK    3  A    between atoms: C_8  and  C_9 
REMARK       I    between atoms: C_9  and  N_10 
REMARK    4  A    between atoms: N_10  and  C_11 
REMARK    5  A    between atoms: C_11  and  C_12 
REMARK    6  A    between atoms: C_12  and  N_13 
REMARK    7  A    between atoms: C_16  and  C_17 
ROOT
HETATM    1  C   UNL     1     -42.278  58.145 -54.332  1.00  0.00     0.150 C 
ENDROOT
BRANCH   1   2
HETATM    2  N   UNL     1     -42.903  57.807 -55.602  1.00  0.00    -0.354 N 
HETATM    3  C   UNL     1     -42.360  58.259 -56.796  1.00  0.00     0.272 C 
HETATM    4  O   UNL     1     -41.686  59.282 -56.859  1.00  0.00    -0.266 OA
HETATM    5  H   UNL     1     -43.300  56.870 -55.712  1.00  0.00     0.162 HD
BRANCH   3   6
HETATM    6  C   UNL     1     -42.666  57.394 -57.939  1.00  0.00     0.146 A 
HETATM    7  N   UNL     1     -42.257  57.718 -59.184  1.00  0.00    -0.169 NA
HETATM    8  N   UNL     1     -42.751  56.731 -59.956  1.00  0.00    -0.282 N 
HETATM    9  C   UNL     1     -43.481  55.806 -59.262  1.00  0.00     0.030 A 
HETATM   10  H   UNL     1     -42.572  56.759 -60.956  1.00  0.00     0.189 HD
HETATM   11  C   UNL     1     -43.420  56.196 -57.942  1.00  0.00     0.065 A 
BRANCH   9  12
HETATM   12  C   UNL     1     -44.172  54.666 -59.930  1.00  0.00     0.058 C 
BRANCH  12  13
HETATM   13  C   UNL     1     -45.113  55.159 -61.031  1.00  0.00     0.002 C 
HETATM   14  C   UNL     1     -46.275  55.957 -60.460  1.00  0.00     0.005 C 
ENDBRANCH  12  13
ENDBRANCH   9  12
ENDBRANCH   3   6
ENDBRANCH   1   2
BRANCH   1  15
HETATM   15  C   UNL     1     -41.749  56.935 -53.543  1.00  0.00     0.254 C 
BRANCH  15  16
HETATM   16  N   UNL     1     -41.767  55.694 -54.421  1.00  0.00    -0.069 N 
HETATM   17  H   UNL     1     -42.177  56.014 -55.312  1.00  0.00     0.280 HD
HETATM   18  C   UNL     1     -42.644  54.585 -53.874  1.00  0.00     0.244 C 
HETATM   19  C   UNL     1     -41.669  53.566 -53.271  1.00  0.00     0.046 C 
HETATM   20  C   UNL     1     -40.536  53.626 -54.301  1.00  0.00     0.039 C 
HETATM   21  C   UNL     1     -40.407  55.093 -54.680  1.00  0.00     0.235 C 
BRANCH  19  22
HETATM   22  C   UNL     1     -41.343  53.878 -51.813  1.00  0.00    -0.046 A 
HETATM   23  C   UNL     1     -40.386  53.105 -51.105  1.00  0.00    -0.055 A 
HETATM   24  C   UNL     1     -39.584  51.990 -51.731  1.00  0.00     0.049 C 
HETATM   25  C   UNL     1     -40.167  53.350 -49.737  1.00  0.00     0.007 A 
HETATM   26  C   UNL     1     -40.833  54.373 -49.073  1.00  0.00     0.001 A 
HETATM   27  C   UNL     1     -41.721  55.177 -49.770  1.00  0.00     0.001 A 
HETATM   28  C   UNL     1     -41.967  54.937 -51.125  1.00  0.00     0.008 A 
ENDBRANCH  19  22
ENDBRANCH  15  16
ENDBRANCH   1  15
TORSDOF 7
ENDMDL
MODEL 5
REMARK VINA RESULT:      -7.0     15.535     17.425
REMARK  7 active torsions:
REMARK  status: ('A' for Active; 'I' for Inactive)
REMARK    1  A    between atoms: C_2  and  C_3 
REMARK    2  A    between atoms: C_3  and  C_4 
REMARK    3  A    between atoms: C_8  and  C_9 
REMARK       I    between atoms: C_9  and  N_10 
REMARK    4  A    between atoms: N_10  and  C_11 
REMARK    5  A    between atoms: C_11  and  C_12 
REMARK    6  A    between atoms: C_12  and  N_13 
REMARK    7  A    between atoms: C_16  and  C_17 
ROOT
HETATM    1  C   UNL     1     -32.014  39.731 -53.399  1.00  0.00     0.150 C 
ENDROOT
BRANCH   1   2
HETATM    2  N   UNL     1     -32.944  40.420 -54.280  1.00  0.00    -0.354 N 
HETATM    3  C   UNL     1     -32.717  40.461 -55.649  1.00  0.00     0.272 C 
HETATM    4  O   UNL     1     -31.590  40.377 -56.125  1.00  0.00    -0.266 OA
HETATM    5  H   UNL     1     -33.945  40.352 -54.078  1.00  0.00     0.162 HD
BRANCH   3   6
HETATM    6  C   UNL     1     -33.945  40.604 -56.439  1.00  0.00     0.146 A 
HETATM    7  N   UNL     1     -34.368  39.610 -57.247  1.00  0.00    -0.169 NA
HETATM    8  N   UNL     1     -35.476  40.113 -57.827  1.00  0.00    -0.282 N 
HETATM    9  C   UNL     1     -35.761  41.395 -57.444  1.00  0.00     0.030 A 
HETATM   10  H   UNL     1     -35.982  39.536 -58.492  1.00  0.00     0.189 HD
HETATM   11  C   UNL     1     -34.796  41.731 -56.519  1.00  0.00     0.065 A 
BRANCH   9  12
HETATM   12  C   UNL     1     -36.904  42.165 -58.012  1.00  0.00     0.058 C 
BRANCH  12  13
HETATM   13  C   UNL     1     -37.224  41.707 -59.436  1.00  0.00     0.002 C 
HETATM   14  C   UNL     1     -37.392  42.888 -60.380  1.00  0.00     0.005 C 
ENDBRANCH  12  13
ENDBRANCH   9  12
ENDBRANCH   3   6
ENDBRANCH   1   2
BRANCH   1  15
HETATM   15  C   UNL     1     -32.604  38.498 -52.691  1.00  0.00     0.254 C 
BRANCH  15  16
HETATM   16  N   UNL     1     -32.274  38.544 -51.208  1.00  0.00    -0.069 N 
HETATM   17  H   UNL     1     -31.611  37.767 -51.066  1.00  0.00     0.280 HD
HETATM   18  C   UNL     1     -33.478  38.300 -50.319  1.00  0.00     0.244 C 
HETATM   19  C   UNL     1     -33.871  39.686 -49.790  1.00  0.00     0.046 C 
HETATM   20  C   UNL     1     -32.484  40.301 -49.572  1.00  0.00     0.039 C 
HETATM   21  C   UNL     1     -31.641  39.835 -50.749  1.00  0.00     0.235 C 
BRANCH  19  22
HETATM   22  C   UNL     1     -34.843  40.401 -50.725  1.00  0.00    -0.046 A 
HETATM   23  C   UNL     1     -36.162  39.908 -50.909  1.00  0.00    -0.055 A 
HETATM   24  C   UNL     1     -36.721  38.717 -50.171  1.00  0.00     0.049 C 
HETATM   25  C   UNL     1     -37.012  40.527 -51.844  1.00  0.00     0.007 A 
HETATM   26  C   UNL     1     -36.605  41.650 -52.556  1.00  0.00     0.001 A 
HETATM   27  C   UNL     1     -35.342  42.179 -52.335  1.00  0.00     0.001 A 
HETATM   28  C   UNL     1     -34.476  41.566 -51.425  1.00  0.00     0.008 A 
ENDBRANCH  19  22
ENDBRANCH  15  16
ENDBRANCH   1  15
TORSDOF 7
ENDMDL
MODEL 6
REMARK VINA RESULT:      -7.0      2.957      6.652
REMARK  7 active torsions:
REMARK  status: ('A' for Active; 'I' for Inactive)
REMARK    1  A    between atoms: C_2  and  C_3 
REMARK    2  A    between atoms: C_3  and  C_4 
REMARK    3  A    between atoms: C_8  and  C_9 
REMARK       I    between atoms: C_9  and  N_10 
REMARK    4  A    between atoms: N_10  and  C_11 
REMARK    5  A    between atoms: C_11  and  C_12 
REMARK    6  A    between atoms: C_12  and  N_13 
REMARK    7  A    between atoms: C_16  and  C_17 
ROOT
HETATM    1  C   UNL     1     -44.062  56.074 -54.068  1.00  0.00     0.150 C 
ENDROOT
BRANCH   1   2
HETATM    2  N   UNL     1     -44.128  56.698 -52.756  1.00  0.00    -0.354 N 
HETATM    3  C   UNL     1     -43.511  57.919 -52.526  1.00  0.00     0.272 C 
HETATM    4  O   UNL     1     -42.541  58.292 -53.178  1.00  0.00    -0.266 OA
HETATM    5  H   UNL     1     -45.001  56.625 -52.227  1.00  0.00     0.162 HD
BRANCH   3   6
HETATM    6  C   UNL     1     -44.139  58.696 -51.452  1.00  0.00     0.146 A 
HETATM    7  N   UNL     1     -45.241  58.243 -50.820  1.00  0.00    -0.169 NA
HETATM    8  N   UNL     1     -45.544  59.225 -49.949  1.00  0.00    -0.282 N 
HETATM    9  C   UNL     1     -44.698  60.298 -50.018  1.00  0.00     0.030 A 
HETATM   10  H   UNL     1     -46.355  59.110 -49.348  1.00  0.00     0.189 HD
HETATM   11  C   UNL     1     -43.757  59.970 -50.969  1.00  0.00     0.065 A 
BRANCH   9  12
HETATM   12  C   UNL     1     -44.890  61.522 -49.189  1.00  0.00     0.058 C 
BRANCH  12  13
HETATM   13  C   UNL     1     -45.685  61.211 -47.920  1.00  0.00     0.002 C 
HETATM   14  C   UNL     1     -44.786  61.148 -46.696  1.00  0.00     0.005 C 
ENDBRANCH  12  13
ENDBRANCH   9  12
ENDBRANCH   3   6
ENDBRANCH   1   2
BRANCH   1  15
HETATM   15  C   UNL     1     -43.678  54.583 -54.043  1.00  0.00     0.254 C 
BRANCH  15  16
HETATM   16  N   UNL     1     -42.518  54.331 -54.992  1.00  0.00    -0.069 N 
HETATM   17  H   UNL     1     -42.964  54.134 -55.901  1.00  0.00     0.280 HD
HETATM   18  C   UNL     1     -41.683  53.124 -54.610  1.00  0.00     0.244 C 
HETATM   19  C   UNL     1     -40.415  53.703 -53.969  1.00  0.00     0.046 C 
HETATM   20  C   UNL     1     -40.185  54.923 -54.866  1.00  0.00     0.039 C 
HETATM   21  C   UNL     1     -41.568  55.495 -55.140  1.00  0.00     0.235 C 
BRANCH  19  22
HETATM   22  C   UNL     1     -40.582  53.926 -52.468  1.00  0.00    -0.046 A 
HETATM   23  C   UNL     1     -40.231  52.907 -51.543  1.00  0.00    -0.055 A 
HETATM   24  C   UNL     1     -39.619  51.588 -51.944  1.00  0.00     0.049 C 
HETATM   25  C   UNL     1     -40.479  53.098 -50.171  1.00  0.00     0.007 A 
HETATM   26  C   UNL     1     -41.013  54.289 -49.694  1.00  0.00     0.001 A 
HETATM   27  C   UNL     1     -41.297  55.316 -50.582  1.00  0.00     0.001 A 
HETATM   28  C   UNL     1     -41.077  55.138 -51.950  1.00  0.00     0.008 A 
ENDBRANCH  19  22
ENDBRANCH  15  16
ENDBRANCH   1  15
TORSDOF 7
ENDMDL
MODEL 7
REMARK VINA RESULT:      -7.0      2.860      5.887
REMARK  7 active torsions:
REMARK  status: ('A' for Active; 'I' for Inactive)
REMARK    1  A    between atoms: C_2  and  C_3 
REMARK    2  A    between atoms: C_3  and  C_4 
REMARK    3  A    between atoms: C_8  and  C_9 
REMARK       I    between atoms: C_9  and  N_10 
REMARK    4  A    between atoms: N_10  and  C_11 
REMARK    5  A    between atoms: C_11  and  C_12 
REMARK    6  A    between atoms: C_12  and  N_13 
REMARK    7  A    between atoms: C_16  and  C_17 
ROOT
HETATM    1  C   UNL     1     -40.605  56.803 -54.024  1.00  0.00     0.150 C 
ENDROOT
BRANCH   1   2
HETATM    2  N   UNL     1     -41.047  57.446 -52.796  1.00  0.00    -0.354 N 
HETATM    3  C   UNL     1     -40.659  58.746 -52.504  1.00  0.00     0.272 C 
HETATM    4  O   UNL     1     -39.622  59.231 -52.944  1.00  0.00    -0.266 OA
HETATM    5  H   UNL     1     -42.001  57.268 -52.471  1.00  0.00     0.162 HD
BRANCH   3   6
HETATM    6  C   UNL     1     -41.608  59.457 -51.641  1.00  0.00     0.146 A 
HETATM    7  N   UNL     1     -41.331  59.678 -50.339  1.00  0.00    -0.169 NA
HETATM    8  N   UNL     1     -42.430  60.304 -49.875  1.00  0.00    -0.282 N 
HETATM    9  C   UNL     1     -43.408  60.466 -50.818  1.00  0.00     0.030 A 
HETATM   10  H   UNL     1     -42.458  60.577 -48.897  1.00  0.00     0.189 HD
HETATM   11  C   UNL     1     -42.890  59.949 -51.985  1.00  0.00     0.065 A 
BRANCH   9  12
HETATM   12  C   UNL     1     -44.731  61.074 -50.501  1.00  0.00     0.058 C 
BRANCH  12  13
HETATM   13  C   UNL     1     -45.876  60.126 -50.861  1.00  0.00     0.002 C 
HETATM   14  C   UNL     1     -46.656  60.621 -52.069  1.00  0.00     0.005 C 
ENDBRANCH  12  13
ENDBRANCH   9  12
ENDBRANCH   3   6
ENDBRANCH   1   2
BRANCH   1  15
HETATM   15  C   UNL     1     -41.749  56.331 -54.940  1.00  0.00     0.254 C 
BRANCH  15  16
HETATM   16  N   UNL     1     -41.426  54.958 -55.506  1.00  0.00    -0.069 N 
HETATM   17  H   UNL     1     -41.493  55.076 -56.528  1.00  0.00     0.280 HD
HETATM   18  C   UNL     1     -42.422  53.890 -55.093  1.00  0.00     0.244 C 
HETATM   19  C   UNL     1     -41.711  53.084 -53.999  1.00  0.00     0.046 C 
HETATM   20  C   UNL     1     -40.284  53.059 -54.557  1.00  0.00     0.039 C 
HETATM   21  C   UNL     1     -40.053  54.441 -55.149  1.00  0.00     0.235 C 
BRANCH  19  22
HETATM   22  C   UNL     1     -41.937  53.677 -52.611  1.00  0.00    -0.046 A 
HETATM   23  C   UNL     1     -41.030  53.408 -51.553  1.00  0.00    -0.055 A 
HETATM   24  C   UNL     1     -39.768  52.597 -51.719  1.00  0.00     0.049 C 
HETATM   25  C   UNL     1     -41.306  53.888 -50.259  1.00  0.00     0.007 A 
HETATM   26  C   UNL     1     -42.426  54.671 -50.005  1.00  0.00     0.001 A 
HETATM   27  C   UNL     1     -43.285  54.995 -51.045  1.00  0.00     0.001 A 
HETATM   28  C   UNL     1     -43.038  54.511 -52.333  1.00  0.00     0.008 A 
ENDBRANCH  19  22
ENDBRANCH  15  16
ENDBRANCH   1  15
TORSDOF 7
ENDMDL
MODEL 8
REMARK VINA RESULT:      -6.9      3.645      6.747
REMARK  7 active torsions:
REMARK  status: ('A' for Active; 'I' for Inactive)
REMARK    1  A    between atoms: C_2  and  C_3 
REMARK    2  A    between atoms: C_3  and  C_4 
REMARK    3  A    between atoms: C_8  and  C_9 
REMARK       I    between atoms: C_9  and  N_10 
REMARK    4  A    between atoms: N_10  and  C_11 
REMARK    5  A    between atoms: C_11  and  C_12 
REMARK    6  A    between atoms: C_12  and  N_13 
REMARK    7  A    between atoms: C_16  and  C_17 
ROOT
HETATM    1  C   UNL     1     -40.629  58.597 -50.881  1.00  0.00     0.150 C 
ENDROOT
BRANCH   1   2
HETATM    2  N   UNL     1     -41.611  59.493 -50.291  1.00  0.00    -0.354 N 
HETATM    3  C   UNL     1     -42.489  60.203 -51.098  1.00  0.00     0.272 C 
HETATM    4  O   UNL     1     -42.215  60.499 -52.256  1.00  0.00    -0.266 OA
HETATM    5  H   UNL     1     -42.064  59.209 -49.419  1.00  0.00     0.162 HD
BRANCH   3   6
HETATM    6  C   UNL     1     -43.750  60.541 -50.429  1.00  0.00     0.146 A 
HETATM    7  N   UNL     1     -44.936  60.191 -50.968  1.00  0.00    -0.169 NA
HETATM    8  N   UNL     1     -45.844  60.700 -50.112  1.00  0.00    -0.282 N 
HETATM    9  C   UNL     1     -45.288  61.385 -49.067  1.00  0.00     0.030 A 
HETATM   10  H   UNL     1     -46.831  60.563 -50.311  1.00  0.00     0.189 HD
HETATM   11  C   UNL     1     -43.925  61.275 -49.232  1.00  0.00     0.065 A 
BRANCH   9  12
HETATM   12  C   UNL     1     -46.112  62.084 -48.040  1.00  0.00     0.058 C 
BRANCH  12  13
HETATM   13  C   UNL     1     -46.277  61.225 -46.786  1.00  0.00     0.002 C 
HETATM   14  C   UNL     1     -45.119  61.415 -45.819  1.00  0.00     0.005 C 
ENDBRANCH  12  13
ENDBRANCH   9  12
ENDBRANCH   3   6
ENDBRANCH   1   2
BRANCH   1  15
HETATM   15  C   UNL     1     -41.217  57.286 -51.434  1.00  0.00     0.254 C 
BRANCH  15  16
HETATM   16  N   UNL     1     -42.158  56.668 -50.413  1.00  0.00    -0.069 N 
HETATM   17  H   UNL     1     -42.157  57.333 -49.624  1.00  0.00     0.280 HD
HETATM   18  C   UNL     1     -41.682  55.326 -49.894  1.00  0.00     0.244 C 
HETATM   19  C   UNL     1     -42.549  54.288 -50.618  1.00  0.00     0.046 C 
HETATM   20  C   UNL     1     -43.898  55.014 -50.628  1.00  0.00     0.039 C 
HETATM   21  C   UNL     1     -43.573  56.475 -50.904  1.00  0.00     0.235 C 
BRANCH  19  22
HETATM   22  C   UNL     1     -41.941  53.864 -51.952  1.00  0.00    -0.046 A 
HETATM   23  C   UNL     1     -40.781  53.047 -51.991  1.00  0.00    -0.055 A 
HETATM   24  C   UNL     1     -40.111  52.487 -50.761  1.00  0.00     0.049 C 
HETATM   25  C   UNL     1     -40.183  52.744 -53.229  1.00  0.00     0.007 A 
HETATM   26  C   UNL     1     -40.738  53.187 -54.424  1.00  0.00     0.001 A 
HETATM   27  C   UNL     1     -41.909  53.930 -54.401  1.00  0.00     0.001 A 
HETATM   28  C   UNL     1     -42.506  54.258 -53.181  1.00  0.00     0.008 A 
ENDBRANCH  19  22
ENDBRANCH  15  16
ENDBRANCH   1  15
TORSDOF 7
ENDMDL
MODEL 9
REMARK VINA RESULT:      -6.9      2.923      6.193
REMARK  7 active torsions:
REMARK  status: ('A' for Active; 'I' for Inactive)
REMARK    1  A    between atoms: C_2  and  C_3 
REMARK    2  A    between atoms: C_3  and  C_4 
REMARK    3  A    between atoms: C_8  and  C_9 
REMARK       I    between atoms: C_9  and  N_10 
REMARK    4  A    between atoms: N_10  and  C_11 
REMARK    5  A    between atoms: C_11  and  C_12 
REMARK    6  A    between atoms: C_12  and  N_13 
REMARK    7  A    between atoms: C_16  and  C_17 
ROOT
HETATM    1  C   UNL     1     -41.839  57.235 -50.731  1.00  0.00     0.150 C 
ENDROOT
BRANCH   1   2
HETATM    2  N   UNL     1     -41.002  56.050 -50.842  1.00  0.00    -0.354 N 
HETATM    3  C   UNL     1     -40.933  55.138 -49.799  1.00  0.00     0.272 C 
HETATM    4  O   UNL     1     -41.140  55.463 -48.634  1.00  0.00    -0.266 OA
HETATM    5  H   UNL     1     -40.952  55.575 -51.747  1.00  0.00     0.162 HD
BRANCH   3   6
HETATM    6  C   UNL     1     -40.605  53.777 -50.236  1.00  0.00     0.146 A 
HETATM    7  N   UNL     1     -40.672  52.738 -49.378  1.00  0.00    -0.169 NA
HETATM    8  N   UNL     1     -40.266  51.683 -50.112  1.00  0.00    -0.282 N 
HETATM    9  C   UNL     1     -39.915  52.011 -51.394  1.00  0.00     0.030 A 
HETATM   10  H   UNL     1     -40.230  50.769 -49.672  1.00  0.00     0.189 HD
HETATM   11  C   UNL     1     -40.153  53.363 -51.511  1.00  0.00     0.065 A 
BRANCH   9  12
HETATM   12  C   UNL     1     -39.376  51.009 -52.356  1.00  0.00     0.058 C 
BRANCH  12  13
HETATM   13  C   UNL     1     -39.847  51.302 -53.782  1.00  0.00     0.002 C 
HETATM   14  C   UNL     1     -39.984  50.028 -54.600  1.00  0.00     0.005 C 
ENDBRANCH  12  13
ENDBRANCH   9  12
ENDBRANCH   3   6
ENDBRANCH   1   2
BRANCH   1  15
HETATM   15  C   UNL     1     -41.803  58.155 -51.965  1.00  0.00     0.254 C 
BRANCH  15  16
HETATM   16  N   UNL     1     -43.190  58.713 -52.236  1.00  0.00    -0.069 N 
HETATM   17  H   UNL     1     -43.351  59.390 -51.474  1.00  0.00     0.280 HD
HETATM   18  C   UNL     1     -44.282  57.663 -52.167  1.00  0.00     0.244 C 
HETATM   19  C   UNL     1     -44.636  57.360 -53.629  1.00  0.00     0.046 C 
HETATM   20  C   UNL     1     -44.537  58.764 -54.234  1.00  0.00     0.039 C 
HETATM   21  C   UNL     1     -43.333  59.412 -53.566  1.00  0.00     0.235 C 
BRANCH  19  22
HETATM   22  C   UNL     1     -43.761  56.253 -54.212  1.00  0.00    -0.046 A 
HETATM   23  C   UNL     1     -43.431  56.245 -55.593  1.00  0.00    -0.055 A 
HETATM   24  C   UNL     1     -43.845  57.329 -56.558  1.00  0.00     0.049 C 
HETATM   25  C   UNL     1     -42.701  55.168 -56.128  1.00  0.00     0.007 A 
HETATM   26  C   UNL     1     -42.246  54.133 -55.319  1.00  0.00     0.001 A 
HETATM   27  C   UNL     1     -42.505  54.165 -53.957  1.00  0.00     0.001 A 
HETATM   28  C   UNL     1     -43.247  55.216 -53.410  1.00  0.00     0.008 A 
ENDBRANCH  19  22
ENDBRANCH  15  16
ENDBRANCH   1  15
TORSDOF 7
ENDMDL
MODEL 10
REMARK VINA RESULT:      -6.9      2.272      3.146
REMARK  7 active torsions:
REMARK  status: ('A' for Active; 'I' for Inactive)
REMARK    1  A    between atoms: C_2  and  C_3 
REMARK    2  A    between atoms: C_3  and  C_4 
REMARK    3  A    between atoms: C_8  and  C_9 
REMARK       I    between atoms: C_9  and  N_10 
REMARK    4  A    between atoms: N_10  and  C_11 
REMARK    5  A    between atoms: C_11  and  C_12 
REMARK    6  A    between atoms: C_12  and  N_13 
REMARK    7  A    between atoms: C_16  and  C_17 
ROOT
HETATM    1  C   UNL     1     -42.832  54.963 -56.313  1.00  0.00     0.150 C 
ENDROOT
BRANCH   1   2
HETATM    2  N   UNL     1     -43.753  55.931 -56.888  1.00  0.00    -0.354 N 
HETATM    3  C   UNL     1     -43.281  57.123 -57.417  1.00  0.00     0.272 C 
HETATM    4  O   UNL     1     -42.236  57.637 -57.032  1.00  0.00    -0.266 OA
HETATM    5  H   UNL     1     -44.548  55.581 -57.429  1.00  0.00     0.162 HD
BRANCH   3   6
HETATM    6  C   UNL     1     -44.144  57.679 -58.464  1.00  0.00     0.146 A 
HETATM    7  N   UNL     1     -43.878  58.881 -59.017  1.00  0.00    -0.169 NA
HETATM    8  N   UNL     1     -44.890  59.070 -59.886  1.00  0.00    -0.282 N 
HETATM    9  C   UNL     1     -45.805  58.053 -59.891  1.00  0.00     0.030 A 
HETATM   10  H   UNL     1     -44.909  59.926 -60.432  1.00  0.00     0.189 HD
HETATM   11  C   UNL     1     -45.331  57.120 -58.995  1.00  0.00     0.065 A 
BRANCH   9  12
HETATM   12  C   UNL     1     -47.037  58.089 -60.729  1.00  0.00     0.058 C 
BRANCH  12  13
HETATM   13  C   UNL     1     -47.481  56.679 -61.120  1.00  0.00     0.002 C 
HETATM   14  C   UNL     1     -48.508  56.705 -62.241  1.00  0.00     0.005 C 
ENDBRANCH  12  13
ENDBRANCH   9  12
ENDBRANCH   3   6
ENDBRANCH   1   2
BRANCH   1  15
HETATM   15  C   UNL     1     -43.212  54.489 -54.898  1.00  0.00     0.254 C 
BRANCH  15  16
HETATM   16  N   UNL     1     -42.857  55.560 -53.879  1.00  0.00    -0.069 N 
HETATM   17  H   UNL     1     -43.323  56.412 -54.226  1.00  0.00     0.280 HD
HETATM   18  C   UNL     1     -41.368  55.840 -53.799  1.00  0.00     0.244 C 
HETATM   19  C   UNL     1     -40.899  55.137 -52.519  1.00  0.00     0.046 C 
HETATM   20  C   UNL     1     -42.092  55.413 -51.599  1.00  0.00     0.039 C 
HETATM   21  C   UNL     1     -43.326  55.266 -52.475  1.00  0.00     0.235 C 
BRANCH  19  22
HETATM   22  C   UNL     1     -40.500  53.686 -52.776  1.00  0.00    -0.046 A 
HETATM   23  C   UNL     1     -40.113  52.842 -51.703  1.00  0.00    -0.055 A 
HETATM   24  C   UNL     1     -40.127  53.270 -50.256  1.00  0.00     0.049 C 
HETATM   25  C   UNL     1     -39.661  51.537 -51.971  1.00  0.00     0.007 A 
HETATM   26  C   UNL     1     -39.636  51.035 -53.267  1.00  0.00     0.001 A 
HETATM   27  C   UNL     1     -40.075  51.828 -54.316  1.00  0.00     0.001 A 
HETATM   28  C   UNL     1     -40.509  53.134 -54.072  1.00  0.00     0.008 A 
ENDBRANCH  19  22
ENDBRANCH  15  16
ENDBRANCH   1  15
TORSDOF 7
ENDMDL
