MODEL 1
REMARK VINA RESULT:      -8.8      0.000      0.000
REMARK  5 active torsions:
REMARK  status: ('A' for Active; 'I' for Inactive)
REMARK    1  A    between atoms: C_2  and  C_3 
REMARK    2  A    between atoms: N_12  and  N_13 
REMARK       I    between atoms: N_13  and  C_14 
REMARK    3  A    between atoms: C_14  and  C_15 
REMARK    4  A    between atoms: C_15  and  N_16 
REMARK       I    between atoms: N_16  and  C_17 
REMARK    5  A    between atoms: C_17  and  C_18 
ROOT
HETATM    1  N   UNL     1     -43.004  57.236 -54.540  1.00  0.00    -0.255 N 
HETATM    2  C   UNL     1     -44.176  57.939 -54.338  1.00  0.00     0.254 C 
HETATM    3  O   UNL     1     -44.742  58.044 -53.252  1.00  0.00    -0.270 OA
HETATM    4  H   UNL     1     -42.784  56.917 -55.488  1.00  0.00     0.191 HD
ENDROOT
BRANCH   1   5
HETATM    5  N   UNL     1     -42.526  56.464 -53.498  1.00  0.00    -0.167 N 
HETATM    6  C   UNL     1     -41.480  56.832 -52.697  1.00  0.00     0.345 A 
HETATM    7  N   UNL     1     -41.221  55.784 -51.836  1.00  0.00    -0.319 N 
HETATM    8  O   UNL     1     -40.853  57.880 -52.706  1.00  0.00    -0.245 OA
HETATM    9  C   UNL     1     -42.012  54.604 -52.150  1.00  0.00     0.141 A 
HETATM   10  H   UNL     1     -40.382  55.786 -51.272  1.00  0.00     0.166 HD
HETATM   11  C   UNL     1     -42.942  54.254 -50.981  1.00  0.00     0.055 C 
HETATM   12  C   UNL     1     -42.903  55.160 -53.291  1.00  0.00     0.279 A 
HETATM   13  O   UNL     1     -43.786  54.544 -53.877  1.00  0.00    -0.268 OA
BRANCH   9  14
HETATM   14  C   UNL     1     -41.084  53.460 -52.547  1.00  0.00    -0.021 A 
HETATM   15  C   UNL     1     -41.020  53.033 -53.889  1.00  0.00     0.010 A 
HETATM   16  C   UNL     1     -40.194  51.976 -54.277  1.00  0.00     0.001 A 
HETATM   17  C   UNL     1     -39.421  51.314 -53.331  1.00  0.00     0.000 A 
HETATM   18  C   UNL     1     -39.479  51.703 -51.997  1.00  0.00     0.001 A 
HETATM   19  C   UNL     1     -40.307  52.761 -51.606  1.00  0.00     0.010 A 
ENDBRANCH   9  14
ENDBRANCH   1   5
BRANCH   2  20
HETATM   20  C   UNL     1     -44.704  58.612 -55.606  1.00  0.00     0.227 C 
BRANCH  20  21
HETATM   21  N   UNL     1     -44.972  57.667 -56.680  1.00  0.00    -0.348 N 
HETATM   22  C   UNL     1     -44.048  57.440 -57.676  1.00  0.00     0.252 C 
HETATM   23  O   UNL     1     -42.913  57.909 -57.624  1.00  0.00    -0.268 OA
HETATM   24  H   UNL     1     -45.930  57.371 -56.800  1.00  0.00     0.163 HD
BRANCH  22  25
HETATM   25  C   UNL     1     -44.480  56.620 -58.841  1.00  0.00     0.033 A 
HETATM   26  C   UNL     1     -45.676  56.973 -59.482  1.00  0.00     0.036 A 
HETATM   27  C   UNL     1     -46.130  56.223 -60.566  1.00  0.00     0.012 A 
HETATM   28 BR   UNL     1     -47.748  56.695 -61.422  1.00  0.00    -0.051 Br
HETATM   29  C   UNL     1     -45.401  55.126 -61.024  1.00  0.00     0.019 A 
HETATM   30  C   UNL     1     -44.201  54.783 -60.400  1.00  0.00     0.002 A 
HETATM   31  C   UNL     1     -43.737  55.530 -59.314  1.00  0.00     0.017 A 
ENDBRANCH  22  25
ENDBRANCH  20  21
ENDBRANCH   2  20
TORSDOF 5
ENDMDL
MODEL 2
REMARK VINA RESULT:      -8.6      5.428      8.055
REMARK  5 active torsions:
REMARK  status: ('A' for Active; 'I' for Inactive)
REMARK    1  A    between atoms: C_2  and  C_3 
REMARK    2  A    between atoms: N_12  and  N_13 
REMARK       I    between atoms: N_13  and  C_14 
REMARK    3  A    between atoms: C_14  and  C_15 
REMARK    4  A    between atoms: C_15  and  N_16 
REMARK       I    between atoms: N_16  and  C_17 
REMARK    5  A    between atoms: C_17  and  C_18 
ROOT
HETATM    1  N   UNL     1     -42.447  57.584 -51.153  1.00  0.00    -0.255 N 
HETATM    2  C   UNL     1     -42.938  58.764 -51.677  1.00  0.00     0.254 C 
HETATM    3  O   UNL     1     -43.684  58.831 -52.652  1.00  0.00    -0.270 OA
HETATM    4  H   UNL     1     -41.597  57.621 -50.582  1.00  0.00     0.191 HD
ENDROOT
BRANCH   1   5
HETATM    5  N   UNL     1     -42.668  56.419 -51.865  1.00  0.00    -0.167 N 
HETATM    6  C   UNL     1     -43.554  55.451 -51.482  1.00  0.00     0.345 A 
HETATM    7  N   UNL     1     -43.440  54.401 -52.371  1.00  0.00    -0.319 N 
HETATM    8  O   UNL     1     -44.322  55.462 -50.533  1.00  0.00    -0.245 OA
HETATM    9  C   UNL     1     -42.340  54.587 -53.306  1.00  0.00     0.141 A 
HETATM   10  H   UNL     1     -43.889  53.517 -52.174  1.00  0.00     0.166 HD
HETATM   11  C   UNL     1     -42.867  54.670 -54.745  1.00  0.00     0.055 C 
HETATM   12  C   UNL     1     -41.874  56.011 -52.909  1.00  0.00     0.279 A 
HETATM   13  O   UNL     1     -40.974  56.647 -53.445  1.00  0.00    -0.268 OA
BRANCH   9  14
HETATM   14  C   UNL     1     -41.308  53.483 -53.103  1.00  0.00    -0.021 A 
HETATM   15  C   UNL     1     -40.993  52.605 -54.160  1.00  0.00     0.010 A 
HETATM   16  C   UNL     1     -40.066  51.573 -53.996  1.00  0.00     0.001 A 
HETATM   17  C   UNL     1     -39.440  51.388 -52.769  1.00  0.00     0.000 A 
HETATM   18  C   UNL     1     -39.746  52.230 -51.705  1.00  0.00     0.001 A 
HETATM   19  C   UNL     1     -40.676  53.263 -51.867  1.00  0.00     0.010 A 
ENDBRANCH   9  14
ENDBRANCH   1   5
BRANCH   2  20
HETATM   20  C   UNL     1     -42.485  60.004 -50.904  1.00  0.00     0.227 C 
BRANCH  20  21
HETATM   21  N   UNL     1     -43.301  60.267 -49.729  1.00  0.00    -0.348 N 
HETATM   22  C   UNL     1     -44.206  61.305 -49.708  1.00  0.00     0.252 C 
HETATM   23  O   UNL     1     -44.468  61.955 -50.718  1.00  0.00    -0.268 OA
HETATM   24  H   UNL     1     -43.016  59.825 -48.866  1.00  0.00     0.163 HD
BRANCH  22  25
HETATM   25  C   UNL     1     -44.847  61.633 -48.405  1.00  0.00     0.033 A 
HETATM   26  C   UNL     1     -45.511  60.604 -47.724  1.00  0.00     0.036 A 
HETATM   27  C   UNL     1     -46.141  60.869 -46.509  1.00  0.00     0.012 A 
HETATM   28 BR   UNL     1     -47.044  59.480 -45.598  1.00  0.00    -0.051 Br
HETATM   29  C   UNL     1     -46.113  62.150 -45.960  1.00  0.00     0.019 A 
HETATM   30  C   UNL     1     -45.437  63.173 -46.626  1.00  0.00     0.002 A 
HETATM   31  C   UNL     1     -44.800  62.917 -47.844  1.00  0.00     0.017 A 
ENDBRANCH  22  25
ENDBRANCH  20  21
ENDBRANCH   2  20
TORSDOF 5
ENDMDL
MODEL 3
REMARK VINA RESULT:      -8.5      5.365      7.576
REMARK  5 active torsions:
REMARK  status: ('A' for Active; 'I' for Inactive)
REMARK    1  A    between atoms: C_2  and  C_3 
REMARK    2  A    between atoms: N_12  and  N_13 
REMARK       I    between atoms: N_13  and  C_14 
REMARK    3  A    between atoms: C_14  and  C_15 
REMARK    4  A    between atoms: C_15  and  N_16 
REMARK       I    between atoms: N_16  and  C_17 
REMARK    5  A    between atoms: C_17  and  C_18 
ROOT
HETATM    1  N   UNL     1     -43.458  57.167 -50.762  1.00  0.00    -0.255 N 
HETATM    2  C   UNL     1     -43.806  57.448 -52.069  1.00  0.00     0.254 C 
HETATM    3  O   UNL     1     -43.345  56.865 -53.048  1.00  0.00    -0.270 OA
HETATM    4  H   UNL     1     -43.613  57.888 -50.051  1.00  0.00     0.191 HD
ENDROOT
BRANCH   1   5
HETATM    5  N   UNL     1     -42.404  56.298 -50.546  1.00  0.00    -0.167 N 
HETATM    6  C   UNL     1     -41.092  56.679 -50.555  1.00  0.00     0.345 A 
HETATM    7  N   UNL     1     -40.323  55.542 -50.402  1.00  0.00    -0.319 N 
HETATM    8  O   UNL     1     -40.631  57.803 -50.680  1.00  0.00    -0.245 OA
HETATM    9  C   UNL     1     -41.122  54.327 -50.437  1.00  0.00     0.141 A 
HETATM   10  H   UNL     1     -39.323  55.582 -50.546  1.00  0.00     0.166 HD
HETATM   11  C   UNL     1     -41.021  53.579 -49.101  1.00  0.00     0.055 C 
HETATM   12  C   UNL     1     -42.547  54.933 -50.514  1.00  0.00     0.279 A 
HETATM   13  O   UNL     1     -43.597  54.299 -50.526  1.00  0.00    -0.268 OA
BRANCH   9  14
HETATM   14  C   UNL     1     -40.709  53.480 -51.636  1.00  0.00    -0.021 A 
HETATM   15  C   UNL     1     -39.905  52.336 -51.452  1.00  0.00     0.010 A 
HETATM   16  C   UNL     1     -39.496  51.554 -52.534  1.00  0.00     0.001 A 
HETATM   17  C   UNL     1     -39.871  51.902 -53.826  1.00  0.00     0.000 A 
HETATM   18  C   UNL     1     -40.648  53.037 -54.037  1.00  0.00     0.001 A 
HETATM   19  C   UNL     1     -41.058  53.822 -52.954  1.00  0.00     0.010 A 
ENDBRANCH   9  14
ENDBRANCH   1   5
BRANCH   2  20
HETATM   20  C   UNL     1     -44.859  58.550 -52.191  1.00  0.00     0.227 C 
BRANCH  20  21
HETATM   21  N   UNL     1     -44.558  59.714 -51.372  1.00  0.00    -0.348 N 
HETATM   22  C   UNL     1     -45.214  59.935 -50.180  1.00  0.00     0.252 C 
HETATM   23  O   UNL     1     -45.967  59.096 -49.691  1.00  0.00    -0.268 OA
HETATM   24  H   UNL     1     -44.039  60.461 -51.811  1.00  0.00     0.163 HD
BRANCH  22  25
HETATM   25  C   UNL     1     -44.998  61.247 -49.510  1.00  0.00     0.033 A 
HETATM   26  C   UNL     1     -45.216  61.320 -48.128  1.00  0.00     0.036 A 
HETATM   27  C   UNL     1     -45.044  62.532 -47.460  1.00  0.00     0.012 A 
HETATM   28 BR   UNL     1     -45.349  62.629 -45.597  1.00  0.00    -0.051 Br
HETATM   29  C   UNL     1     -44.650  63.674 -48.155  1.00  0.00     0.019 A 
HETATM   30  C   UNL     1     -44.414  63.602 -49.529  1.00  0.00     0.002 A 
HETATM   31  C   UNL     1     -44.582  62.390 -50.206  1.00  0.00     0.017 A 
ENDBRANCH  22  25
ENDBRANCH  20  21
ENDBRANCH   2  20
TORSDOF 5
ENDMDL
MODEL 4
REMARK VINA RESULT:      -8.3      2.704      7.865
REMARK  5 active torsions:
REMARK  status: ('A' for Active; 'I' for Inactive)
REMARK    1  A    between atoms: C_2  and  C_3 
REMARK    2  A    between atoms: N_12  and  N_13 
REMARK       I    between atoms: N_13  and  C_14 
REMARK    3  A    between atoms: C_14  and  C_15 
REMARK    4  A    between atoms: C_15  and  N_16 
REMARK       I    between atoms: N_16  and  C_17 
REMARK    5  A    between atoms: C_17  and  C_18 
ROOT
HETATM    1  N   UNL     1     -43.350  57.828 -54.848  1.00  0.00    -0.255 N 
HETATM    2  C   UNL     1     -42.229  58.203 -54.134  1.00  0.00     0.254 C 
HETATM    3  O   UNL     1     -41.324  58.905 -54.583  1.00  0.00    -0.270 OA
HETATM    4  H   UNL     1     -43.869  57.000 -54.541  1.00  0.00     0.191 HD
ENDROOT
BRANCH   1   5
HETATM    5  N   UNL     1     -43.381  58.116 -56.200  1.00  0.00    -0.167 N 
HETATM    6  C   UNL     1     -43.962  59.236 -56.725  1.00  0.00     0.345 A 
HETATM    7  N   UNL     1     -43.889  59.142 -58.101  1.00  0.00    -0.319 N 
HETATM    8  O   UNL     1     -44.472  60.173 -56.131  1.00  0.00    -0.245 OA
HETATM    9  C   UNL     1     -43.376  57.853 -58.540  1.00  0.00     0.141 A 
HETATM   10  H   UNL     1     -44.405  59.789 -58.683  1.00  0.00     0.166 HD
HETATM   11  C   UNL     1     -42.058  58.031 -59.304  1.00  0.00     0.055 C 
HETATM   12  C   UNL     1     -43.027  57.212 -57.172  1.00  0.00     0.279 A 
HETATM   13  O   UNL     1     -42.515  56.110 -57.005  1.00  0.00    -0.268 OA
BRANCH   9  14
HETATM   14  C   UNL     1     -44.449  57.126 -59.345  1.00  0.00    -0.021 A 
HETATM   15  C   UNL     1     -45.807  57.469 -59.187  1.00  0.00     0.010 A 
HETATM   16  C   UNL     1     -46.811  56.807 -59.897  1.00  0.00     0.001 A 
HETATM   17  C   UNL     1     -46.482  55.779 -60.773  1.00  0.00     0.000 A 
HETATM   18  C   UNL     1     -45.151  55.408 -60.932  1.00  0.00     0.001 A 
HETATM   19  C   UNL     1     -44.144  56.070 -60.221  1.00  0.00     0.010 A 
ENDBRANCH   9  14
ENDBRANCH   1   5
BRANCH   2  20
HETATM   20  C   UNL     1     -42.224  57.681 -52.696  1.00  0.00     0.227 C 
BRANCH  20  21
HETATM   21  N   UNL     1     -41.410  56.487 -52.530  1.00  0.00    -0.348 N 
HETATM   22  C   UNL     1     -41.911  55.237 -52.825  1.00  0.00     0.252 C 
HETATM   23  O   UNL     1     -43.001  55.090 -53.372  1.00  0.00    -0.268 OA
HETATM   24  H   UNL     1     -40.570  56.579 -51.977  1.00  0.00     0.163 HD
BRANCH  22  25
HETATM   25  C   UNL     1     -41.090  54.058 -52.433  1.00  0.00     0.033 A 
HETATM   26  C   UNL     1     -40.927  53.032 -53.373  1.00  0.00     0.036 A 
HETATM   27  C   UNL     1     -40.183  51.900 -53.044  1.00  0.00     0.012 A 
HETATM   28 BR   UNL     1     -39.973  50.513 -54.311  1.00  0.00    -0.051 Br
HETATM   29  C   UNL     1     -39.592  51.782 -51.787  1.00  0.00     0.019 A 
HETATM   30  C   UNL     1     -39.736  52.809 -50.854  1.00  0.00     0.002 A 
HETATM   31  C   UNL     1     -40.479  53.949 -51.176  1.00  0.00     0.017 A 
ENDBRANCH  22  25
ENDBRANCH  20  21
ENDBRANCH   2  20
TORSDOF 5
ENDMDL
MODEL 5
REMARK VINA RESULT:      -8.3      3.444      9.180
REMARK  5 active torsions:
REMARK  status: ('A' for Active; 'I' for Inactive)
REMARK    1  A    between atoms: C_2  and  C_3 
REMARK    2  A    between atoms: N_12  and  N_13 
REMARK       I    between atoms: N_13  and  C_14 
REMARK    3  A    between atoms: C_14  and  C_15 
REMARK    4  A    between atoms: C_15  and  N_16 
REMARK       I    between atoms: N_16  and  C_17 
REMARK    5  A    between atoms: C_17  and  C_18 
ROOT
HETATM    1  N   UNL     1     -42.872  57.228 -57.613  1.00  0.00    -0.255 N 
HETATM    2  C   UNL     1     -42.729  56.142 -56.772  1.00  0.00     0.254 C 
HETATM    3  O   UNL     1     -43.228  55.037 -56.977  1.00  0.00    -0.270 OA
HETATM    4  H   UNL     1     -42.727  58.166 -57.227  1.00  0.00     0.191 HD
ENDROOT
BRANCH   1   5
HETATM    5  N   UNL     1     -43.767  57.120 -58.662  1.00  0.00    -0.167 N 
HETATM    6  C   UNL     1     -43.404  56.794 -59.939  1.00  0.00     0.345 A 
HETATM    7  N   UNL     1     -44.533  56.875 -60.730  1.00  0.00    -0.319 N 
HETATM    8  O   UNL     1     -42.298  56.488 -60.357  1.00  0.00    -0.245 OA
HETATM    9  C   UNL     1     -45.675  57.414 -60.008  1.00  0.00     0.141 A 
HETATM   10  H   UNL     1     -44.452  56.831 -61.737  1.00  0.00     0.166 HD
HETATM   11  C   UNL     1     -46.804  56.377 -59.935  1.00  0.00     0.055 C 
HETATM   12  C   UNL     1     -45.074  57.535 -58.584  1.00  0.00     0.279 A 
HETATM   13  O   UNL     1     -45.670  57.916 -57.583  1.00  0.00    -0.268 OA
BRANCH   9  14
HETATM   14  C   UNL     1     -46.106  58.731 -60.648  1.00  0.00    -0.021 A 
HETATM   15  C   UNL     1     -47.440  58.913 -61.063  1.00  0.00     0.010 A 
HETATM   16  C   UNL     1     -47.857  60.100 -61.669  1.00  0.00     0.001 A 
HETATM   17  C   UNL     1     -46.947  61.129 -61.883  1.00  0.00     0.000 A 
HETATM   18  C   UNL     1     -45.620  60.967 -61.500  1.00  0.00     0.001 A 
HETATM   19  C   UNL     1     -45.201  59.778 -60.894  1.00  0.00     0.010 A 
ENDBRANCH   9  14
ENDBRANCH   1   5
BRANCH   2  20
HETATM   20  C   UNL     1     -41.854  56.433 -55.552  1.00  0.00     0.227 C 
BRANCH  20  21
HETATM   21  N   UNL     1     -41.282  55.230 -54.966  1.00  0.00    -0.348 N 
HETATM   22  C   UNL     1     -41.717  54.754 -53.749  1.00  0.00     0.252 C 
HETATM   23  O   UNL     1     -42.696  55.232 -53.180  1.00  0.00    -0.268 OA
HETATM   24  H   UNL     1     -40.410  54.901 -55.357  1.00  0.00     0.163 HD
BRANCH  22  25
HETATM   25  C   UNL     1     -40.941  53.645 -53.127  1.00  0.00     0.033 A 
HETATM   26  C   UNL     1     -40.666  52.518 -53.913  1.00  0.00     0.036 A 
HETATM   27  C   UNL     1     -39.959  51.447 -53.368  1.00  0.00     0.012 A 
HETATM   28 BR   UNL     1     -39.597  49.924 -54.427  1.00  0.00    -0.051 Br
HETATM   29  C   UNL     1     -39.517  51.489 -52.047  1.00  0.00     0.019 A 
HETATM   30  C   UNL     1     -39.773  52.617 -51.266  1.00  0.00     0.002 A 
HETATM   31  C   UNL     1     -40.480  53.697 -51.805  1.00  0.00     0.017 A 
ENDBRANCH  22  25
ENDBRANCH  20  21
ENDBRANCH   2  20
TORSDOF 5
ENDMDL
MODEL 6
REMARK VINA RESULT:      -8.2      1.496      1.877
REMARK  5 active torsions:
REMARK  status: ('A' for Active; 'I' for Inactive)
REMARK    1  A    between atoms: C_2  and  C_3 
REMARK    2  A    between atoms: N_12  and  N_13 
REMARK       I    between atoms: N_13  and  C_14 
REMARK    3  A    between atoms: C_14  and  C_15 
REMARK    4  A    between atoms: C_15  and  N_16 
REMARK       I    between atoms: N_16  and  C_17 
REMARK    5  A    between atoms: C_17  and  C_18 
ROOT
HETATM    1  N   UNL     1     -42.340  57.907 -53.513  1.00  0.00    -0.255 N 
HETATM    2  C   UNL     1     -43.468  58.689 -53.357  1.00  0.00     0.254 C 
HETATM    3  O   UNL     1     -44.280  58.559 -52.443  1.00  0.00    -0.270 OA
HETATM    4  H   UNL     1     -41.915  57.847 -54.443  1.00  0.00     0.191 HD
ENDROOT
BRANCH   1   5
HETATM    5  N   UNL     1     -42.201  56.803 -52.693  1.00  0.00    -0.167 N 
HETATM    6  C   UNL     1     -41.398  56.776 -51.586  1.00  0.00     0.345 A 
HETATM    7  N   UNL     1     -41.432  55.494 -51.074  1.00  0.00    -0.319 N 
HETATM    8  O   UNL     1     -40.745  57.687 -51.103  1.00  0.00    -0.245 OA
HETATM    9  C   UNL     1     -42.160  54.574 -51.936  1.00  0.00     0.141 A 
HETATM   10  H   UNL     1     -40.780  55.218 -50.353  1.00  0.00     0.166 HD
HETATM   11  C   UNL     1     -43.389  54.015 -51.208  1.00  0.00     0.055 C 
HETATM   12  C   UNL     1     -42.679  55.557 -53.017  1.00  0.00     0.279 A 
HETATM   13  O   UNL     1     -43.396  55.265 -53.968  1.00  0.00    -0.268 OA
BRANCH   9  14
HETATM   14  C   UNL     1     -41.212  53.492 -52.442  1.00  0.00    -0.021 A 
HETATM   15  C   UNL     1     -41.226  53.115 -53.800  1.00  0.00     0.010 A 
HETATM   16  C   UNL     1     -40.383  52.114 -54.286  1.00  0.00     0.001 A 
HETATM   17  C   UNL     1     -39.513  51.457 -53.423  1.00  0.00     0.000 A 
HETATM   18  C   UNL     1     -39.493  51.797 -52.074  1.00  0.00     0.001 A 
HETATM   19  C   UNL     1     -40.338  52.799 -51.586  1.00  0.00     0.010 A 
ENDBRANCH   9  14
ENDBRANCH   1   5
BRANCH   2  20
HETATM   20  C   UNL     1     -43.607  59.773 -54.428  1.00  0.00     0.227 C 
BRANCH  20  21
HETATM   21  N   UNL     1     -43.213  59.314 -55.751  1.00  0.00    -0.348 N 
HETATM   22  C   UNL     1     -44.079  58.588 -56.540  1.00  0.00     0.252 C 
HETATM   23  O   UNL     1     -45.256  58.424 -56.226  1.00  0.00    -0.268 OA
HETATM   24  H   UNL     1     -42.227  59.336 -55.969  1.00  0.00     0.163 HD
BRANCH  22  25
HETATM   25  C   UNL     1     -43.532  57.983 -57.785  1.00  0.00     0.033 A 
HETATM   26  C   UNL     1     -44.245  56.927 -58.369  1.00  0.00     0.036 A 
HETATM   27  C   UNL     1     -43.761  56.318 -59.525  1.00  0.00     0.012 A 
HETATM   28 BR   UNL     1     -44.720  54.887 -60.304  1.00  0.00    -0.051 Br
HETATM   29  C   UNL     1     -42.574  56.753 -60.112  1.00  0.00     0.019 A 
HETATM   30  C   UNL     1     -41.870  57.816 -59.545  1.00  0.00     0.002 A 
HETATM   31  C   UNL     1     -42.349  58.436 -58.387  1.00  0.00     0.017 A 
ENDBRANCH  22  25
ENDBRANCH  20  21
ENDBRANCH   2  20
TORSDOF 5
ENDMDL
MODEL 7
REMARK VINA RESULT:      -8.1      3.662      4.392
REMARK  5 active torsions:
REMARK  status: ('A' for Active; 'I' for Inactive)
REMARK    1  A    between atoms: C_2  and  C_3 
REMARK    2  A    between atoms: N_12  and  N_13 
REMARK       I    between atoms: N_13  and  C_14 
REMARK    3  A    between atoms: C_14  and  C_15 
REMARK    4  A    between atoms: C_15  and  N_16 
REMARK       I    between atoms: N_16  and  C_17 
REMARK    5  A    between atoms: C_17  and  C_18 
ROOT
HETATM    1  N   UNL     1     -41.846  56.456 -56.229  1.00  0.00    -0.255 N 
HETATM    2  C   UNL     1     -42.903  57.251 -56.627  1.00  0.00     0.254 C 
HETATM    3  O   UNL     1     -43.786  57.656 -55.874  1.00  0.00    -0.270 OA
HETATM    4  H   UNL     1     -41.363  55.897 -56.939  1.00  0.00     0.191 HD
ENDROOT
BRANCH   1   5
HETATM    5  N   UNL     1     -41.871  55.943 -54.945  1.00  0.00    -0.167 N 
HETATM    6  C   UNL     1     -41.211  56.508 -53.889  1.00  0.00     0.345 A 
HETATM    7  N   UNL     1     -41.380  55.680 -52.797  1.00  0.00    -0.319 N 
HETATM    8  O   UNL     1     -40.571  57.547 -53.865  1.00  0.00    -0.245 OA
HETATM    9  C   UNL     1     -42.049  54.436 -53.146  1.00  0.00     0.141 A 
HETATM   10  H   UNL     1     -40.838  55.830 -51.957  1.00  0.00     0.166 HD
HETATM   11  C   UNL     1     -43.388  54.319 -52.404  1.00  0.00     0.055 C 
HETATM   12  C   UNL     1     -42.376  54.704 -54.637  1.00  0.00     0.279 A 
HETATM   13  O   UNL     1     -42.987  53.948 -55.385  1.00  0.00    -0.268 OA
BRANCH   9  14
HETATM   14  C   UNL     1     -41.110  53.262 -52.885  1.00  0.00    -0.021 A 
HETATM   15  C   UNL     1     -40.676  52.980 -51.574  1.00  0.00     0.010 A 
HETATM   16  C   UNL     1     -39.801  51.924 -51.310  1.00  0.00     0.001 A 
HETATM   17  C   UNL     1     -39.331  51.132 -52.351  1.00  0.00     0.000 A 
HETATM   18  C   UNL     1     -39.730  51.401 -53.656  1.00  0.00     0.001 A 
HETATM   19  C   UNL     1     -40.605  52.459 -53.923  1.00  0.00     0.010 A 
ENDBRANCH   9  14
ENDBRANCH   1   5
BRANCH   2  20
HETATM   20  C   UNL     1     -42.861  57.615 -58.112  1.00  0.00     0.227 C 
BRANCH  20  21
HETATM   21  N   UNL     1     -42.054  58.794 -58.383  1.00  0.00    -0.348 N 
HETATM   22  C   UNL     1     -42.613  59.931 -58.925  1.00  0.00     0.252 C 
HETATM   23  O   UNL     1     -43.828  60.050 -59.064  1.00  0.00    -0.268 OA
HETATM   24  H   UNL     1     -41.051  58.671 -58.387  1.00  0.00     0.163 HD
BRANCH  22  25
HETATM   25  C   UNL     1     -41.687  61.012 -59.362  1.00  0.00     0.033 A 
HETATM   26  C   UNL     1     -41.700  61.378 -60.715  1.00  0.00     0.036 A 
HETATM   27  C   UNL     1     -40.837  62.372 -61.173  1.00  0.00     0.012 A 
HETATM   28 BR   UNL     1     -40.849  62.857 -63.001  1.00  0.00    -0.051 Br
HETATM   29  C   UNL     1     -39.963  63.011 -60.296  1.00  0.00     0.019 A 
HETATM   30  C   UNL     1     -39.959  62.663 -58.945  1.00  0.00     0.002 A 
HETATM   31  C   UNL     1     -40.823  61.669 -58.475  1.00  0.00     0.017 A 
ENDBRANCH  22  25
ENDBRANCH  20  21
ENDBRANCH   2  20
TORSDOF 5
ENDMDL
MODEL 8
REMARK VINA RESULT:      -8.1      3.935      8.544
REMARK  5 active torsions:
REMARK  status: ('A' for Active; 'I' for Inactive)
REMARK    1  A    between atoms: C_2  and  C_3 
REMARK    2  A    between atoms: N_12  and  N_13 
REMARK       I    between atoms: N_13  and  C_14 
REMARK    3  A    between atoms: C_14  and  C_15 
REMARK    4  A    between atoms: C_15  and  N_16 
REMARK       I    between atoms: N_16  and  C_17 
REMARK    5  A    between atoms: C_17  and  C_18 
ROOT
HETATM    1  N   UNL     1     -44.297  57.311 -57.208  1.00  0.00    -0.255 N 
HETATM    2  C   UNL     1     -43.427  57.344 -56.135  1.00  0.00     0.254 C 
HETATM    3  O   UNL     1     -42.387  58.000 -56.107  1.00  0.00    -0.270 OA
HETATM    4  H   UNL     1     -44.934  56.514 -57.293  1.00  0.00     0.191 HD
ENDROOT
BRANCH   1   5
HETATM    5  N   UNL     1     -43.894  57.914 -58.385  1.00  0.00    -0.167 N 
HETATM    6  C   UNL     1     -43.029  57.341 -59.275  1.00  0.00     0.345 A 
HETATM    7  N   UNL     1     -42.782  58.261 -60.274  1.00  0.00    -0.319 N 
HETATM    8  O   UNL     1     -42.531  56.226 -59.235  1.00  0.00    -0.245 OA
HETATM    9  C   UNL     1     -43.378  59.558 -59.989  1.00  0.00     0.141 A 
HETATM   10  H   UNL     1     -42.043  58.098 -60.944  1.00  0.00     0.166 HD
HETATM   11  C   UNL     1     -44.426  59.914 -61.052  1.00  0.00     0.055 C 
HETATM   12  C   UNL     1     -44.146  59.231 -58.683  1.00  0.00     0.279 A 
HETATM   13  O   UNL     1     -44.856  60.008 -58.054  1.00  0.00    -0.268 OA
BRANCH   9  14
HETATM   14  C   UNL     1     -42.276  60.604 -59.852  1.00  0.00    -0.021 A 
HETATM   15  C   UNL     1     -41.825  61.310 -60.986  1.00  0.00     0.010 A 
HETATM   16  C   UNL     1     -40.805  62.259 -60.893  1.00  0.00     0.001 A 
HETATM   17  C   UNL     1     -40.205  62.518 -59.666  1.00  0.00     0.000 A 
HETATM   18  C   UNL     1     -40.619  61.822 -58.535  1.00  0.00     0.001 A 
HETATM   19  C   UNL     1     -41.640  60.870 -58.627  1.00  0.00     0.010 A 
ENDBRANCH   9  14
ENDBRANCH   1   5
BRANCH   2  20
HETATM   20  C   UNL     1     -43.895  56.499 -54.950  1.00  0.00     0.227 C 
BRANCH  20  21
HETATM   21  N   UNL     1     -42.821  55.726 -54.346  1.00  0.00    -0.348 N 
HETATM   22  C   UNL     1     -42.635  54.397 -54.662  1.00  0.00     0.252 C 
HETATM   23  O   UNL     1     -43.268  53.853 -55.564  1.00  0.00    -0.268 OA
HETATM   24  H   UNL     1     -42.377  56.119 -53.528  1.00  0.00     0.163 HD
BRANCH  22  25
HETATM   25  C   UNL     1     -41.651  53.629 -53.851  1.00  0.00     0.033 A 
HETATM   26  C   UNL     1     -41.169  52.423 -54.376  1.00  0.00     0.036 A 
HETATM   27  C   UNL     1     -40.260  51.660 -53.644  1.00  0.00     0.012 A 
HETATM   28 BR   UNL     1     -39.620  50.028 -54.351  1.00  0.00    -0.051 Br
HETATM   29  C   UNL     1     -39.820  52.090 -52.394  1.00  0.00     0.019 A 
HETATM   30  C   UNL     1     -40.283  53.300 -51.875  1.00  0.00     0.002 A 
HETATM   31  C   UNL     1     -41.193  54.072 -52.602  1.00  0.00     0.017 A 
ENDBRANCH  22  25
ENDBRANCH  20  21
ENDBRANCH   2  20
TORSDOF 5
ENDMDL
MODEL 9
REMARK VINA RESULT:      -7.8     15.989     17.319
REMARK  5 active torsions:
REMARK  status: ('A' for Active; 'I' for Inactive)
REMARK    1  A    between atoms: C_2  and  C_3 
REMARK    2  A    between atoms: N_12  and  N_13 
REMARK       I    between atoms: N_13  and  C_14 
REMARK    3  A    between atoms: C_14  and  C_15 
REMARK    4  A    between atoms: C_15  and  N_16 
REMARK       I    between atoms: N_16  and  C_17 
REMARK    5  A    between atoms: C_17  and  C_18 
ROOT
HETATM    1  N   UNL     1     -34.519  41.377 -54.555  1.00  0.00    -0.255 N 
HETATM    2  C   UNL     1     -35.498  41.683 -55.481  1.00  0.00     0.254 C 
HETATM    3  O   UNL     1     -36.673  41.907 -55.198  1.00  0.00    -0.270 OA
HETATM    4  H   UNL     1     -33.680  40.887 -54.878  1.00  0.00     0.191 HD
ENDROOT
BRANCH   1   5
HETATM    5  N   UNL     1     -34.915  41.141 -53.251  1.00  0.00    -0.167 N 
HETATM    6  C   UNL     1     -35.096  42.128 -52.322  1.00  0.00     0.345 A 
HETATM    7  N   UNL     1     -35.393  41.521 -51.117  1.00  0.00    -0.319 N 
HETATM    8  O   UNL     1     -35.015  43.336 -52.476  1.00  0.00    -0.245 OA
HETATM    9  C   UNL     1     -35.267  40.073 -51.183  1.00  0.00     0.141 A 
HETATM   10  H   UNL     1     -35.402  42.064 -50.265  1.00  0.00     0.166 HD
HETATM   11  C   UNL     1     -36.621  39.403 -50.914  1.00  0.00     0.055 C 
HETATM   12  C   UNL     1     -34.958  39.888 -52.691  1.00  0.00     0.279 A 
HETATM   13  O   UNL     1     -34.802  38.816 -53.265  1.00  0.00    -0.268 OA
BRANCH   9  14
HETATM   14  C   UNL     1     -34.166  39.614 -50.232  1.00  0.00    -0.021 A 
HETATM   15  C   UNL     1     -34.417  38.585 -49.302  1.00  0.00     0.010 A 
HETATM   16  C   UNL     1     -33.434  38.158 -48.407  1.00  0.00     0.001 A 
HETATM   17  C   UNL     1     -32.180  38.759 -48.413  1.00  0.00     0.000 A 
HETATM   18  C   UNL     1     -31.913  39.790 -49.307  1.00  0.00     0.001 A 
HETATM   19  C   UNL     1     -32.897  40.219 -50.204  1.00  0.00     0.010 A 
ENDBRANCH   9  14
ENDBRANCH   1   5
BRANCH   2  20
HETATM   20  C   UNL     1     -34.974  41.748 -56.916  1.00  0.00     0.227 C 
BRANCH  20  21
HETATM   21  N   UNL     1     -35.619  40.789 -57.799  1.00  0.00    -0.348 N 
HETATM   22  C   UNL     1     -36.629  41.174 -58.653  1.00  0.00     0.252 C 
HETATM   23  O   UNL     1     -36.926  42.356 -58.812  1.00  0.00    -0.268 OA
HETATM   24  H   UNL     1     -35.472  39.810 -57.596  1.00  0.00     0.163 HD
BRANCH  22  25
HETATM   25  C   UNL     1     -37.373  40.099 -59.367  1.00  0.00     0.033 A 
HETATM   26  C   UNL     1     -37.046  39.857 -60.708  1.00  0.00     0.036 A 
HETATM   27  C   UNL     1     -37.728  38.873 -61.422  1.00  0.00     0.012 A 
HETATM   28 BR   UNL     1     -37.292  38.554 -63.234  1.00  0.00    -0.051 Br
HETATM   29  C   UNL     1     -38.732  38.122 -60.812  1.00  0.00     0.019 A 
HETATM   30  C   UNL     1     -39.048  38.348 -59.472  1.00  0.00     0.002 A 
HETATM   31  C   UNL     1     -38.367  39.331 -58.747  1.00  0.00     0.017 A 
ENDBRANCH  22  25
ENDBRANCH  20  21
ENDBRANCH   2  20
TORSDOF 5
ENDMDL
MODEL 10
REMARK VINA RESULT:      -7.8      4.129      4.839
REMARK  5 active torsions:
REMARK  status: ('A' for Active; 'I' for Inactive)
REMARK    1  A    between atoms: C_2  and  C_3 
REMARK    2  A    between atoms: N_12  and  N_13 
REMARK       I    between atoms: N_13  and  C_14 
REMARK    3  A    between atoms: C_14  and  C_15 
REMARK    4  A    between atoms: C_15  and  N_16 
REMARK       I    between atoms: N_16  and  C_17 
REMARK    5  A    between atoms: C_17  and  C_18 
ROOT
HETATM    1  N   UNL     1     -43.476  58.841 -55.353  1.00  0.00    -0.255 N 
HETATM    2  C   UNL     1     -43.134  58.574 -56.664  1.00  0.00     0.254 C 
HETATM    3  O   UNL     1     -42.394  57.656 -57.014  1.00  0.00    -0.270 OA
HETATM    4  H   UNL     1     -43.801  59.783 -55.116  1.00  0.00     0.191 HD
ENDROOT
BRANCH   1   5
HETATM    5  N   UNL     1     -42.816  58.143 -54.358  1.00  0.00    -0.167 N 
HETATM    6  C   UNL     1     -41.594  58.501 -53.861  1.00  0.00     0.345 A 
HETATM    7  N   UNL     1     -41.205  57.530 -52.960  1.00  0.00    -0.319 N 
HETATM    8  O   UNL     1     -40.924  59.485 -54.136  1.00  0.00    -0.245 OA
HETATM    9  C   UNL     1     -42.116  56.395 -52.945  1.00  0.00     0.141 A 
HETATM   10  H   UNL     1     -40.260  57.519 -52.601  1.00  0.00     0.166 HD
HETATM   11  C   UNL     1     -42.770  56.249 -51.564  1.00  0.00     0.055 C 
HETATM   12  C   UNL     1     -43.212  56.904 -53.916  1.00  0.00     0.279 A 
HETATM   13  O   UNL     1     -44.242  56.308 -54.212  1.00  0.00    -0.268 OA
BRANCH   9  14
HETATM   14  C   UNL     1     -41.375  55.141 -53.398  1.00  0.00    -0.021 A 
HETATM   15  C   UNL     1     -40.852  55.061 -54.705  1.00  0.00     0.010 A 
HETATM   16  C   UNL     1     -40.186  53.918 -55.152  1.00  0.00     0.001 A 
HETATM   17  C   UNL     1     -40.037  52.824 -54.308  1.00  0.00     0.000 A 
HETATM   18  C   UNL     1     -40.560  52.871 -53.020  1.00  0.00     0.001 A 
HETATM   19  C   UNL     1     -41.228  54.015 -52.570  1.00  0.00     0.010 A 
ENDBRANCH   9  14
ENDBRANCH   1   5
BRANCH   2  20
HETATM   20  C   UNL     1     -43.792  59.523 -57.666  1.00  0.00     0.227 C 
BRANCH  20  21
HETATM   21  N   UNL     1     -42.896  60.574 -58.124  1.00  0.00    -0.348 N 
HETATM   22  C   UNL     1     -42.381  60.565 -59.401  1.00  0.00     0.252 C 
HETATM   23  O   UNL     1     -42.765  59.760 -60.248  1.00  0.00    -0.268 OA
HETATM   24  H   UNL     1     -42.483  61.164 -57.415  1.00  0.00     0.163 HD
BRANCH  22  25
HETATM   25  C   UNL     1     -41.315  61.555 -59.721  1.00  0.00     0.033 A 
HETATM   26  C   UNL     1     -41.128  61.904 -61.064  1.00  0.00     0.036 A 
HETATM   27  C   UNL     1     -40.130  62.814 -61.413  1.00  0.00     0.012 A 
HETATM   28 BR   UNL     1     -39.872  63.276 -63.228  1.00  0.00    -0.051 Br
HETATM   29  C   UNL     1     -39.319  63.385 -60.433  1.00  0.00     0.019 A 
HETATM   30  C   UNL     1     -39.515  63.054 -59.092  1.00  0.00     0.002 A 
HETATM   31  C   UNL     1     -40.514  62.145 -58.733  1.00  0.00     0.017 A 
ENDBRANCH  22  25
ENDBRANCH  20  21
ENDBRANCH   2  20
TORSDOF 5
ENDMDL
