MODEL 1
REMARK VINA RESULT:      -9.2      0.000      0.000
REMARK  9 active torsions:
REMARK  status: ('A' for Active; 'I' for Inactive)
REMARK    1  A    between atoms: C_2  and  N_3 
REMARK       I    between atoms: N_3  and  C_4 
REMARK    2  A    between atoms: C_4  and  C_5 
REMARK    3  A    between atoms: N_6  and  C_8 
REMARK    4  A    between atoms: C_8  and  C_9 
REMARK    5  A    between atoms: C_12  and  O_13 
REMARK    6  A    between atoms: O_13  and  C_14 
REMARK    7  A    between atoms: C_14  and  C_15 
REMARK    8  A    between atoms: C_24  and  S_25 
REMARK    9  A    between atoms: S_25  and  C_26 
ROOT
HETATM    1  C   UNL     1     -44.388  60.338 -50.724  1.00  0.00     0.280 C 
HETATM    2  N   UNL     1     -43.599  59.083 -51.129  1.00  0.00    -0.053 N 
HETATM    3  H   UNL     1     -42.844  58.943 -50.444  1.00  0.00     0.281 HD
HETATM    4  C   UNL     1     -43.030  59.472 -52.478  1.00  0.00     0.252 C 
HETATM    5  C   UNL     1     -44.110  60.348 -53.134  1.00  0.00     0.083 C 
HETATM    6  C   UNL     1     -45.098  60.710 -52.016  1.00  0.00     0.060 C 
ENDROOT
BRANCH   2   7
HETATM    7  C   UNL     1     -44.387  57.785 -51.136  1.00  0.00     0.274 C 
BRANCH   7   8
HETATM    8  C   UNL     1     -43.516  56.563 -51.006  1.00  0.00    -0.032 A 
HETATM    9  C   UNL     1     -44.085  55.280 -50.944  1.00  0.00     0.011 A 
HETATM   10  C   UNL     1     -43.274  54.146 -50.814  1.00  0.00     0.037 A 
HETATM   11  C   UNL     1     -41.891  54.285 -50.744  1.00  0.00     0.069 A 
HETATM   12  C   UNL     1     -41.321  55.557 -50.776  1.00  0.00     0.037 A 
HETATM   13  C   UNL     1     -42.122  56.688 -50.923  1.00  0.00     0.011 A 
BRANCH  11  14
HETATM   14  O   UNL     1     -41.001  53.260 -50.600  1.00  0.00    -0.347 OA
BRANCH  14  15
HETATM   15  C   UNL     1     -39.878  53.276 -51.481  1.00  0.00     0.214 C 
BRANCH  15  16
HETATM   16  C   UNL     1     -39.801  51.919 -52.134  1.00  0.00    -0.034 A 
HETATM   17  C   UNL     1     -39.647  50.764 -51.354  1.00  0.00     0.009 A 
HETATM   18  C   UNL     1     -39.537  49.510 -51.958  1.00  0.00     0.001 A 
HETATM   19  C   UNL     1     -39.576  49.399 -53.347  1.00  0.00     0.000 A 
HETATM   20  C   UNL     1     -39.720  50.541 -54.133  1.00  0.00     0.001 A 
HETATM   21  C   UNL     1     -39.829  51.796 -53.531  1.00  0.00     0.009 A 
ENDBRANCH  15  16
ENDBRANCH  14  15
ENDBRANCH  11  14
ENDBRANCH   7   8
ENDBRANCH   2   7
BRANCH   1  22
HETATM   22  C   UNL     1     -45.255  60.161 -49.468  1.00  0.00     0.249 C 
HETATM   23  N   UNL     1     -44.897  60.895 -48.361  1.00  0.00    -0.355 N 
HETATM   24  H   UNL     1     -43.988  61.340 -48.312  1.00  0.00     0.162 HD
HETATM   25  O   UNL     1     -46.205  59.380 -49.485  1.00  0.00    -0.271 OA
BRANCH  23  26
HETATM   26  C   UNL     1     -45.611  60.767 -47.090  1.00  0.00     0.076 C 
HETATM   27  C   UNL     1     -46.761  61.767 -47.040  1.00  0.00     0.032 C 
HETATM   28  C   UNL     1     -44.656  60.977 -45.917  1.00  0.00     0.032 C 
ENDBRANCH  23  26
ENDBRANCH   1  22
BRANCH   5  29
HETATM   29  S   UNL     1     -45.005  59.518 -54.498  1.00  0.00    -0.085 SA
BRANCH  29  30
HETATM   30  C   UNL     1     -44.070  58.076 -54.627  1.00  0.00     0.168 A 
HETATM   31  N   UNL     1     -42.780  58.015 -54.838  1.00  0.00    -0.223 NA
HETATM   32  C   UNL     1     -42.499  56.665 -54.837  1.00  0.00     0.086 A 
HETATM   33  C   UNL     1     -43.653  55.915 -54.614  1.00  0.00     0.063 A 
HETATM   34  C   UNL     1     -41.278  56.001 -55.018  1.00  0.00     0.034 A 
HETATM   35  N   UNL     1     -44.647  56.850 -54.483  1.00  0.00    -0.333 N 
HETATM   36  C   UNL     1     -43.663  54.520 -54.560  1.00  0.00     0.032 A 
HETATM   37  H   UNL     1     -45.625  56.668 -54.315  1.00  0.00     0.168 HD
HETATM   38  C   UNL     1     -42.434  53.877 -54.744  1.00  0.00     0.002 A 
HETATM   39  C   UNL     1     -41.261  54.602 -54.969  1.00  0.00     0.002 A 
ENDBRANCH  29  30
ENDBRANCH   5  29
TORSDOF 9
ENDMDL
MODEL 2
REMARK VINA RESULT:      -8.8      2.373      2.808
REMARK  9 active torsions:
REMARK  status: ('A' for Active; 'I' for Inactive)
REMARK    1  A    between atoms: C_2  and  N_3 
REMARK       I    between atoms: N_3  and  C_4 
REMARK    2  A    between atoms: C_4  and  C_5 
REMARK    3  A    between atoms: N_6  and  C_8 
REMARK    4  A    between atoms: C_8  and  C_9 
REMARK    5  A    between atoms: C_12  and  O_13 
REMARK    6  A    between atoms: O_13  and  C_14 
REMARK    7  A    between atoms: C_14  and  C_15 
REMARK    8  A    between atoms: C_24  and  S_25 
REMARK    9  A    between atoms: S_25  and  C_26 
ROOT
HETATM    1  C   UNL     1     -42.486  60.538 -52.269  1.00  0.00     0.280 C 
HETATM    2  N   UNL     1     -42.294  59.083 -52.725  1.00  0.00    -0.053 N 
HETATM    3  H   UNL     1     -41.389  58.751 -52.365  1.00  0.00     0.281 HD
HETATM    4  C   UNL     1     -42.251  59.213 -54.234  1.00  0.00     0.252 C 
HETATM    5  C   UNL     1     -43.235  60.347 -54.568  1.00  0.00     0.083 C 
HETATM    6  C   UNL     1     -43.541  61.048 -53.237  1.00  0.00     0.060 C 
ENDROOT
BRANCH   2   7
HETATM    7  C   UNL     1     -43.323  58.092 -52.214  1.00  0.00     0.274 C 
BRANCH   7   8
HETATM    8  C   UNL     1     -42.717  56.793 -51.751  1.00  0.00    -0.032 A 
HETATM    9  C   UNL     1     -41.559  56.785 -50.957  1.00  0.00     0.011 A 
HETATM   10  C   UNL     1     -40.992  55.576 -50.536  1.00  0.00     0.037 A 
HETATM   11  C   UNL     1     -41.577  54.367 -50.906  1.00  0.00     0.069 A 
HETATM   12  C   UNL     1     -42.710  54.367 -51.717  1.00  0.00     0.037 A 
HETATM   13  C   UNL     1     -43.289  55.569 -52.125  1.00  0.00     0.011 A 
BRANCH  11  14
HETATM   14  O   UNL     1     -41.108  53.130 -50.572  1.00  0.00    -0.347 OA
BRANCH  14  15
HETATM   15  C   UNL     1     -39.756  52.851 -50.938  1.00  0.00     0.214 C 
BRANCH  15  16
HETATM   16  C   UNL     1     -39.793  51.847 -52.062  1.00  0.00    -0.034 A 
HETATM   17  C   UNL     1     -40.119  52.251 -53.364  1.00  0.00     0.009 A 
HETATM   18  C   UNL     1     -40.192  51.316 -54.399  1.00  0.00     0.001 A 
HETATM   19  C   UNL     1     -39.944  49.970 -54.141  1.00  0.00     0.000 A 
HETATM   20  C   UNL     1     -39.627  49.554 -52.849  1.00  0.00     0.001 A 
HETATM   21  C   UNL     1     -39.555  50.487 -51.813  1.00  0.00     0.009 A 
ENDBRANCH  15  16
ENDBRANCH  14  15
ENDBRANCH  11  14
ENDBRANCH   7   8
ENDBRANCH   2   7
BRANCH   1  22
HETATM   22  C   UNL     1     -42.771  60.697 -50.767  1.00  0.00     0.249 C 
HETATM   23  N   UNL     1     -43.917  61.375 -50.424  1.00  0.00    -0.355 N 
HETATM   24  H   UNL     1     -44.411  61.930 -51.113  1.00  0.00     0.162 HD
HETATM   25  O   UNL     1     -41.981  60.240 -49.942  1.00  0.00    -0.271 OA
BRANCH  23  26
HETATM   26  C   UNL     1     -44.265  61.640 -49.028  1.00  0.00     0.076 C 
HETATM   27  C   UNL     1     -45.514  60.852 -48.647  1.00  0.00     0.032 C 
HETATM   28  C   UNL     1     -44.475  63.136 -48.803  1.00  0.00     0.032 C 
ENDBRANCH  23  26
ENDBRANCH   1  22
BRANCH   5  29
HETATM   29  S   UNL     1     -44.795  59.769 -55.329  1.00  0.00    -0.085 SA
BRANCH  29  30
HETATM   30  C   UNL     1     -44.159  58.857 -56.645  1.00  0.00     0.168 A 
HETATM   31  N   UNL     1     -43.483  59.339 -57.658  1.00  0.00    -0.223 NA
HETATM   32  C   UNL     1     -43.178  58.232 -58.421  1.00  0.00     0.086 A 
HETATM   33  C   UNL     1     -43.681  57.070 -57.839  1.00  0.00     0.063 A 
HETATM   34  C   UNL     1     -42.468  58.141 -59.626  1.00  0.00     0.034 A 
HETATM   35  N   UNL     1     -44.307  57.503 -56.699  1.00  0.00    -0.333 N 
HETATM   36  C   UNL     1     -43.518  55.800 -58.396  1.00  0.00     0.032 A 
HETATM   37  H   UNL     1     -44.792  56.930 -56.025  1.00  0.00     0.168 HD
HETATM   38  C   UNL     1     -42.807  55.730 -59.599  1.00  0.00     0.002 A 
HETATM   39  C   UNL     1     -42.290  56.878 -60.206  1.00  0.00     0.002 A 
ENDBRANCH  29  30
ENDBRANCH   5  29
TORSDOF 9
ENDMDL
MODEL 3
REMARK VINA RESULT:      -8.7      3.262      6.585
REMARK  9 active torsions:
REMARK  status: ('A' for Active; 'I' for Inactive)
REMARK    1  A    between atoms: C_2  and  N_3 
REMARK       I    between atoms: N_3  and  C_4 
REMARK    2  A    between atoms: C_4  and  C_5 
REMARK    3  A    between atoms: N_6  and  C_8 
REMARK    4  A    between atoms: C_8  and  C_9 
REMARK    5  A    between atoms: C_12  and  O_13 
REMARK    6  A    between atoms: O_13  and  C_14 
REMARK    7  A    between atoms: C_14  and  C_15 
REMARK    8  A    between atoms: C_24  and  S_25 
REMARK    9  A    between atoms: S_25  and  C_26 
ROOT
HETATM    1  C   UNL     1     -45.350  58.916 -57.456  1.00  0.00     0.280 C 
HETATM    2  N   UNL     1     -44.528  58.253 -56.339  1.00  0.00    -0.053 N 
HETATM    3  H   UNL     1     -44.990  57.371 -56.081  1.00  0.00     0.281 HD
HETATM    4  C   UNL     1     -44.632  59.259 -55.211  1.00  0.00     0.252 C 
HETATM    5  C   UNL     1     -44.640  60.635 -55.898  1.00  0.00     0.083 C 
HETATM    6  C   UNL     1     -44.887  60.363 -57.389  1.00  0.00     0.060 C 
ENDROOT
BRANCH   2   7
HETATM    7  C   UNL     1     -43.105  57.874 -56.706  1.00  0.00     0.274 C 
BRANCH   7   8
HETATM    8  C   UNL     1     -42.655  56.581 -56.079  1.00  0.00    -0.032 A 
HETATM    9  C   UNL     1     -41.550  56.550 -55.213  1.00  0.00     0.011 A 
HETATM   10  C   UNL     1     -41.128  55.345 -54.637  1.00  0.00     0.037 A 
HETATM   11  C   UNL     1     -41.807  54.163 -54.923  1.00  0.00     0.069 A 
HETATM   12  C   UNL     1     -42.888  54.182 -55.803  1.00  0.00     0.037 A 
HETATM   13  C   UNL     1     -43.322  55.381 -56.366  1.00  0.00     0.011 A 
BRANCH  11  14
HETATM   14  O   UNL     1     -41.481  52.930 -54.439  1.00  0.00    -0.347 OA
BRANCH  14  15
HETATM   15  C   UNL     1     -40.088  52.616 -54.405  1.00  0.00     0.214 C 
BRANCH  15  16
HETATM   16  C   UNL     1     -39.878  51.630 -53.284  1.00  0.00    -0.034 A 
HETATM   17  C   UNL     1     -39.710  50.266 -53.560  1.00  0.00     0.009 A 
HETATM   18  C   UNL     1     -39.554  49.346 -52.522  1.00  0.00     0.001 A 
HETATM   19  C   UNL     1     -39.568  49.781 -51.198  1.00  0.00     0.000 A 
HETATM   20  C   UNL     1     -39.741  51.133 -50.910  1.00  0.00     0.001 A 
HETATM   21  C   UNL     1     -39.899  52.054 -51.947  1.00  0.00     0.009 A 
ENDBRANCH  15  16
ENDBRANCH  14  15
ENDBRANCH  11  14
ENDBRANCH   7   8
ENDBRANCH   2   7
BRANCH   1  22
HETATM   22  C   UNL     1     -45.255  58.207 -58.816  1.00  0.00     0.249 C 
HETATM   23  N   UNL     1     -45.499  56.853 -58.826  1.00  0.00    -0.355 N 
HETATM   24  H   UNL     1     -45.510  56.327 -57.960  1.00  0.00     0.162 HD
HETATM   25  O   UNL     1     -44.956  58.849 -59.822  1.00  0.00    -0.271 OA
BRANCH  23  26
HETATM   26  C   UNL     1     -45.381  56.060 -60.049  1.00  0.00     0.076 C 
HETATM   27  C   UNL     1     -46.749  55.924 -60.711  1.00  0.00     0.032 C 
HETATM   28  C   UNL     1     -44.787  54.688 -59.741  1.00  0.00     0.032 C 
ENDBRANCH  23  26
ENDBRANCH   1  22
BRANCH   5  29
HETATM   29  S   UNL     1     -43.081  61.570 -55.696  1.00  0.00    -0.085 SA
BRANCH  29  30
HETATM   30  C   UNL     1     -42.441  60.776 -54.307  1.00  0.00     0.168 A 
HETATM   31  N   UNL     1     -41.474  59.893 -54.304  1.00  0.00    -0.223 NA
HETATM   32  C   UNL     1     -41.309  59.574 -52.974  1.00  0.00     0.086 A 
HETATM   33  C   UNL     1     -42.197  60.290 -52.173  1.00  0.00     0.063 A 
HETATM   34  C   UNL     1     -40.416  58.678 -52.370  1.00  0.00     0.034 A 
HETATM   35  N   UNL     1     -42.912  61.055 -53.059  1.00  0.00    -0.333 N 
HETATM   36  C   UNL     1     -42.249  60.167 -50.784  1.00  0.00     0.032 A 
HETATM   37  H   UNL     1     -43.652  61.703 -52.833  1.00  0.00     0.168 HD
HETATM   38  C   UNL     1     -41.350  59.267 -50.200  1.00  0.00     0.002 A 
HETATM   39  C   UNL     1     -40.448  58.535 -50.977  1.00  0.00     0.002 A 
ENDBRANCH  29  30
ENDBRANCH   5  29
TORSDOF 9
ENDMDL
MODEL 4
REMARK VINA RESULT:      -8.7      3.192      6.787
REMARK  9 active torsions:
REMARK  status: ('A' for Active; 'I' for Inactive)
REMARK    1  A    between atoms: C_2  and  N_3 
REMARK       I    between atoms: N_3  and  C_4 
REMARK    2  A    between atoms: C_4  and  C_5 
REMARK    3  A    between atoms: N_6  and  C_8 
REMARK    4  A    between atoms: C_8  and  C_9 
REMARK    5  A    between atoms: C_12  and  O_13 
REMARK    6  A    between atoms: O_13  and  C_14 
REMARK    7  A    between atoms: C_14  and  C_15 
REMARK    8  A    between atoms: C_24  and  S_25 
REMARK    9  A    between atoms: S_25  and  C_26 
ROOT
HETATM    1  C   UNL     1     -45.094  58.519 -57.272  1.00  0.00     0.280 C 
HETATM    2  N   UNL     1     -44.210  57.931 -56.160  1.00  0.00    -0.053 N 
HETATM    3  H   UNL     1     -44.576  57.000 -55.919  1.00  0.00     0.281 HD
HETATM    4  C   UNL     1     -44.427  58.901 -55.017  1.00  0.00     0.252 C 
HETATM    5  C   UNL     1     -44.580  60.279 -55.683  1.00  0.00     0.083 C 
HETATM    6  C   UNL     1     -44.789  60.006 -57.179  1.00  0.00     0.060 C 
ENDROOT
BRANCH   2   7
HETATM    7  C   UNL     1     -42.753  57.712 -56.525  1.00  0.00     0.274 C 
BRANCH   7   8
HETATM    8  C   UNL     1     -42.146  56.513 -55.847  1.00  0.00    -0.032 A 
HETATM    9  C   UNL     1     -42.720  55.239 -55.992  1.00  0.00     0.011 A 
HETATM   10  C   UNL     1     -42.158  54.127 -55.354  1.00  0.00     0.037 A 
HETATM   11  C   UNL     1     -41.021  54.279 -54.564  1.00  0.00     0.069 A 
HETATM   12  C   UNL     1     -40.463  55.544 -54.393  1.00  0.00     0.037 A 
HETATM   13  C   UNL     1     -41.007  56.652 -55.040  1.00  0.00     0.011 A 
BRANCH  11  14
HETATM   14  O   UNL     1     -40.396  53.277 -53.881  1.00  0.00    -0.347 OA
BRANCH  14  15
HETATM   15  C   UNL     1     -41.171  52.626 -52.873  1.00  0.00     0.214 C 
BRANCH  15  16
HETATM   16  C   UNL     1     -41.153  53.511 -51.652  1.00  0.00    -0.034 A 
HETATM   17  C   UNL     1     -42.280  54.270 -51.309  1.00  0.00     0.009 A 
HETATM   18  C   UNL     1     -42.252  55.120 -50.201  1.00  0.00     0.001 A 
HETATM   19  C   UNL     1     -41.096  55.222 -49.430  1.00  0.00     0.000 A 
HETATM   20  C   UNL     1     -39.967  54.479 -49.766  1.00  0.00     0.001 A 
HETATM   21  C   UNL     1     -39.992  53.630 -50.874  1.00  0.00     0.009 A 
ENDBRANCH  15  16
ENDBRANCH  14  15
ENDBRANCH  11  14
ENDBRANCH   7   8
ENDBRANCH   2   7
BRANCH   1  22
HETATM   22  C   UNL     1     -44.917  57.847 -58.642  1.00  0.00     0.249 C 
HETATM   23  N   UNL     1     -45.277  56.522 -58.732  1.00  0.00    -0.355 N 
HETATM   24  H   UNL     1     -45.427  55.973 -57.894  1.00  0.00     0.162 HD
HETATM   25  O   UNL     1     -44.458  58.490 -59.585  1.00  0.00    -0.271 OA
BRANCH  23  26
HETATM   26  C   UNL     1     -45.099  55.760 -59.967  1.00  0.00     0.076 C 
HETATM   27  C   UNL     1     -46.415  55.711 -60.739  1.00  0.00     0.032 C 
HETATM   28  C   UNL     1     -44.597  54.351 -59.659  1.00  0.00     0.032 C 
ENDBRANCH  23  26
ENDBRANCH   1  22
BRANCH   5  29
HETATM   29  S   UNL     1     -43.131  61.373 -55.456  1.00  0.00    -0.085 SA
BRANCH  29  30
HETATM   30  C   UNL     1     -42.421  60.636 -54.070  1.00  0.00     0.168 A 
HETATM   31  N   UNL     1     -41.375  59.849 -54.071  1.00  0.00    -0.223 NA
HETATM   32  C   UNL     1     -41.182  59.538 -52.742  1.00  0.00     0.086 A 
HETATM   33  C   UNL     1     -42.135  60.162 -51.939  1.00  0.00     0.063 A 
HETATM   34  C   UNL     1     -40.208  58.728 -52.141  1.00  0.00     0.034 A 
HETATM   35  N   UNL     1     -42.918  60.860 -52.822  1.00  0.00    -0.333 N 
HETATM   36  C   UNL     1     -42.178  60.026 -50.550  1.00  0.00     0.032 A 
HETATM   37  H   UNL     1     -43.717  61.433 -52.594  1.00  0.00     0.168 HD
HETATM   38  C   UNL     1     -41.198  59.213 -49.970  1.00  0.00     0.002 A 
HETATM   39  C   UNL     1     -40.229  58.574 -50.749  1.00  0.00     0.002 A 
ENDBRANCH  29  30
ENDBRANCH   5  29
TORSDOF 9
ENDMDL
MODEL 5
REMARK VINA RESULT:      -8.6      3.184      3.828
REMARK  9 active torsions:
REMARK  status: ('A' for Active; 'I' for Inactive)
REMARK    1  A    between atoms: C_2  and  N_3 
REMARK       I    between atoms: N_3  and  C_4 
REMARK    2  A    between atoms: C_4  and  C_5 
REMARK    3  A    between atoms: N_6  and  C_8 
REMARK    4  A    between atoms: C_8  and  C_9 
REMARK    5  A    between atoms: C_12  and  O_13 
REMARK    6  A    between atoms: O_13  and  C_14 
REMARK    7  A    between atoms: C_14  and  C_15 
REMARK    8  A    between atoms: C_24  and  S_25 
REMARK    9  A    between atoms: S_25  and  C_26 
ROOT
HETATM    1  C   UNL     1     -42.820  60.773 -52.289  1.00  0.00     0.280 C 
HETATM    2  N   UNL     1     -42.253  59.387 -51.942  1.00  0.00    -0.053 N 
HETATM    3  H   UNL     1     -41.799  59.448 -51.021  1.00  0.00     0.281 HD
HETATM    4  C   UNL     1     -41.221  59.171 -53.030  1.00  0.00     0.252 C 
HETATM    5  C   UNL     1     -41.817  59.829 -54.286  1.00  0.00     0.083 C 
HETATM    6  C   UNL     1     -42.992  60.688 -53.798  1.00  0.00     0.060 C 
ENDROOT
BRANCH   2   7
HETATM    7  C   UNL     1     -43.273  58.270 -51.819  1.00  0.00     0.274 C 
BRANCH   7   8
HETATM    8  C   UNL     1     -42.661  56.947 -51.445  1.00  0.00    -0.032 A 
HETATM    9  C   UNL     1     -41.604  56.880 -50.522  1.00  0.00     0.011 A 
HETATM   10  C   UNL     1     -41.031  55.649 -50.181  1.00  0.00     0.037 A 
HETATM   11  C   UNL     1     -41.507  54.476 -50.761  1.00  0.00     0.069 A 
HETATM   12  C   UNL     1     -42.537  54.537 -51.699  1.00  0.00     0.037 A 
HETATM   13  C   UNL     1     -43.123  55.759 -52.029  1.00  0.00     0.011 A 
BRANCH  11  14
HETATM   14  O   UNL     1     -41.020  53.225 -50.523  1.00  0.00    -0.347 OA
BRANCH  14  15
HETATM   15  C   UNL     1     -39.702  52.962 -51.006  1.00  0.00     0.214 C 
BRANCH  15  16
HETATM   16  C   UNL     1     -39.816  51.895 -52.064  1.00  0.00    -0.034 A 
HETATM   17  C   UNL     1     -39.551  50.554 -51.753  1.00  0.00     0.009 A 
HETATM   18  C   UNL     1     -39.619  49.569 -52.740  1.00  0.00     0.001 A 
HETATM   19  C   UNL     1     -39.949  49.916 -54.049  1.00  0.00     0.000 A 
HETATM   20  C   UNL     1     -40.208  51.246 -54.373  1.00  0.00     0.001 A 
HETATM   21  C   UNL     1     -40.139  52.232 -53.387  1.00  0.00     0.009 A 
ENDBRANCH  15  16
ENDBRANCH  14  15
ENDBRANCH  11  14
ENDBRANCH   7   8
ENDBRANCH   2   7
BRANCH   1  22
HETATM   22  C   UNL     1     -44.049  61.178 -51.461  1.00  0.00     0.249 C 
HETATM   23  N   UNL     1     -43.825  61.522 -50.148  1.00  0.00    -0.355 N 
HETATM   24  H   UNL     1     -42.943  61.297 -49.702  1.00  0.00     0.162 HD
HETATM   25  O   UNL     1     -45.166  61.167 -51.977  1.00  0.00    -0.271 OA
BRANCH  23  26
HETATM   26  C   UNL     1     -44.922  61.868 -49.245  1.00  0.00     0.076 C 
HETATM   27  C   UNL     1     -45.098  63.383 -49.201  1.00  0.00     0.032 C 
HETATM   28  C   UNL     1     -44.662  61.309 -47.848  1.00  0.00     0.032 C 
ENDBRANCH  23  26
ENDBRANCH   1  22
BRANCH   5  29
HETATM   29  S   UNL     1     -42.410  58.632 -55.536  1.00  0.00    -0.085 SA
BRANCH  29  30
HETATM   30  C   UNL     1     -42.082  59.522 -56.974  1.00  0.00     0.168 A 
HETATM   31  N   UNL     1     -41.401  60.638 -57.048  1.00  0.00    -0.223 NA
HETATM   32  C   UNL     1     -41.393  60.943 -58.392  1.00  0.00     0.086 A 
HETATM   33  C   UNL     1     -42.082  59.981 -59.127  1.00  0.00     0.063 A 
HETATM   34  C   UNL     1     -40.814  62.030 -59.062  1.00  0.00     0.034 A 
HETATM   35  N   UNL     1     -42.514  59.080 -58.188  1.00  0.00    -0.333 N 
HETATM   36  C   UNL     1     -42.231  60.035 -60.514  1.00  0.00     0.032 A 
HETATM   37  H   UNL     1     -43.054  58.245 -58.360  1.00  0.00     0.168 HD
HETATM   38  C   UNL     1     -41.646  61.128 -61.165  1.00  0.00     0.002 A 
HETATM   39  C   UNL     1     -40.950  62.109 -60.454  1.00  0.00     0.002 A 
ENDBRANCH  29  30
ENDBRANCH   5  29
TORSDOF 9
ENDMDL
MODEL 6
REMARK VINA RESULT:      -8.6      2.791      5.820
REMARK  9 active torsions:
REMARK  status: ('A' for Active; 'I' for Inactive)
REMARK    1  A    between atoms: C_2  and  N_3 
REMARK       I    between atoms: N_3  and  C_4 
REMARK    2  A    between atoms: C_4  and  C_5 
REMARK    3  A    between atoms: N_6  and  C_8 
REMARK    4  A    between atoms: C_8  and  C_9 
REMARK    5  A    between atoms: C_12  and  O_13 
REMARK    6  A    between atoms: O_13  and  C_14 
REMARK    7  A    between atoms: C_14  and  C_15 
REMARK    8  A    between atoms: C_24  and  S_25 
REMARK    9  A    between atoms: S_25  and  C_26 
ROOT
HETATM    1  C   UNL     1     -43.685  59.867 -55.936  1.00  0.00     0.280 C 
HETATM    2  N   UNL     1     -43.589  58.524 -55.195  1.00  0.00    -0.053 N 
HETATM    3  H   UNL     1     -43.931  57.786 -55.825  1.00  0.00     0.281 HD
HETATM    4  C   UNL     1     -44.544  58.718 -54.035  1.00  0.00     0.252 C 
HETATM    5  C   UNL     1     -44.406  60.199 -53.643  1.00  0.00     0.083 C 
HETATM    6  C   UNL     1     -43.648  60.873 -54.796  1.00  0.00     0.060 C 
ENDROOT
BRANCH   2   7
HETATM    7  C   UNL     1     -42.192  58.095 -54.787  1.00  0.00     0.274 C 
BRANCH   7   8
HETATM    8  C   UNL     1     -42.018  56.600 -54.747  1.00  0.00    -0.032 A 
HETATM    9  C   UNL     1     -43.039  55.747 -55.198  1.00  0.00     0.011 A 
HETATM   10  C   UNL     1     -42.879  54.357 -55.152  1.00  0.00     0.037 A 
HETATM   11  C   UNL     1     -41.699  53.809 -54.653  1.00  0.00     0.069 A 
HETATM   12  C   UNL     1     -40.694  54.649 -54.178  1.00  0.00     0.037 A 
HETATM   13  C   UNL     1     -40.841  56.034 -54.237  1.00  0.00     0.011 A 
BRANCH  11  14
HETATM   14  O   UNL     1     -41.435  52.475 -54.542  1.00  0.00    -0.347 OA
BRANCH  14  15
HETATM   15  C   UNL     1     -40.059  52.117 -54.408  1.00  0.00     0.214 C 
BRANCH  15  16
HETATM   16  C   UNL     1     -39.930  51.292 -53.154  1.00  0.00    -0.034 A 
HETATM   17  C   UNL     1     -39.977  51.904 -51.893  1.00  0.00     0.009 A 
HETATM   18  C   UNL     1     -39.820  51.146 -50.731  1.00  0.00     0.001 A 
HETATM   19  C   UNL     1     -39.610  49.772 -50.817  1.00  0.00     0.000 A 
HETATM   20  C   UNL     1     -39.554  49.153 -52.065  1.00  0.00     0.001 A 
HETATM   21  C   UNL     1     -39.709  49.909 -53.228  1.00  0.00     0.009 A 
ENDBRANCH  15  16
ENDBRANCH  14  15
ENDBRANCH  11  14
ENDBRANCH   7   8
ENDBRANCH   2   7
BRANCH   1  22
HETATM   22  C   UNL     1     -42.656  60.041 -57.063  1.00  0.00     0.249 C 
HETATM   23  N   UNL     1     -42.933  59.414 -58.256  1.00  0.00    -0.355 N 
HETATM   24  H   UNL     1     -43.649  58.699 -58.305  1.00  0.00     0.162 HD
HETATM   25  O   UNL     1     -41.638  60.703 -56.867  1.00  0.00    -0.271 OA
BRANCH  23  26
HETATM   26  C   UNL     1     -42.001  59.458 -59.382  1.00  0.00     0.076 C 
HETATM   27  C   UNL     1     -42.374  60.604 -60.318  1.00  0.00     0.032 C 
HETATM   28  C   UNL     1     -41.999  58.125 -60.127  1.00  0.00     0.032 C 
ENDBRANCH  23  26
ENDBRANCH   1  22
BRANCH   5  29
HETATM   29  S   UNL     1     -43.501  60.466 -52.075  1.00  0.00    -0.085 SA
BRANCH  29  30
HETATM   30  C   UNL     1     -43.157  58.831 -51.654  1.00  0.00     0.168 A 
HETATM   31  N   UNL     1     -43.985  57.822 -51.756  1.00  0.00    -0.223 NA
HETATM   32  C   UNL     1     -43.252  56.737 -51.325  1.00  0.00     0.086 A 
HETATM   33  C   UNL     1     -41.960  57.117 -50.966  1.00  0.00     0.063 A 
HETATM   34  C   UNL     1     -43.622  55.389 -51.215  1.00  0.00     0.034 A 
HETATM   35  N   UNL     1     -41.929  58.469 -51.188  1.00  0.00    -0.333 N 
HETATM   36  C   UNL     1     -40.998  56.220 -50.496  1.00  0.00     0.032 A 
HETATM   37  H   UNL     1     -41.146  59.086 -51.033  1.00  0.00     0.168 HD
HETATM   38  C   UNL     1     -41.388  54.880 -50.393  1.00  0.00     0.002 A 
HETATM   39  C   UNL     1     -42.677  54.469 -50.745  1.00  0.00     0.002 A 
ENDBRANCH  29  30
ENDBRANCH   5  29
TORSDOF 9
ENDMDL
MODEL 7
REMARK VINA RESULT:      -8.5      3.059      6.258
REMARK  9 active torsions:
REMARK  status: ('A' for Active; 'I' for Inactive)
REMARK    1  A    between atoms: C_2  and  N_3 
REMARK       I    between atoms: N_3  and  C_4 
REMARK    2  A    between atoms: C_4  and  C_5 
REMARK    3  A    between atoms: N_6  and  C_8 
REMARK    4  A    between atoms: C_8  and  C_9 
REMARK    5  A    between atoms: C_12  and  O_13 
REMARK    6  A    between atoms: O_13  and  C_14 
REMARK    7  A    between atoms: C_14  and  C_15 
REMARK    8  A    between atoms: C_24  and  S_25 
REMARK    9  A    between atoms: S_25  and  C_26 
ROOT
HETATM    1  C   UNL     1     -45.689  58.576 -57.278  1.00  0.00     0.280 C 
HETATM    2  N   UNL     1     -45.040  57.712 -56.184  1.00  0.00    -0.053 N 
HETATM    3  H   UNL     1     -45.576  56.837 -56.107  1.00  0.00     0.281 HD
HETATM    4  C   UNL     1     -45.222  58.560 -54.942  1.00  0.00     0.252 C 
HETATM    5  C   UNL     1     -45.076  60.014 -55.422  1.00  0.00     0.083 C 
HETATM    6  C   UNL     1     -45.160  59.965 -56.954  1.00  0.00     0.060 C 
ENDROOT
BRANCH   2   7
HETATM    7  C   UNL     1     -43.606  57.288 -56.446  1.00  0.00     0.274 C 
BRANCH   7   8
HETATM    8  C   UNL     1     -43.055  56.377 -55.381  1.00  0.00    -0.032 A 
HETATM    9  C   UNL     1     -41.680  56.365 -55.089  1.00  0.00     0.011 A 
HETATM   10  C   UNL     1     -41.168  55.511 -54.105  1.00  0.00     0.037 A 
HETATM   11  C   UNL     1     -42.024  54.662 -53.407  1.00  0.00     0.069 A 
HETATM   12  C   UNL     1     -43.384  54.649 -53.710  1.00  0.00     0.037 A 
HETATM   13  C   UNL     1     -43.902  55.510 -54.678  1.00  0.00     0.011 A 
BRANCH  11  14
HETATM   14  O   UNL     1     -41.642  53.777 -52.442  1.00  0.00    -0.347 OA
BRANCH  14  15
HETATM   15  C   UNL     1     -40.237  53.543 -52.325  1.00  0.00     0.214 C 
BRANCH  15  16
HETATM   16  C   UNL     1     -40.010  52.067 -52.534  1.00  0.00    -0.034 A 
HETATM   17  C   UNL     1     -39.687  51.239 -51.450  1.00  0.00     0.009 A 
HETATM   18  C   UNL     1     -39.438  49.879 -51.647  1.00  0.00     0.001 A 
HETATM   19  C   UNL     1     -39.506  49.336 -52.928  1.00  0.00     0.000 A 
HETATM   20  C   UNL     1     -39.818  50.151 -54.015  1.00  0.00     0.001 A 
HETATM   21  C   UNL     1     -40.066  51.511 -53.820  1.00  0.00     0.009 A 
ENDBRANCH  15  16
ENDBRANCH  14  15
ENDBRANCH  11  14
ENDBRANCH   7   8
ENDBRANCH   2   7
BRANCH   1  22
HETATM   22  C   UNL     1     -45.473  58.055 -58.706  1.00  0.00     0.249 C 
HETATM   23  N   UNL     1     -45.800  56.739 -58.941  1.00  0.00    -0.355 N 
HETATM   24  H   UNL     1     -45.951  56.102 -58.167  1.00  0.00     0.162 HD
HETATM   25  O   UNL     1     -45.013  58.802 -59.569  1.00  0.00    -0.271 OA
BRANCH  23  26
HETATM   26  C   UNL     1     -45.584  56.113 -60.245  1.00  0.00     0.076 C 
HETATM   27  C   UNL     1     -46.881  56.126 -61.046  1.00  0.00     0.032 C 
HETATM   28  C   UNL     1     -45.063  54.688 -60.074  1.00  0.00     0.032 C 
ENDBRANCH  23  26
ENDBRANCH   1  22
BRANCH   5  29
HETATM   29  S   UNL     1     -43.503  60.802 -54.919  1.00  0.00    -0.085 SA
BRANCH  29  30
HETATM   30  C   UNL     1     -43.025  59.725 -53.662  1.00  0.00     0.168 A 
HETATM   31  N   UNL     1     -43.820  58.941 -52.979  1.00  0.00    -0.223 NA
HETATM   32  C   UNL     1     -42.978  58.268 -52.119  1.00  0.00     0.086 A 
HETATM   33  C   UNL     1     -41.654  58.662 -52.306  1.00  0.00     0.063 A 
HETATM   34  C   UNL     1     -43.272  57.300 -51.148  1.00  0.00     0.034 A 
HETATM   35  N   UNL     1     -41.716  59.600 -53.304  1.00  0.00    -0.333 N 
HETATM   36  C   UNL     1     -40.587  58.142 -51.571  1.00  0.00     0.032 A 
HETATM   37  H   UNL     1     -40.939  60.108 -53.700  1.00  0.00     0.168 HD
HETATM   38  C   UNL     1     -40.902  57.177 -50.607  1.00  0.00     0.002 A 
HETATM   39  C   UNL     1     -42.220  56.762 -50.397  1.00  0.00     0.002 A 
ENDBRANCH  29  30
ENDBRANCH   5  29
TORSDOF 9
ENDMDL
MODEL 8
REMARK VINA RESULT:      -8.5      2.692      4.411
REMARK  9 active torsions:
REMARK  status: ('A' for Active; 'I' for Inactive)
REMARK    1  A    between atoms: C_2  and  N_3 
REMARK       I    between atoms: N_3  and  C_4 
REMARK    2  A    between atoms: C_4  and  C_5 
REMARK    3  A    between atoms: N_6  and  C_8 
REMARK    4  A    between atoms: C_8  and  C_9 
REMARK    5  A    between atoms: C_12  and  O_13 
REMARK    6  A    between atoms: O_13  and  C_14 
REMARK    7  A    between atoms: C_14  and  C_15 
REMARK    8  A    between atoms: C_24  and  S_25 
REMARK    9  A    between atoms: S_25  and  C_26 
ROOT
HETATM    1  C   UNL     1     -42.683  58.576 -52.487  1.00  0.00     0.280 C 
HETATM    2  N   UNL     1     -42.200  57.973 -53.816  1.00  0.00    -0.053 N 
HETATM    3  H   UNL     1     -41.255  57.594 -53.671  1.00  0.00     0.281 HD
HETATM    4  C   UNL     1     -42.155  59.181 -54.730  1.00  0.00     0.252 C 
HETATM    5  C   UNL     1     -43.336  60.062 -54.290  1.00  0.00     0.083 C 
HETATM    6  C   UNL     1     -43.799  59.506 -52.936  1.00  0.00     0.060 C 
ENDROOT
BRANCH   2   7
HETATM    7  C   UNL     1     -43.024  56.816 -54.352  1.00  0.00     0.274 C 
BRANCH   7   8
HETATM    8  C   UNL     1     -42.251  55.527 -54.436  1.00  0.00    -0.032 A 
HETATM    9  C   UNL     1     -40.858  55.536 -54.620  1.00  0.00     0.011 A 
HETATM   10  C   UNL     1     -40.143  54.336 -54.706  1.00  0.00     0.037 A 
HETATM   11  C   UNL     1     -40.813  53.118 -54.611  1.00  0.00     0.069 A 
HETATM   12  C   UNL     1     -42.198  53.102 -54.457  1.00  0.00     0.037 A 
HETATM   13  C   UNL     1     -42.913  54.294 -54.353  1.00  0.00     0.011 A 
BRANCH  11  14
HETATM   14  O   UNL     1     -40.229  51.888 -54.698  1.00  0.00    -0.347 OA
BRANCH  14  15
HETATM   15  C   UNL     1     -39.063  51.689 -53.897  1.00  0.00     0.214 C 
BRANCH  15  16
HETATM   16  C   UNL     1     -39.528  51.253 -52.531  1.00  0.00    -0.034 A 
HETATM   17  C   UNL     1     -39.894  52.205 -51.568  1.00  0.00     0.009 A 
HETATM   18  C   UNL     1     -40.288  51.805 -50.290  1.00  0.00     0.001 A 
HETATM   19  C   UNL     1     -40.315  50.452 -49.960  1.00  0.00     0.000 A 
HETATM   20  C   UNL     1     -39.945  49.497 -50.905  1.00  0.00     0.001 A 
HETATM   21  C   UNL     1     -39.550  49.895 -52.184  1.00  0.00     0.009 A 
ENDBRANCH  15  16
ENDBRANCH  14  15
ENDBRANCH  11  14
ENDBRANCH   7   8
ENDBRANCH   2   7
BRANCH   1  22
HETATM   22  C   UNL     1     -43.022  57.537 -51.408  1.00  0.00     0.249 C 
HETATM   23  N   UNL     1     -42.019  56.665 -51.052  1.00  0.00    -0.355 N 
HETATM   24  H   UNL     1     -41.191  56.571 -51.629  1.00  0.00     0.162 HD
HETATM   25  O   UNL     1     -44.151  57.505 -50.921  1.00  0.00    -0.271 OA
BRANCH  23  26
HETATM   26  C   UNL     1     -42.239  55.596 -50.079  1.00  0.00     0.076 C 
HETATM   27  C   UNL     1     -40.912  55.194 -49.442  1.00  0.00     0.032 C 
HETATM   28  C   UNL     1     -42.907  54.396 -50.746  1.00  0.00     0.032 C 
ENDBRANCH  23  26
ENDBRANCH   1  22
BRANCH   5  29
HETATM   29  S   UNL     1     -44.738  60.058 -55.466  1.00  0.00    -0.085 SA
BRANCH  29  30
HETATM   30  C   UNL     1     -44.053  59.116 -56.735  1.00  0.00     0.168 A 
HETATM   31  N   UNL     1     -44.306  57.854 -56.977  1.00  0.00    -0.223 NA
HETATM   32  C   UNL     1     -43.547  57.562 -58.090  1.00  0.00     0.086 A 
HETATM   33  C   UNL     1     -42.833  58.681 -58.516  1.00  0.00     0.063 A 
HETATM   34  C   UNL     1     -43.416  56.359 -58.798  1.00  0.00     0.034 A 
HETATM   35  N   UNL     1     -43.179  59.664 -57.625  1.00  0.00    -0.333 N 
HETATM   36  C   UNL     1     -41.984  58.674 -59.624  1.00  0.00     0.032 A 
HETATM   37  H   UNL     1     -42.848  60.617 -57.624  1.00  0.00     0.168 HD
HETATM   38  C   UNL     1     -41.867  57.463 -60.316  1.00  0.00     0.002 A 
HETATM   39  C   UNL     1     -42.569  56.324 -59.912  1.00  0.00     0.002 A 
ENDBRANCH  29  30
ENDBRANCH   5  29
TORSDOF 9
ENDMDL
MODEL 9
REMARK VINA RESULT:      -8.5      3.114      6.917
REMARK  9 active torsions:
REMARK  status: ('A' for Active; 'I' for Inactive)
REMARK    1  A    between atoms: C_2  and  N_3 
REMARK       I    between atoms: N_3  and  C_4 
REMARK    2  A    between atoms: C_4  and  C_5 
REMARK    3  A    between atoms: N_6  and  C_8 
REMARK    4  A    between atoms: C_8  and  C_9 
REMARK    5  A    between atoms: C_12  and  O_13 
REMARK    6  A    between atoms: O_13  and  C_14 
REMARK    7  A    between atoms: C_14  and  C_15 
REMARK    8  A    between atoms: C_24  and  S_25 
REMARK    9  A    between atoms: S_25  and  C_26 
ROOT
HETATM    1  C   UNL     1     -45.114  58.448 -56.945  1.00  0.00     0.280 C 
HETATM    2  N   UNL     1     -44.672  57.432 -55.879  1.00  0.00    -0.053 N 
HETATM    3  H   UNL     1     -45.366  56.673 -55.853  1.00  0.00     0.281 HD
HETATM    4  C   UNL     1     -44.726  58.247 -54.603  1.00  0.00     0.252 C 
HETATM    5  C   UNL     1     -44.293  59.666 -55.013  1.00  0.00     0.083 C 
HETATM    6  C   UNL     1     -44.341  59.696 -56.547  1.00  0.00     0.060 C 
ENDROOT
BRANCH   2   7
HETATM    7  C   UNL     1     -43.337  56.754 -56.130  1.00  0.00     0.274 C 
BRANCH   7   8
HETATM    8  C   UNL     1     -42.822  56.000 -54.933  1.00  0.00    -0.032 A 
HETATM    9  C   UNL     1     -41.552  56.279 -54.401  1.00  0.00     0.011 A 
HETATM   10  C   UNL     1     -41.071  55.570 -53.293  1.00  0.00     0.037 A 
HETATM   11  C   UNL     1     -41.854  54.577 -52.710  1.00  0.00     0.069 A 
HETATM   12  C   UNL     1     -43.104  54.276 -53.249  1.00  0.00     0.037 A 
HETATM   13  C   UNL     1     -43.595  54.990 -54.342  1.00  0.00     0.011 A 
BRANCH  11  14
HETATM   14  O   UNL     1     -41.489  53.810 -51.642  1.00  0.00    -0.347 OA
BRANCH  14  15
HETATM   15  C   UNL     1     -40.095  53.524 -51.523  1.00  0.00     0.214 C 
BRANCH  15  16
HETATM   16  C   UNL     1     -39.887  52.106 -51.991  1.00  0.00    -0.034 A 
HETATM   17  C   UNL     1     -39.834  51.810 -53.360  1.00  0.00     0.009 A 
HETATM   18  C   UNL     1     -39.680  50.493 -53.796  1.00  0.00     0.001 A 
HETATM   19  C   UNL     1     -39.582  49.458 -52.868  1.00  0.00     0.000 A 
HETATM   20  C   UNL     1     -39.642  49.738 -51.504  1.00  0.00     0.001 A 
HETATM   21  C   UNL     1     -39.797  51.055 -51.066  1.00  0.00     0.009 A 
ENDBRANCH  15  16
ENDBRANCH  14  15
ENDBRANCH  11  14
ENDBRANCH   7   8
ENDBRANCH   2   7
BRANCH   1  22
HETATM   22  C   UNL     1     -44.959  57.954 -58.391  1.00  0.00     0.249 C 
HETATM   23  N   UNL     1     -45.780  56.923 -58.784  1.00  0.00    -0.355 N 
HETATM   24  H   UNL     1     -46.285  56.377 -58.094  1.00  0.00     0.162 HD
HETATM   25  O   UNL     1     -44.119  58.468 -59.128  1.00  0.00    -0.271 OA
BRANCH  23  26
HETATM   26  C   UNL     1     -45.685  56.328 -60.117  1.00  0.00     0.076 C 
HETATM   27  C   UNL     1     -47.077  56.203 -60.728  1.00  0.00     0.032 C 
HETATM   28  C   UNL     1     -44.996  54.967 -60.048  1.00  0.00     0.032 C 
ENDBRANCH  23  26
ENDBRANCH   1  22
BRANCH   5  29
HETATM   29  S   UNL     1     -42.615  60.119 -54.442  1.00  0.00    -0.085 SA
BRANCH  29  30
HETATM   30  C   UNL     1     -43.019  61.015 -53.027  1.00  0.00     0.168 A 
HETATM   31  N   UNL     1     -42.937  62.315 -52.893  1.00  0.00    -0.223 NA
HETATM   32  C   UNL     1     -43.385  62.553 -51.611  1.00  0.00     0.086 A 
HETATM   33  C   UNL     1     -43.744  61.364 -50.978  1.00  0.00     0.063 A 
HETATM   34  C   UNL     1     -43.516  63.763 -50.916  1.00  0.00     0.034 A 
HETATM   35  N   UNL     1     -43.497  60.393 -51.914  1.00  0.00    -0.333 N 
HETATM   36  C   UNL     1     -44.234  61.307 -49.672  1.00  0.00     0.032 A 
HETATM   37  H   UNL     1     -43.639  59.400 -51.801  1.00  0.00     0.168 HD
HETATM   38  C   UNL     1     -44.357  62.526 -48.995  1.00  0.00     0.002 A 
HETATM   39  C   UNL     1     -44.004  63.734 -49.604  1.00  0.00     0.002 A 
ENDBRANCH  29  30
ENDBRANCH   5  29
TORSDOF 9
ENDMDL
MODEL 10
REMARK VINA RESULT:      -8.5      3.973      7.360
REMARK  9 active torsions:
REMARK  status: ('A' for Active; 'I' for Inactive)
REMARK    1  A    between atoms: C_2  and  N_3 
REMARK       I    between atoms: N_3  and  C_4 
REMARK    2  A    between atoms: C_4  and  C_5 
REMARK    3  A    between atoms: N_6  and  C_8 
REMARK    4  A    between atoms: C_8  and  C_9 
REMARK    5  A    between atoms: C_12  and  O_13 
REMARK    6  A    between atoms: O_13  and  C_14 
REMARK    7  A    between atoms: C_14  and  C_15 
REMARK    8  A    between atoms: C_24  and  S_25 
REMARK    9  A    between atoms: S_25  and  C_26 
ROOT
HETATM    1  C   UNL     1     -43.832  56.449 -51.433  1.00  0.00     0.280 C 
HETATM    2  N   UNL     1     -43.255  55.621 -52.593  1.00  0.00    -0.053 N 
HETATM    3  H   UNL     1     -44.010  55.452 -53.272  1.00  0.00     0.281 HD
HETATM    4  C   UNL     1     -42.854  54.330 -51.910  1.00  0.00     0.252 C 
HETATM    5  C   UNL     1     -42.366  54.749 -50.512  1.00  0.00     0.083 C 
HETATM    6  C   UNL     1     -42.823  56.203 -50.322  1.00  0.00     0.060 C 
ENDROOT
BRANCH   2   7
HETATM    7  C   UNL     1     -42.140  56.282 -53.382  1.00  0.00     0.274 C 
BRANCH   7   8
HETATM    8  C   UNL     1     -42.397  56.306 -54.866  1.00  0.00    -0.032 A 
HETATM    9  C   UNL     1     -42.634  55.115 -55.572  1.00  0.00     0.011 A 
HETATM   10  C   UNL     1     -42.865  55.139 -56.953  1.00  0.00     0.037 A 
HETATM   11  C   UNL     1     -42.858  56.352 -57.638  1.00  0.00     0.069 A 
HETATM   12  C   UNL     1     -42.596  57.534 -56.948  1.00  0.00     0.037 A 
HETATM   13  C   UNL     1     -42.383  57.518 -55.571  1.00  0.00     0.011 A 
BRANCH  11  14
HETATM   14  O   UNL     1     -43.052  56.500 -58.980  1.00  0.00    -0.347 OA
BRANCH  14  15
HETATM   15  C   UNL     1     -43.975  55.593 -59.585  1.00  0.00     0.214 C 
BRANCH  15  16
HETATM   16  C   UNL     1     -45.151  56.404 -60.067  1.00  0.00    -0.034 A 
HETATM   17  C   UNL     1     -45.129  57.804 -59.985  1.00  0.00     0.009 A 
HETATM   18  C   UNL     1     -46.232  58.555 -60.395  1.00  0.00     0.001 A 
HETATM   19  C   UNL     1     -47.368  57.915 -60.886  1.00  0.00     0.000 A 
HETATM   20  C   UNL     1     -47.405  56.524 -60.965  1.00  0.00     0.001 A 
HETATM   21  C   UNL     1     -46.303  55.771 -60.554  1.00  0.00     0.009 A 
ENDBRANCH  15  16
ENDBRANCH  14  15
ENDBRANCH  11  14
ENDBRANCH   7   8
ENDBRANCH   2   7
BRANCH   1  22
HETATM   22  C   UNL     1     -44.141  57.911 -51.793  1.00  0.00     0.249 C 
HETATM   23  N   UNL     1     -43.575  58.877 -50.995  1.00  0.00    -0.355 N 
HETATM   24  H   UNL     1     -43.174  58.632 -50.097  1.00  0.00     0.162 HD
HETATM   25  O   UNL     1     -44.877  58.164 -52.746  1.00  0.00    -0.271 OA
BRANCH  23  26
HETATM   26  C   UNL     1     -43.843  60.300 -51.203  1.00  0.00     0.076 C 
HETATM   27  C   UNL     1     -42.820  60.884 -52.173  1.00  0.00     0.032 C 
HETATM   28  C   UNL     1     -43.820  61.048 -49.872  1.00  0.00     0.032 C 
ENDBRANCH  23  26
ENDBRANCH   1  22
BRANCH   5  29
HETATM   29  S   UNL     1     -40.552  54.644 -50.303  1.00  0.00    -0.085 SA
BRANCH  29  30
HETATM   30  C   UNL     1     -40.235  53.209 -51.201  1.00  0.00     0.168 A 
HETATM   31  N   UNL     1     -40.036  52.017 -50.698  1.00  0.00    -0.223 NA
HETATM   32  C   UNL     1     -39.851  51.209 -51.800  1.00  0.00     0.086 A 
HETATM   33  C   UNL     1     -39.950  51.944 -52.981  1.00  0.00     0.063 A 
HETATM   34  C   UNL     1     -39.596  49.832 -51.872  1.00  0.00     0.034 A 
HETATM   35  N   UNL     1     -40.197  53.226 -52.563  1.00  0.00    -0.333 N 
HETATM   36  C   UNL     1     -39.808  51.380 -54.250  1.00  0.00     0.032 A 
HETATM   37  H   UNL     1     -40.324  54.036 -53.152  1.00  0.00     0.168 HD
HETATM   38  C   UNL     1     -39.554  50.005 -54.300  1.00  0.00     0.002 A 
HETATM   39  C   UNL     1     -39.449  49.242 -53.133  1.00  0.00     0.002 A 
ENDBRANCH  29  30
ENDBRANCH   5  29
TORSDOF 9
ENDMDL
