MODEL 1
REMARK VINA RESULT:      -7.7      0.000      0.000
REMARK  5 active torsions:
REMARK  status: ('A' for Active; 'I' for Inactive)
REMARK    1  A    between atoms: O_2  and  C_3 
REMARK    2  A    between atoms: C_5  and  C_6 
REMARK    3  A    between atoms: C_10  and  C_11 
REMARK       I    between atoms: C_11  and  N_12 
REMARK    4  A    between atoms: N_12  and  C_13 
REMARK    5  A    between atoms: C_13  and  C_14 
ROOT
HETATM    1  C   UNL     1     -42.350  54.607 -52.780  1.00  0.00     0.089 A 
HETATM    2  N   UNL     1     -43.209  55.174 -51.919  1.00  0.00    -0.174 NA
HETATM    3  N   UNL     1     -43.880  56.075 -52.652  1.00  0.00    -0.272 N 
HETATM    4  H   UNL     1     -44.589  56.647 -52.204  1.00  0.00     0.189 HD
HETATM    5  C   UNL     1     -43.523  56.104 -53.971  1.00  0.00     0.120 A 
HETATM    6  C   UNL     1     -42.521  55.161 -54.080  1.00  0.00     0.071 A 
ENDROOT
BRANCH   5   7
HETATM    7  C   UNL     1     -44.160  56.992 -54.906  1.00  0.00     0.269 C 
HETATM    8  N   UNL     1     -43.448  57.233 -56.056  1.00  0.00    -0.355 N 
HETATM    9  H   UNL     1     -42.538  56.812 -56.175  1.00  0.00     0.162 HD
HETATM   10  O   UNL     1     -45.260  57.489 -54.687  1.00  0.00    -0.266 OA
BRANCH   8  11
HETATM   11  C   UNL     1     -43.913  58.133 -57.090  1.00  0.00     0.128 C 
BRANCH  11  12
HETATM   12  C   UNL     1     -44.370  57.385 -58.341  1.00  0.00     0.012 C 
HETATM   13  C   UNL     1     -44.035  58.070 -59.695  1.00  0.00     0.014 C 
HETATM   14  C   UNL     1     -44.176  56.880 -60.650  1.00  0.00     0.017 C 
HETATM   15  C   UNL     1     -42.542  58.278 -59.807  1.00  0.00    -0.025 C 
HETATM   16  C   UNL     1     -43.107  56.052 -59.930  1.00  0.00     0.009 C 
HETATM   17  C   UNL     1     -41.985  57.064 -59.938  1.00  0.00    -0.026 C 
HETATM   18  C   UNL     1     -43.680  55.991 -58.498  1.00  0.00     0.015 C 
ENDBRANCH  11  12
ENDBRANCH   8  11
ENDBRANCH   5   7
BRANCH   1  19
HETATM   19  C   UNL     1     -41.410  53.562 -52.363  1.00  0.00    -0.003 A 
HETATM   20  C   UNL     1     -40.742  52.785 -53.326  1.00  0.00     0.050 A 
HETATM   21  C   UNL     1     -39.832  51.798 -52.942  1.00  0.00     0.069 A 
HETATM   22  C   UNL     1     -39.590  51.581 -51.585  1.00  0.00     0.037 A 
HETATM   23  C   UNL     1     -40.251  52.336 -50.617  1.00  0.00     0.004 A 
HETATM   24  C   UNL     1     -41.158  53.323 -51.005  1.00  0.00     0.014 A 
BRANCH  21  25
HETATM   25  O   UNL     1     -39.119  50.989 -53.783  1.00  0.00    -0.356 OA
HETATM   26  C   UNL     1     -39.832  49.928 -54.409  1.00  0.00     0.210 C 
ENDBRANCH  21  25
ENDBRANCH   1  19
TORSDOF 5
ENDMDL
MODEL 2
REMARK VINA RESULT:      -7.6      2.142      3.127
REMARK  5 active torsions:
REMARK  status: ('A' for Active; 'I' for Inactive)
REMARK    1  A    between atoms: O_2  and  C_3 
REMARK    2  A    between atoms: C_5  and  C_6 
REMARK    3  A    between atoms: C_10  and  C_11 
REMARK       I    between atoms: C_11  and  N_12 
REMARK    4  A    between atoms: N_12  and  C_13 
REMARK    5  A    between atoms: C_13  and  C_14 
ROOT
HETATM    1  C   UNL     1     -41.931  54.072 -54.454  1.00  0.00     0.089 A 
HETATM    2  N   UNL     1     -43.205  54.340 -54.128  1.00  0.00    -0.174 NA
HETATM    3  N   UNL     1     -43.649  55.131 -55.118  1.00  0.00    -0.272 N 
HETATM    4  H   UNL     1     -44.602  55.478 -55.081  1.00  0.00     0.189 HD
HETATM    5  C   UNL     1     -42.730  55.369 -56.101  1.00  0.00     0.120 A 
HETATM    6  C   UNL     1     -41.598  54.695 -55.689  1.00  0.00     0.071 A 
ENDROOT
BRANCH   5   7
HETATM    7  C   UNL     1     -43.047  56.174 -57.251  1.00  0.00     0.269 C 
HETATM    8  N   UNL     1     -44.020  55.658 -58.071  1.00  0.00    -0.355 N 
HETATM    9  H   UNL     1     -44.434  54.764 -57.851  1.00  0.00     0.162 HD
HETATM   10  O   UNL     1     -42.486  57.243 -57.471  1.00  0.00    -0.266 OA
BRANCH   8  11
HETATM   11  C   UNL     1     -44.438  56.310 -59.295  1.00  0.00     0.128 C 
BRANCH  11  12
HETATM   12  C   UNL     1     -45.798  56.989 -59.149  1.00  0.00     0.012 C 
HETATM   13  C   UNL     1     -45.772  58.428 -58.562  1.00  0.00     0.014 C 
HETATM   14  C   UNL     1     -47.149  58.934 -59.010  1.00  0.00     0.017 C 
HETATM   15  C   UNL     1     -44.910  59.317 -59.429  1.00  0.00    -0.025 C 
HETATM   16  C   UNL     1     -46.855  58.711 -60.496  1.00  0.00     0.009 C 
HETATM   17  C   UNL     1     -45.556  59.477 -60.594  1.00  0.00    -0.026 C 
HETATM   18  C   UNL     1     -46.518  57.204 -60.519  1.00  0.00     0.015 C 
ENDBRANCH  11  12
ENDBRANCH   8  11
ENDBRANCH   5   7
BRANCH   1  19
HETATM   19  C   UNL     1     -41.074  53.235 -53.608  1.00  0.00    -0.003 A 
HETATM   20  C   UNL     1     -40.997  53.473 -52.224  1.00  0.00     0.050 A 
HETATM   21  C   UNL     1     -40.198  52.673 -51.405  1.00  0.00     0.069 A 
HETATM   22  C   UNL     1     -39.466  51.628 -51.972  1.00  0.00     0.037 A 
HETATM   23  C   UNL     1     -39.525  51.384 -53.344  1.00  0.00     0.004 A 
HETATM   24  C   UNL     1     -40.327  52.185 -54.158  1.00  0.00     0.014 A 
BRANCH  21  25
HETATM   25  O   UNL     1     -40.049  52.801 -50.051  1.00  0.00    -0.356 OA
HETATM   26  C   UNL     1     -40.021  54.126 -49.533  1.00  0.00     0.210 C 
ENDBRANCH  21  25
ENDBRANCH   1  19
TORSDOF 5
ENDMDL
MODEL 3
REMARK VINA RESULT:      -7.5      2.032      3.062
REMARK  5 active torsions:
REMARK  status: ('A' for Active; 'I' for Inactive)
REMARK    1  A    between atoms: O_2  and  C_3 
REMARK    2  A    between atoms: C_5  and  C_6 
REMARK    3  A    between atoms: C_10  and  C_11 
REMARK       I    between atoms: C_11  and  N_12 
REMARK    4  A    between atoms: N_12  and  C_13 
REMARK    5  A    between atoms: C_13  and  C_14 
ROOT
HETATM    1  C   UNL     1     -42.072  54.090 -54.369  1.00  0.00     0.089 A 
HETATM    2  N   UNL     1     -43.319  54.424 -54.003  1.00  0.00    -0.174 NA
HETATM    3  N   UNL     1     -43.793  55.144 -55.031  1.00  0.00    -0.272 N 
HETATM    4  H   UNL     1     -44.732  55.525 -54.976  1.00  0.00     0.189 HD
HETATM    5  C   UNL     1     -42.922  55.270 -56.077  1.00  0.00     0.120 A 
HETATM    6  C   UNL     1     -41.788  54.597 -55.668  1.00  0.00     0.071 A 
ENDROOT
BRANCH   5   7
HETATM    7  C   UNL     1     -43.277  55.987 -57.273  1.00  0.00     0.269 C 
HETATM    8  N   UNL     1     -43.937  57.173 -57.064  1.00  0.00    -0.355 N 
HETATM    9  H   UNL     1     -44.154  57.463 -56.122  1.00  0.00     0.162 HD
HETATM   10  O   UNL     1     -43.002  55.565 -58.392  1.00  0.00    -0.266 OA
BRANCH   8  11
HETATM   11  C   UNL     1     -44.408  58.008 -58.150  1.00  0.00     0.128 C 
BRANCH  11  12
HETATM   12  C   UNL     1     -43.664  59.340 -58.215  1.00  0.00     0.012 C 
HETATM   13  C   UNL     1     -42.144  59.247 -58.526  1.00  0.00     0.014 C 
HETATM   14  C   UNL     1     -41.866  60.683 -58.983  1.00  0.00     0.017 C 
HETATM   15  C   UNL     1     -41.935  58.542 -59.847  1.00  0.00    -0.025 C 
HETATM   16  C   UNL     1     -42.883  60.619 -60.126  1.00  0.00     0.009 C 
HETATM   17  C   UNL     1     -42.389  59.363 -60.806  1.00  0.00    -0.026 C 
HETATM   18  C   UNL     1     -44.179  60.265 -59.364  1.00  0.00     0.015 C 
ENDBRANCH  11  12
ENDBRANCH   8  11
ENDBRANCH   5   7
BRANCH   1  19
HETATM   19  C   UNL     1     -41.195  53.298 -53.500  1.00  0.00    -0.003 A 
HETATM   20  C   UNL     1     -41.127  53.573 -52.123  1.00  0.00     0.050 A 
HETATM   21  C   UNL     1     -40.309  52.816 -51.282  1.00  0.00     0.069 A 
HETATM   22  C   UNL     1     -39.547  51.778 -51.822  1.00  0.00     0.037 A 
HETATM   23  C   UNL     1     -39.596  51.498 -53.186  1.00  0.00     0.004 A 
HETATM   24  C   UNL     1     -40.418  52.255 -54.022  1.00  0.00     0.014 A 
BRANCH  21  25
HETATM   25  O   UNL     1     -40.166  52.983 -49.932  1.00  0.00    -0.356 OA
HETATM   26  C   UNL     1     -39.743  54.267 -49.487  1.00  0.00     0.210 C 
ENDBRANCH  21  25
ENDBRANCH   1  19
TORSDOF 5
ENDMDL
MODEL 4
REMARK VINA RESULT:      -7.5     14.783     17.955
REMARK  5 active torsions:
REMARK  status: ('A' for Active; 'I' for Inactive)
REMARK    1  A    between atoms: O_2  and  C_3 
REMARK    2  A    between atoms: C_5  and  C_6 
REMARK    3  A    between atoms: C_10  and  C_11 
REMARK       I    between atoms: C_11  and  N_12 
REMARK    4  A    between atoms: N_12  and  C_13 
REMARK    5  A    between atoms: C_13  and  C_14 
ROOT
HETATM    1  C   UNL     1     -35.912  41.588 -56.858  1.00  0.00     0.089 A 
HETATM    2  N   UNL     1     -34.645  41.979 -56.655  1.00  0.00    -0.174 NA
HETATM    3  N   UNL     1     -34.554  42.160 -55.328  1.00  0.00    -0.272 N 
HETATM    4  H   UNL     1     -33.674  42.476 -54.932  1.00  0.00     0.189 HD
HETATM    5  C   UNL     1     -35.701  41.873 -54.643  1.00  0.00     0.120 A 
HETATM    6  C   UNL     1     -36.606  41.504 -55.618  1.00  0.00     0.071 A 
ENDROOT
BRANCH   5   7
HETATM    7  C   UNL     1     -35.773  41.987 -53.211  1.00  0.00     0.269 C 
HETATM    8  N   UNL     1     -34.595  41.743 -52.548  1.00  0.00    -0.355 N 
HETATM    9  H   UNL     1     -33.774  41.483 -53.074  1.00  0.00     0.162 HD
HETATM   10  O   UNL     1     -36.814  42.285 -52.632  1.00  0.00    -0.266 OA
BRANCH   8  11
HETATM   11  C   UNL     1     -34.489  41.772 -51.104  1.00  0.00     0.128 C 
BRANCH  11  12
HETATM   12  C   UNL     1     -33.197  41.125 -50.610  1.00  0.00     0.012 C 
HETATM   13  C   UNL     1     -33.369  39.800 -49.817  1.00  0.00     0.014 C 
HETATM   14  C   UNL     1     -31.950  39.228 -49.923  1.00  0.00     0.017 C 
HETATM   15  C   UNL     1     -34.089  38.782 -50.672  1.00  0.00    -0.025 C 
HETATM   16  C   UNL     1     -31.969  39.208 -51.454  1.00  0.00     0.009 C 
HETATM   17  C   UNL     1     -33.251  38.436 -51.661  1.00  0.00    -0.026 C 
HETATM   18  C   UNL     1     -32.252  40.691 -51.776  1.00  0.00     0.015 C 
ENDBRANCH  11  12
ENDBRANCH   8  11
ENDBRANCH   5   7
BRANCH   1  19
HETATM   19  C   UNL     1     -36.427  41.295 -58.200  1.00  0.00    -0.003 A 
HETATM   20  C   UNL     1     -36.312  40.000 -58.734  1.00  0.00     0.050 A 
HETATM   21  C   UNL     1     -36.813  39.703 -60.004  1.00  0.00     0.069 A 
HETATM   22  C   UNL     1     -37.430  40.710 -60.748  1.00  0.00     0.037 A 
HETATM   23  C   UNL     1     -37.544  42.002 -60.236  1.00  0.00     0.004 A 
HETATM   24  C   UNL     1     -37.044  42.293 -58.966  1.00  0.00     0.014 A 
BRANCH  21  25
HETATM   25  O   UNL     1     -36.768  38.485 -60.624  1.00  0.00    -0.356 OA
HETATM   26  C   UNL     1     -36.806  38.489 -62.047  1.00  0.00     0.210 C 
ENDBRANCH  21  25
ENDBRANCH   1  19
TORSDOF 5
ENDMDL
MODEL 5
REMARK VINA RESULT:      -7.5      1.941      2.587
REMARK  5 active torsions:
REMARK  status: ('A' for Active; 'I' for Inactive)
REMARK    1  A    between atoms: O_2  and  C_3 
REMARK    2  A    between atoms: C_5  and  C_6 
REMARK    3  A    between atoms: C_10  and  C_11 
REMARK       I    between atoms: C_11  and  N_12 
REMARK    4  A    between atoms: N_12  and  C_13 
REMARK    5  A    between atoms: C_13  and  C_14 
ROOT
HETATM    1  C   UNL     1     -42.130  54.358 -54.488  1.00  0.00     0.089 A 
HETATM    2  N   UNL     1     -43.392  54.702 -54.188  1.00  0.00    -0.174 NA
HETATM    3  N   UNL     1     -43.815  55.403 -55.251  1.00  0.00    -0.272 N 
HETATM    4  H   UNL     1     -44.755  55.786 -55.247  1.00  0.00     0.189 HD
HETATM    5  C   UNL     1     -42.895  55.508 -56.256  1.00  0.00     0.120 A 
HETATM    6  C   UNL     1     -41.784  54.840 -55.782  1.00  0.00     0.071 A 
ENDROOT
BRANCH   5   7
HETATM    7  C   UNL     1     -43.191  56.203 -57.480  1.00  0.00     0.269 C 
HETATM    8  N   UNL     1     -43.215  57.572 -57.379  1.00  0.00    -0.355 N 
HETATM    9  H   UNL     1     -43.055  58.008 -56.484  1.00  0.00     0.162 HD
HETATM   10  O   UNL     1     -43.400  55.608 -58.533  1.00  0.00    -0.266 OA
BRANCH   8  11
HETATM   11  C   UNL     1     -43.536  58.434 -58.499  1.00  0.00     0.128 C 
BRANCH  11  12
HETATM   12  C   UNL     1     -44.919  59.066 -58.360  1.00  0.00     0.012 C 
HETATM   13  C   UNL     1     -45.788  59.073 -59.648  1.00  0.00     0.014 C 
HETATM   14  C   UNL     1     -47.178  59.299 -59.043  1.00  0.00     0.017 C 
HETATM   15  C   UNL     1     -45.982  57.656 -60.140  1.00  0.00    -0.025 C 
HETATM   16  C   UNL     1     -47.111  58.040 -58.174  1.00  0.00     0.009 C 
HETATM   17  C   UNL     1     -46.768  57.034 -59.248  1.00  0.00    -0.026 C 
HETATM   18  C   UNL     1     -45.834  58.305 -57.348  1.00  0.00     0.015 C 
ENDBRANCH  11  12
ENDBRANCH   8  11
ENDBRANCH   5   7
BRANCH   1  19
HETATM   19  C   UNL     1     -41.298  53.581 -53.564  1.00  0.00    -0.003 A 
HETATM   20  C   UNL     1     -40.715  52.372 -53.983  1.00  0.00     0.050 A 
HETATM   21  C   UNL     1     -39.906  51.630 -53.118  1.00  0.00     0.069 A 
HETATM   22  C   UNL     1     -39.682  52.098 -51.822  1.00  0.00     0.037 A 
HETATM   23  C   UNL     1     -40.260  53.290 -51.389  1.00  0.00     0.004 A 
HETATM   24  C   UNL     1     -41.065  54.029 -52.257  1.00  0.00     0.014 A 
BRANCH  21  25
HETATM   25  O   UNL     1     -39.281  50.450 -53.413  1.00  0.00    -0.356 OA
HETATM   26  C   UNL     1     -39.708  49.776 -54.591  1.00  0.00     0.210 C 
ENDBRANCH  21  25
ENDBRANCH   1  19
TORSDOF 5
ENDMDL
MODEL 6
REMARK VINA RESULT:      -7.2      5.004      7.159
REMARK  5 active torsions:
REMARK  status: ('A' for Active; 'I' for Inactive)
REMARK    1  A    between atoms: O_2  and  C_3 
REMARK    2  A    between atoms: C_5  and  C_6 
REMARK    3  A    between atoms: C_10  and  C_11 
REMARK       I    between atoms: C_11  and  N_12 
REMARK    4  A    between atoms: N_12  and  C_13 
REMARK    5  A    between atoms: C_13  and  C_14 
ROOT
HETATM    1  C   UNL     1     -41.205  55.540 -51.730  1.00  0.00     0.089 A 
HETATM    2  N   UNL     1     -41.594  55.614 -50.447  1.00  0.00    -0.174 NA
HETATM    3  N   UNL     1     -41.911  56.904 -50.262  1.00  0.00    -0.272 N 
HETATM    4  H   UNL     1     -42.226  57.209 -49.346  1.00  0.00     0.189 HD
HETATM    5  C   UNL     1     -41.781  57.681 -51.380  1.00  0.00     0.120 A 
HETATM    6  C   UNL     1     -41.315  56.817 -52.351  1.00  0.00     0.071 A 
ENDROOT
BRANCH   5   7
HETATM    7  C   UNL     1     -42.105  59.082 -51.368  1.00  0.00     0.269 C 
HETATM    8  N   UNL     1     -42.934  59.478 -50.347  1.00  0.00    -0.355 N 
HETATM    9  H   UNL     1     -43.282  58.791 -49.694  1.00  0.00     0.162 HD
HETATM   10  O   UNL     1     -41.664  59.860 -52.208  1.00  0.00    -0.266 OA
BRANCH   8  11
HETATM   11  C   UNL     1     -43.399  60.841 -50.200  1.00  0.00     0.128 C 
BRANCH  11  12
HETATM   12  C   UNL     1     -44.730  60.918 -49.457  1.00  0.00     0.012 C 
HETATM   13  C   UNL     1     -44.765  61.881 -48.237  1.00  0.00     0.014 C 
HETATM   14  C   UNL     1     -46.278  62.067 -48.074  1.00  0.00     0.017 C 
HETATM   15  C   UNL     1     -44.409  63.282 -48.681  1.00  0.00    -0.025 C 
HETATM   16  C   UNL     1     -46.459  62.623 -49.490  1.00  0.00     0.009 C 
HETATM   17  C   UNL     1     -45.423  63.722 -49.442  1.00  0.00    -0.026 C 
HETATM   18  C   UNL     1     -45.889  61.472 -50.347  1.00  0.00     0.015 C 
ENDBRANCH  11  12
ENDBRANCH   8  11
ENDBRANCH   5   7
BRANCH   1  19
HETATM   19  C   UNL     1     -40.758  54.281 -52.333  1.00  0.00    -0.003 A 
HETATM   20  C   UNL     1     -40.352  53.210 -51.517  1.00  0.00     0.050 A 
HETATM   21  C   UNL     1     -39.940  51.999 -52.078  1.00  0.00     0.069 A 
HETATM   22  C   UNL     1     -39.929  51.858 -53.467  1.00  0.00     0.037 A 
HETATM   23  C   UNL     1     -40.320  52.913 -54.291  1.00  0.00     0.004 A 
HETATM   24  C   UNL     1     -40.733  54.120 -53.725  1.00  0.00     0.014 A 
BRANCH  21  25
HETATM   25  O   UNL     1     -39.532  50.889 -51.391  1.00  0.00    -0.356 OA
HETATM   26  C   UNL     1     -39.591  49.649 -52.086  1.00  0.00     0.210 C 
ENDBRANCH  21  25
ENDBRANCH   1  19
TORSDOF 5
ENDMDL
MODEL 7
REMARK VINA RESULT:      -7.1     14.977     17.390
REMARK  5 active torsions:
REMARK  status: ('A' for Active; 'I' for Inactive)
REMARK    1  A    between atoms: O_2  and  C_3 
REMARK    2  A    between atoms: C_5  and  C_6 
REMARK    3  A    between atoms: C_10  and  C_11 
REMARK       I    between atoms: C_11  and  N_12 
REMARK    4  A    between atoms: N_12  and  C_13 
REMARK    5  A    between atoms: C_13  and  C_14 
ROOT
HETATM    1  C   UNL     1     -32.994  40.113 -50.244  1.00  0.00     0.089 A 
HETATM    2  N   UNL     1     -32.048  40.385 -51.155  1.00  0.00    -0.174 NA
HETATM    3  N   UNL     1     -32.705  40.985 -52.159  1.00  0.00    -0.272 N 
HETATM    4  H   UNL     1     -32.188  41.276 -52.983  1.00  0.00     0.189 HD
HETATM    5  C   UNL     1     -34.043  41.153 -51.934  1.00  0.00     0.120 A 
HETATM    6  C   UNL     1     -34.260  40.586 -50.694  1.00  0.00     0.071 A 
ENDROOT
BRANCH   5   7
HETATM    7  C   UNL     1     -34.895  41.802 -52.893  1.00  0.00     0.269 C 
HETATM    8  N   UNL     1     -34.613  41.516 -54.207  1.00  0.00    -0.355 N 
HETATM    9  H   UNL     1     -33.840  40.908 -54.429  1.00  0.00     0.162 HD
HETATM   10  O   UNL     1     -35.806  42.551 -52.554  1.00  0.00    -0.266 OA
BRANCH   8  11
HETATM   11  C   UNL     1     -35.340  42.111 -55.310  1.00  0.00     0.128 C 
BRANCH  11  12
HETATM   12  C   UNL     1     -36.617  41.341 -55.639  1.00  0.00     0.012 C 
HETATM   13  C   UNL     1     -37.495  41.947 -56.768  1.00  0.00     0.014 C 
HETATM   14  C   UNL     1     -38.349  40.729 -57.139  1.00  0.00     0.017 C 
HETATM   15  C   UNL     1     -36.688  42.055 -58.042  1.00  0.00    -0.025 C 
HETATM   16  C   UNL     1     -37.136  39.867 -57.497  1.00  0.00     0.009 C 
HETATM   17  C   UNL     1     -36.463  40.805 -58.472  1.00  0.00    -0.026 C 
HETATM   18  C   UNL     1     -36.335  39.902 -56.177  1.00  0.00     0.015 C 
ENDBRANCH  11  12
ENDBRANCH   8  11
ENDBRANCH   5   7
BRANCH   1  19
HETATM   19  C   UNL     1     -32.683  39.435 -48.982  1.00  0.00    -0.003 A 
HETATM   20  C   UNL     1     -31.496  39.736 -48.290  1.00  0.00     0.050 A 
HETATM   21  C   UNL     1     -31.196  39.109 -47.079  1.00  0.00     0.069 A 
HETATM   22  C   UNL     1     -32.086  38.170 -46.555  1.00  0.00     0.037 A 
HETATM   23  C   UNL     1     -33.263  37.854 -47.233  1.00  0.00     0.004 A 
HETATM   24  C   UNL     1     -33.560  38.484 -48.442  1.00  0.00     0.014 A 
BRANCH  21  25
HETATM   25  O   UNL     1     -30.082  39.324 -46.314  1.00  0.00    -0.356 OA
HETATM   26  C   UNL     1     -29.792  40.675 -45.972  1.00  0.00     0.210 C 
ENDBRANCH  21  25
ENDBRANCH   1  19
TORSDOF 5
ENDMDL
MODEL 8
REMARK VINA RESULT:      -7.1      1.817      2.631
REMARK  5 active torsions:
REMARK  status: ('A' for Active; 'I' for Inactive)
REMARK    1  A    between atoms: O_2  and  C_3 
REMARK    2  A    between atoms: C_5  and  C_6 
REMARK    3  A    between atoms: C_10  and  C_11 
REMARK       I    between atoms: C_11  and  N_12 
REMARK    4  A    between atoms: N_12  and  C_13 
REMARK    5  A    between atoms: C_13  and  C_14 
ROOT
HETATM    1  C   UNL     1     -42.154  54.651 -54.815  1.00  0.00     0.089 A 
HETATM    2  N   UNL     1     -42.974  54.098 -55.722  1.00  0.00    -0.174 NA
HETATM    3  N   UNL     1     -43.489  55.139 -56.393  1.00  0.00    -0.272 N 
HETATM    4  H   UNL     1     -44.159  54.966 -57.135  1.00  0.00     0.189 HD
HETATM    5  C   UNL     1     -43.016  56.357 -55.989  1.00  0.00     0.120 A 
HETATM    6  C   UNL     1     -42.149  56.067 -54.955  1.00  0.00     0.071 A 
ENDROOT
BRANCH   5   7
HETATM    7  C   UNL     1     -43.442  57.578 -56.619  1.00  0.00     0.269 C 
HETATM    8  N   UNL     1     -42.427  58.436 -56.967  1.00  0.00    -0.355 N 
HETATM    9  H   UNL     1     -41.472  58.190 -56.753  1.00  0.00     0.162 HD
HETATM   10  O   UNL     1     -44.625  57.825 -56.829  1.00  0.00    -0.266 OA
BRANCH   8  11
HETATM   11  C   UNL     1     -42.669  59.729 -57.573  1.00  0.00     0.128 C 
BRANCH  11  12
HETATM   12  C   UNL     1     -41.942  59.884 -58.907  1.00  0.00     0.012 C 
HETATM   13  C   UNL     1     -42.286  58.822 -59.988  1.00  0.00     0.014 C 
HETATM   14  C   UNL     1     -41.798  59.543 -61.250  1.00  0.00     0.017 C 
HETATM   15  C   UNL     1     -43.771  58.846 -60.273  1.00  0.00    -0.025 C 
HETATM   16  C   UNL     1     -42.724  60.744 -61.038  1.00  0.00     0.009 C 
HETATM   17  C   UNL     1     -44.034  60.005 -60.894  1.00  0.00    -0.026 C 
HETATM   18  C   UNL     1     -42.292  61.222 -59.635  1.00  0.00     0.015 C 
ENDBRANCH  11  12
ENDBRANCH   8  11
ENDBRANCH   5   7
BRANCH   1  19
HETATM   19  C   UNL     1     -41.395  53.838 -53.859  1.00  0.00    -0.003 A 
HETATM   20  C   UNL     1     -40.667  52.719 -54.302  1.00  0.00     0.050 A 
HETATM   21  C   UNL     1     -39.927  51.946 -53.404  1.00  0.00     0.069 A 
HETATM   22  C   UNL     1     -39.917  52.291 -52.052  1.00  0.00     0.037 A 
HETATM   23  C   UNL     1     -40.641  53.391 -51.594  1.00  0.00     0.004 A 
HETATM   24  C   UNL     1     -41.377  54.162 -52.496  1.00  0.00     0.014 A 
BRANCH  21  25
HETATM   25  O   UNL     1     -39.176  50.846 -53.716  1.00  0.00    -0.356 OA
HETATM   26  C   UNL     1     -39.804  49.847 -54.512  1.00  0.00     0.210 C 
ENDBRANCH  21  25
ENDBRANCH   1  19
TORSDOF 5
ENDMDL
MODEL 9
REMARK VINA RESULT:      -6.9      3.047      8.080
REMARK  5 active torsions:
REMARK  status: ('A' for Active; 'I' for Inactive)
REMARK    1  A    between atoms: O_2  and  C_3 
REMARK    2  A    between atoms: C_5  and  C_6 
REMARK    3  A    between atoms: C_10  and  C_11 
REMARK       I    between atoms: C_11  and  N_12 
REMARK    4  A    between atoms: N_12  and  C_13 
REMARK    5  A    between atoms: C_13  and  C_14 
ROOT
HETATM    1  C   UNL     1     -42.096  59.475 -56.557  1.00  0.00     0.089 A 
HETATM    2  N   UNL     1     -42.002  60.746 -56.135  1.00  0.00    -0.174 NA
HETATM    3  N   UNL     1     -42.027  60.662 -54.796  1.00  0.00    -0.272 N 
HETATM    4  H   UNL     1     -41.981  61.515 -54.247  1.00  0.00     0.189 HD
HETATM    5  C   UNL     1     -42.100  59.385 -54.315  1.00  0.00     0.120 A 
HETATM    6  C   UNL     1     -42.153  58.591 -55.443  1.00  0.00     0.071 A 
ENDROOT
BRANCH   5   7
HETATM    7  C   UNL     1     -42.109  59.109 -52.903  1.00  0.00     0.269 C 
HETATM    8  N   UNL     1     -41.978  57.783 -52.569  1.00  0.00    -0.355 N 
HETATM    9  H   UNL     1     -41.908  57.091 -53.300  1.00  0.00     0.162 HD
HETATM   10  O   UNL     1     -42.221  60.000 -52.067  1.00  0.00    -0.266 OA
BRANCH   8  11
HETATM   11  C   UNL     1     -42.007  57.315 -51.199  1.00  0.00     0.128 C 
BRANCH  11  12
HETATM   12  C   UNL     1     -41.306  55.969 -51.036  1.00  0.00     0.012 C 
HETATM   13  C   UNL     1     -42.014  54.950 -50.100  1.00  0.00     0.014 C 
HETATM   14  C   UNL     1     -41.345  53.647 -50.553  1.00  0.00     0.017 C 
HETATM   15  C   UNL     1     -43.412  54.677 -50.608  1.00  0.00    -0.025 C 
HETATM   16  C   UNL     1     -41.809  53.800 -52.004  1.00  0.00     0.009 C 
HETATM   17  C   UNL     1     -43.287  53.996 -51.756  1.00  0.00    -0.026 C 
HETATM   18  C   UNL     1     -41.206  55.172 -52.376  1.00  0.00     0.015 C 
ENDBRANCH  11  12
ENDBRANCH   8  11
ENDBRANCH   5   7
BRANCH   1  19
HETATM   19  C   UNL     1     -42.116  59.131 -57.982  1.00  0.00    -0.003 A 
HETATM   20  C   UNL     1     -42.271  57.793 -58.385  1.00  0.00     0.050 A 
HETATM   21  C   UNL     1     -42.308  57.453 -59.739  1.00  0.00     0.069 A 
HETATM   22  C   UNL     1     -42.186  58.459 -60.700  1.00  0.00     0.037 A 
HETATM   23  C   UNL     1     -42.023  59.789 -60.318  1.00  0.00     0.004 A 
HETATM   24  C   UNL     1     -41.989  60.124 -58.963  1.00  0.00     0.014 A 
BRANCH  21  25
HETATM   25  O   UNL     1     -42.462  56.194 -60.251  1.00  0.00    -0.356 OA
HETATM   26  C   UNL     1     -43.530  55.415 -59.724  1.00  0.00     0.210 C 
ENDBRANCH  21  25
ENDBRANCH   1  19
TORSDOF 5
ENDMDL
MODEL 10
REMARK VINA RESULT:      -6.9      1.907      2.056
REMARK  5 active torsions:
REMARK  status: ('A' for Active; 'I' for Inactive)
REMARK    1  A    between atoms: O_2  and  C_3 
REMARK    2  A    between atoms: C_5  and  C_6 
REMARK    3  A    between atoms: C_10  and  C_11 
REMARK       I    between atoms: C_11  and  N_12 
REMARK    4  A    between atoms: N_12  and  C_13 
REMARK    5  A    between atoms: C_13  and  C_14 
ROOT
HETATM    1  C   UNL     1     -41.212  55.102 -53.704  1.00  0.00     0.089 A 
HETATM    2  N   UNL     1     -41.081  54.739 -54.989  1.00  0.00    -0.174 NA
HETATM    3  N   UNL     1     -41.507  55.804 -55.687  1.00  0.00    -0.272 N 
HETATM    4  H   UNL     1     -41.513  55.759 -56.701  1.00  0.00     0.189 HD
HETATM    5  C   UNL     1     -41.881  56.868 -54.915  1.00  0.00     0.120 A 
HETATM    6  C   UNL     1     -41.706  56.434 -53.616  1.00  0.00     0.071 A 
ENDROOT
BRANCH   5   7
HETATM    7  C   UNL     1     -42.338  58.101 -55.499  1.00  0.00     0.269 C 
HETATM    8  N   UNL     1     -43.561  58.031 -56.119  1.00  0.00    -0.355 N 
HETATM    9  H   UNL     1     -44.052  57.150 -56.155  1.00  0.00     0.162 HD
HETATM   10  O   UNL     1     -41.678  59.134 -55.438  1.00  0.00    -0.266 OA
BRANCH   8  11
HETATM   11  C   UNL     1     -44.160  59.163 -56.797  1.00  0.00     0.128 C 
BRANCH  11  12
HETATM   12  C   UNL     1     -44.469  58.858 -58.261  1.00  0.00     0.012 C 
HETATM   13  C   UNL     1     -43.624  59.641 -59.304  1.00  0.00     0.014 C 
HETATM   14  C   UNL     1     -43.837  58.768 -60.545  1.00  0.00     0.017 C 
HETATM   15  C   UNL     1     -42.154  59.366 -59.082  1.00  0.00    -0.025 C 
HETATM   16  C   UNL     1     -43.259  57.515 -59.882  1.00  0.00     0.009 C 
HETATM   17  C   UNL     1     -41.938  58.086 -59.419  1.00  0.00    -0.026 C 
HETATM   18  C   UNL     1     -44.173  57.373 -58.646  1.00  0.00     0.015 C 
ENDBRANCH  11  12
ENDBRANCH   8  11
ENDBRANCH   5   7
BRANCH   1  19
HETATM   19  C   UNL     1     -40.860  54.198 -52.604  1.00  0.00    -0.003 A 
HETATM   20  C   UNL     1     -40.306  52.934 -52.876  1.00  0.00     0.050 A 
HETATM   21  C   UNL     1     -39.951  52.070 -51.838  1.00  0.00     0.069 A 
HETATM   22  C   UNL     1     -40.156  52.469 -50.516  1.00  0.00     0.037 A 
HETATM   23  C   UNL     1     -40.713  53.715 -50.229  1.00  0.00     0.004 A 
HETATM   24  C   UNL     1     -41.064  54.576 -51.270  1.00  0.00     0.014 A 
BRANCH  21  25
HETATM   25  O   UNL     1     -39.398  50.827 -51.977  1.00  0.00    -0.356 OA
HETATM   26  C   UNL     1     -39.604  49.911 -50.907  1.00  0.00     0.210 C 
ENDBRANCH  21  25
ENDBRANCH   1  19
TORSDOF 5
ENDMDL
