MODEL 1
REMARK VINA RESULT:      -9.1      0.000      0.000
REMARK  6 active torsions:
REMARK  status: ('A' for Active; 'I' for Inactive)
REMARK    1  A    between atoms: C_2  and  C_3 
REMARK    2  A    between atoms: C_3  and  C_4 
REMARK    3  A    between atoms: C_6  and  N_7 
REMARK    4  A    between atoms: C_9  and  C_10 
REMARK    5  A    between atoms: C_16  and  N_17 
REMARK       I    between atoms: N_17  and  C_18 
REMARK    6  A    between atoms: C_18  and  C_19 
ROOT
HETATM    1  N   UNL     1     -43.458  56.562 -55.033  1.00  0.00    -0.044 N 
HETATM    2  N   UNL     1     -43.940  57.463 -55.931  1.00  0.00    -0.150 NA
HETATM    3  C   UNL     1     -43.588  56.958 -57.122  1.00  0.00     0.099 A 
HETATM    4  C   UNL     1     -42.887  55.735 -56.988  1.00  0.00     0.086 A 
HETATM    5  C   UNL     1     -42.796  55.507 -55.635  1.00  0.00     0.152 A 
ENDROOT
BRANCH   5   6
HETATM    6  N   UNL     1     -42.163  54.465 -54.963  1.00  0.00    -0.305 N 
HETATM    7  C   UNL     1     -40.787  54.472 -54.564  1.00  0.00     0.281 C 
HETATM    8  O   UNL     1     -40.029  55.355 -54.935  1.00  0.00    -0.265 OA
HETATM    9  H   UNL     1     -42.715  53.629 -54.757  1.00  0.00     0.170 HD
BRANCH   7  10
HETATM   10  C   UNL     1     -40.430  53.354 -53.730  1.00  0.00     0.144 A 
HETATM   11  O   UNL     1     -40.138  52.150 -54.319  1.00  0.00    -0.304 OA
HETATM   12  C   UNL     1     -39.913  51.259 -53.311  1.00  0.00     0.086 A 
HETATM   13  C   UNL     1     -40.018  51.887 -52.075  1.00  0.00     0.001 A 
HETATM   14  C   UNL     1     -39.628  49.907 -53.475  1.00  0.00     0.038 A 
HETATM   15  C   UNL     1     -40.352  53.236 -52.355  1.00  0.00     0.057 A 
HETATM   16  C   UNL     1     -39.809  51.126 -50.913  1.00  0.00     0.014 A 
HETATM   17  C   UNL     1     -39.513  49.762 -51.047  1.00  0.00     0.001 A 
HETATM   18  C   UNL     1     -39.429  49.165 -52.306  1.00  0.00     0.003 A 
ENDBRANCH   7  10
ENDBRANCH   5   6
BRANCH   1  19
HETATM   19  C   UNL     1     -43.676  56.745 -53.659  1.00  0.00     0.732 A 
HETATM   20  N   UNL     1     -43.171  55.952 -52.764  1.00  0.00    -0.067 NA
HETATM   21  C   UNL     1     -43.501  56.248 -51.455  1.00  0.00     0.059 A 
HETATM   22  C   UNL     1     -44.287  57.277 -51.096  1.00  0.00     0.102 A 
HETATM   23  C   UNL     1     -44.827  58.162 -52.141  1.00  0.00     0.261 A 
HETATM   24  N   UNL     1     -44.473  57.825 -53.408  1.00  0.00    -0.152 N 
HETATM   25  O   UNL     1     -45.544  59.115 -51.870  1.00  0.00    -0.268 OA
HETATM   26  H   UNL     1     -44.825  58.389 -54.176  1.00  0.00     0.187 HD
BRANCH  21  27
HETATM   27  C   UNL     1     -42.958  55.303 -50.406  1.00  0.00     0.060 C 
BRANCH  27  28
HETATM   28  C   UNL     1     -41.569  55.725 -49.922  1.00  0.00     0.002 C 
HETATM   29  C   UNL     1     -41.012  54.729 -48.916  1.00  0.00     0.005 C 
ENDBRANCH  27  28
ENDBRANCH  21  27
ENDBRANCH   1  19
BRANCH   3  30
HETATM   30  C   UNL     1     -43.915  57.658 -58.408  1.00  0.00     0.035 A 
HETATM   31  S   UNL     1     -45.496  58.095 -58.890  1.00  0.00    -0.100 SA
HETATM   32  C   UNL     1     -44.933  58.768 -60.359  1.00  0.00     0.050 A 
HETATM   33  C   UNL     1     -43.566  58.664 -60.481  1.00  0.00     0.008 A 
HETATM   34  C   UNL     1     -42.976  58.023 -59.351  1.00  0.00     0.022 A 
ENDBRANCH   3  30
TORSDOF 6
ENDMDL
MODEL 2
REMARK VINA RESULT:      -8.8      2.974      7.663
REMARK  6 active torsions:
REMARK  status: ('A' for Active; 'I' for Inactive)
REMARK    1  A    between atoms: C_2  and  C_3 
REMARK    2  A    between atoms: C_3  and  C_4 
REMARK    3  A    between atoms: C_6  and  N_7 
REMARK    4  A    between atoms: C_9  and  C_10 
REMARK    5  A    between atoms: C_16  and  N_17 
REMARK       I    between atoms: N_17  and  C_18 
REMARK    6  A    between atoms: C_18  and  C_19 
ROOT
HETATM    1  N   UNL     1     -41.290  55.017 -53.080  1.00  0.00    -0.044 N 
HETATM    2  N   UNL     1     -41.013  53.930 -52.310  1.00  0.00    -0.150 NA
HETATM    3  C   UNL     1     -40.491  53.045 -53.171  1.00  0.00     0.099 A 
HETATM    4  C   UNL     1     -40.430  53.564 -54.487  1.00  0.00     0.086 A 
HETATM    5  C   UNL     1     -40.966  54.828 -54.411  1.00  0.00     0.152 A 
ENDROOT
BRANCH   5   6
HETATM    6  N   UNL     1     -41.183  55.750 -55.431  1.00  0.00    -0.305 N 
HETATM    7  C   UNL     1     -42.470  56.237 -55.829  1.00  0.00     0.281 C 
HETATM    8  O   UNL     1     -43.494  55.743 -55.382  1.00  0.00    -0.265 OA
HETATM    9  H   UNL     1     -40.365  56.088 -55.945  1.00  0.00     0.170 HD
BRANCH   7  10
HETATM   10  C   UNL     1     -42.402  57.312 -56.783  1.00  0.00     0.144 A 
HETATM   11  O   UNL     1     -42.398  57.016 -58.122  1.00  0.00    -0.304 OA
HETATM   12  C   UNL     1     -42.253  58.196 -58.790  1.00  0.00     0.086 A 
HETATM   13  C   UNL     1     -42.202  59.258 -57.894  1.00  0.00     0.001 A 
HETATM   14  C   UNL     1     -42.155  58.337 -60.171  1.00  0.00     0.038 A 
HETATM   15  C   UNL     1     -42.299  58.679 -56.603  1.00  0.00     0.057 A 
HETATM   16  C   UNL     1     -42.061  60.561 -58.401  1.00  0.00     0.014 A 
HETATM   17  C   UNL     1     -41.967  60.735 -59.789  1.00  0.00     0.001 A 
HETATM   18  C   UNL     1     -42.010  59.641 -60.656  1.00  0.00     0.003 A 
ENDBRANCH   7  10
ENDBRANCH   5   6
BRANCH   1  19
HETATM   19  C   UNL     1     -41.822  56.179 -52.500  1.00  0.00     0.732 A 
HETATM   20  N   UNL     1     -41.150  57.286 -52.418  1.00  0.00    -0.067 NA
HETATM   21  C   UNL     1     -41.802  58.332 -51.794  1.00  0.00     0.059 A 
HETATM   22  C   UNL     1     -43.046  58.246 -51.295  1.00  0.00     0.102 A 
HETATM   23  C   UNL     1     -43.781  56.977 -51.422  1.00  0.00     0.261 A 
HETATM   24  N   UNL     1     -43.094  55.984 -52.041  1.00  0.00    -0.152 N 
HETATM   25  O   UNL     1     -44.917  56.846 -50.990  1.00  0.00    -0.268 OA
HETATM   26  H   UNL     1     -43.541  55.078 -52.148  1.00  0.00     0.187 HD
BRANCH  21  27
HETATM   27  C   UNL     1     -41.010  59.613 -51.650  1.00  0.00     0.060 C 
BRANCH  27  28
HETATM   28  C   UNL     1     -40.214  59.650 -50.344  1.00  0.00     0.002 C 
HETATM   29  C   UNL     1     -38.725  59.477 -50.603  1.00  0.00     0.005 C 
ENDBRANCH  27  28
ENDBRANCH  21  27
ENDBRANCH   1  19
BRANCH   3  30
HETATM   30  C   UNL     1     -40.056  51.677 -52.735  1.00  0.00     0.035 A 
HETATM   31  S   UNL     1     -39.871  50.344 -53.790  1.00  0.00    -0.100 SA
HETATM   32  C   UNL     1     -39.401  49.312 -52.509  1.00  0.00     0.050 A 
HETATM   33  C   UNL     1     -39.382  49.969 -51.299  1.00  0.00     0.008 A 
HETATM   34  C   UNL     1     -39.760  51.338 -51.430  1.00  0.00     0.022 A 
ENDBRANCH   3  30
TORSDOF 6
ENDMDL
MODEL 3
REMARK VINA RESULT:      -8.5      2.773      7.869
REMARK  6 active torsions:
REMARK  status: ('A' for Active; 'I' for Inactive)
REMARK    1  A    between atoms: C_2  and  C_3 
REMARK    2  A    between atoms: C_3  and  C_4 
REMARK    3  A    between atoms: C_6  and  N_7 
REMARK    4  A    between atoms: C_9  and  C_10 
REMARK    5  A    between atoms: C_16  and  N_17 
REMARK       I    between atoms: N_17  and  C_18 
REMARK    6  A    between atoms: C_18  and  C_19 
ROOT
HETATM    1  N   UNL     1     -41.508  54.951 -53.422  1.00  0.00    -0.044 N 
HETATM    2  N   UNL     1     -41.192  53.937 -52.570  1.00  0.00    -0.150 NA
HETATM    3  C   UNL     1     -40.616  53.017 -53.357  1.00  0.00     0.099 A 
HETATM    4  C   UNL     1     -40.558  53.441 -54.707  1.00  0.00     0.086 A 
HETATM    5  C   UNL     1     -41.154  54.680 -54.732  1.00  0.00     0.152 A 
ENDROOT
BRANCH   5   6
HETATM    6  N   UNL     1     -41.398  55.513 -55.820  1.00  0.00    -0.305 N 
HETATM    7  C   UNL     1     -42.571  55.459 -56.640  1.00  0.00     0.281 C 
HETATM    8  O   UNL     1     -43.380  54.552 -56.520  1.00  0.00    -0.265 OA
HETATM    9  H   UNL     1     -40.679  56.200 -56.061  1.00  0.00     0.170 HD
BRANCH   7  10
HETATM   10  C   UNL     1     -42.658  56.543 -57.583  1.00  0.00     0.144 A 
HETATM   11  O   UNL     1     -42.006  57.718 -57.309  1.00  0.00    -0.304 OA
HETATM   12  C   UNL     1     -42.314  58.587 -58.314  1.00  0.00     0.086 A 
HETATM   13  C   UNL     1     -43.128  57.970 -59.257  1.00  0.00     0.001 A 
HETATM   14  C   UNL     1     -41.892  59.911 -58.396  1.00  0.00     0.038 A 
HETATM   15  C   UNL     1     -43.345  56.654 -58.777  1.00  0.00     0.057 A 
HETATM   16  C   UNL     1     -43.544  58.711 -60.376  1.00  0.00     0.014 A 
HETATM   17  C   UNL     1     -43.129  60.046 -60.489  1.00  0.00     0.001 A 
HETATM   18  C   UNL     1     -42.322  60.634 -59.514  1.00  0.00     0.003 A 
ENDBRANCH   7  10
ENDBRANCH   5   6
BRANCH   1  19
HETATM   19  C   UNL     1     -42.103  56.125 -52.937  1.00  0.00     0.732 A 
HETATM   20  N   UNL     1     -41.712  57.306 -53.304  1.00  0.00    -0.067 NA
HETATM   21  C   UNL     1     -42.378  58.363 -52.714  1.00  0.00     0.059 A 
HETATM   22  C   UNL     1     -43.370  58.215 -51.820  1.00  0.00     0.102 A 
HETATM   23  C   UNL     1     -43.795  56.858 -51.441  1.00  0.00     0.261 A 
HETATM   24  N   UNL     1     -43.106  55.858 -52.048  1.00  0.00    -0.152 N 
HETATM   25  O   UNL     1     -44.694  56.667 -50.634  1.00  0.00    -0.268 OA
HETATM   26  H   UNL     1     -43.342  54.897 -51.818  1.00  0.00     0.187 HD
BRANCH  21  27
HETATM   27  C   UNL     1     -41.899  59.745 -53.099  1.00  0.00     0.060 C 
BRANCH  27  28
HETATM   28  C   UNL     1     -42.007  59.989 -54.605  1.00  0.00     0.002 C 
HETATM   29  C   UNL     1     -43.457  60.156 -55.033  1.00  0.00     0.005 C 
ENDBRANCH  27  28
ENDBRANCH  21  27
ENDBRANCH   1  19
BRANCH   3  30
HETATM   30  C   UNL     1     -40.123  51.707 -52.816  1.00  0.00     0.035 A 
HETATM   31  S   UNL     1     -39.881  50.305 -53.763  1.00  0.00    -0.100 SA
HETATM   32  C   UNL     1     -39.369  49.397 -52.406  1.00  0.00     0.050 A 
HETATM   33  C   UNL     1     -39.380  50.148 -51.252  1.00  0.00     0.008 A 
HETATM   34  C   UNL     1     -39.815  51.485 -51.489  1.00  0.00     0.022 A 
ENDBRANCH   3  30
TORSDOF 6
ENDMDL
MODEL 4
REMARK VINA RESULT:      -8.4      2.469      5.831
REMARK  6 active torsions:
REMARK  status: ('A' for Active; 'I' for Inactive)
REMARK    1  A    between atoms: C_2  and  C_3 
REMARK    2  A    between atoms: C_3  and  C_4 
REMARK    3  A    between atoms: C_6  and  N_7 
REMARK    4  A    between atoms: C_9  and  C_10 
REMARK    5  A    between atoms: C_16  and  N_17 
REMARK       I    between atoms: N_17  and  C_18 
REMARK    6  A    between atoms: C_18  and  C_19 
ROOT
HETATM    1  N   UNL     1     -43.598  58.200 -54.339  1.00  0.00    -0.044 N 
HETATM    2  N   UNL     1     -44.250  59.322 -53.929  1.00  0.00    -0.150 NA
HETATM    3  C   UNL     1     -44.443  59.127 -52.617  1.00  0.00     0.099 A 
HETATM    4  C   UNL     1     -43.913  57.886 -52.186  1.00  0.00     0.086 A 
HETATM    5  C   UNL     1     -43.390  57.296 -53.312  1.00  0.00     0.152 A 
ENDROOT
BRANCH   5   6
HETATM    6  N   UNL     1     -42.793  56.046 -53.449  1.00  0.00    -0.305 N 
HETATM    7  C   UNL     1     -41.382  55.825 -53.551  1.00  0.00     0.281 C 
HETATM    8  O   UNL     1     -40.607  56.760 -53.679  1.00  0.00    -0.265 OA
HETATM    9  H   UNL     1     -43.409  55.230 -53.499  1.00  0.00     0.170 HD
BRANCH   7  10
HETATM   10  C   UNL     1     -41.018  54.433 -53.503  1.00  0.00     0.144 A 
HETATM   11  O   UNL     1     -40.631  53.886 -52.307  1.00  0.00    -0.304 OA
HETATM   12  C   UNL     1     -40.273  52.594 -52.557  1.00  0.00     0.086 A 
HETATM   13  C   UNL     1     -40.464  52.289 -53.900  1.00  0.00     0.001 A 
HETATM   14  C   UNL     1     -39.775  51.696 -51.617  1.00  0.00     0.038 A 
HETATM   15  C   UNL     1     -40.943  53.480 -54.502  1.00  0.00     0.057 A 
HETATM   16  C   UNL     1     -40.155  50.993 -54.346  1.00  0.00     0.014 A 
HETATM   17  C   UNL     1     -39.658  50.064 -53.421  1.00  0.00     0.001 A 
HETATM   18  C   UNL     1     -39.468  50.413 -52.083  1.00  0.00     0.003 A 
ENDBRANCH   7  10
ENDBRANCH   5   6
BRANCH   1  19
HETATM   19  C   UNL     1     -43.190  58.065 -55.674  1.00  0.00     0.732 A 
HETATM   20  N   UNL     1     -43.472  57.016 -56.385  1.00  0.00    -0.067 NA
HETATM   21  C   UNL     1     -42.974  57.021 -57.674  1.00  0.00     0.059 A 
HETATM   22  C   UNL     1     -42.245  58.024 -58.190  1.00  0.00     0.102 A 
HETATM   23  C   UNL     1     -41.961  59.204 -57.357  1.00  0.00     0.261 A 
HETATM   24  N   UNL     1     -42.471  59.146 -56.100  1.00  0.00    -0.152 N 
HETATM   25  O   UNL     1     -41.306  60.147 -57.778  1.00  0.00    -0.268 OA
HETATM   26  H   UNL     1     -42.298  59.924 -55.470  1.00  0.00     0.187 HD
BRANCH  21  27
HETATM   27  C   UNL     1     -43.256  55.782 -58.496  1.00  0.00     0.060 C 
BRANCH  27  28
HETATM   28  C   UNL     1     -44.606  55.866 -59.210  1.00  0.00     0.002 C 
HETATM   29  C   UNL     1     -44.433  55.822 -60.720  1.00  0.00     0.005 C 
ENDBRANCH  27  28
ENDBRANCH  21  27
ENDBRANCH   1  19
BRANCH   3  30
HETATM   30  C   UNL     1     -45.156  60.133 -51.762  1.00  0.00     0.035 A 
HETATM   31  S   UNL     1     -46.247  61.304 -52.363  1.00  0.00    -0.100 SA
HETATM   32  C   UNL     1     -46.518  61.947 -50.801  1.00  0.00     0.050 A 
HETATM   33  C   UNL     1     -45.793  61.283 -49.838  1.00  0.00     0.008 A 
HETATM   34  C   UNL     1     -45.005  60.232 -50.394  1.00  0.00     0.022 A 
ENDBRANCH   3  30
TORSDOF 6
ENDMDL
MODEL 5
REMARK VINA RESULT:      -8.2      2.771      8.116
REMARK  6 active torsions:
REMARK  status: ('A' for Active; 'I' for Inactive)
REMARK    1  A    between atoms: C_2  and  C_3 
REMARK    2  A    between atoms: C_3  and  C_4 
REMARK    3  A    between atoms: C_6  and  N_7 
REMARK    4  A    between atoms: C_9  and  C_10 
REMARK    5  A    between atoms: C_16  and  N_17 
REMARK       I    between atoms: N_17  and  C_18 
REMARK    6  A    between atoms: C_18  and  C_19 
ROOT
HETATM    1  N   UNL     1     -42.272  55.748 -54.014  1.00  0.00    -0.044 N 
HETATM    2  N   UNL     1     -41.937  54.764 -53.135  1.00  0.00    -0.150 NA
HETATM    3  C   UNL     1     -41.093  53.984 -53.825  1.00  0.00     0.099 A 
HETATM    4  C   UNL     1     -40.884  54.467 -55.139  1.00  0.00     0.086 A 
HETATM    5  C   UNL     1     -41.667  55.593 -55.248  1.00  0.00     0.152 A 
ENDROOT
BRANCH   5   6
HETATM    6  N   UNL     1     -41.863  56.420 -56.350  1.00  0.00    -0.305 N 
HETATM    7  C   UNL     1     -42.781  56.151 -57.416  1.00  0.00     0.281 C 
HETATM    8  O   UNL     1     -43.352  55.074 -57.498  1.00  0.00    -0.265 OA
HETATM    9  H   UNL     1     -41.298  57.270 -56.411  1.00  0.00     0.170 HD
BRANCH   7  10
HETATM   10  C   UNL     1     -42.922  57.248 -58.338  1.00  0.00     0.144 A 
HETATM   11  O   UNL     1     -44.177  57.615 -58.750  1.00  0.00    -0.304 OA
HETATM   12  C   UNL     1     -44.019  58.614 -59.665  1.00  0.00     0.086 A 
HETATM   13  C   UNL     1     -42.672  58.923 -59.819  1.00  0.00     0.001 A 
HETATM   14  C   UNL     1     -45.046  59.241 -60.365  1.00  0.00     0.038 A 
HETATM   15  C   UNL     1     -41.973  58.037 -58.960  1.00  0.00     0.057 A 
HETATM   16  C   UNL     1     -42.313  59.939 -60.719  1.00  0.00     0.014 A 
HETATM   17  C   UNL     1     -43.326  60.593 -61.434  1.00  0.00     0.001 A 
HETATM   18  C   UNL     1     -44.668  60.246 -61.261  1.00  0.00     0.003 A 
ENDBRANCH   7  10
ENDBRANCH   5   6
BRANCH   1  19
HETATM   19  C   UNL     1     -43.128  56.788 -53.621  1.00  0.00     0.732 A 
HETATM   20  N   UNL     1     -43.258  57.879 -54.311  1.00  0.00    -0.067 NA
HETATM   21  C   UNL     1     -44.116  58.821 -53.776  1.00  0.00     0.059 A 
HETATM   22  C   UNL     1     -44.787  58.653 -52.625  1.00  0.00     0.102 A 
HETATM   23  C   UNL     1     -44.624  57.394 -51.880  1.00  0.00     0.261 A 
HETATM   24  N   UNL     1     -43.769  56.506 -52.448  1.00  0.00    -0.152 N 
HETATM   25  O   UNL     1     -45.214  57.187 -50.829  1.00  0.00    -0.268 OA
HETATM   26  H   UNL     1     -43.602  55.622 -51.975  1.00  0.00     0.187 HD
BRANCH  21  27
HETATM   27  C   UNL     1     -44.239  60.117 -54.548  1.00  0.00     0.060 C 
BRANCH  27  28
HETATM   28  C   UNL     1     -44.162  59.892 -56.059  1.00  0.00     0.002 C 
HETATM   29  C   UNL     1     -43.150  60.827 -56.703  1.00  0.00     0.005 C 
ENDBRANCH  27  28
ENDBRANCH  21  27
ENDBRANCH   1  19
BRANCH   3  30
HETATM   30  C   UNL     1     -40.484  52.750 -53.225  1.00  0.00     0.035 A 
HETATM   31  S   UNL     1     -40.020  52.606 -51.587  1.00  0.00    -0.100 SA
HETATM   32  C   UNL     1     -39.468  51.003 -51.816  1.00  0.00     0.050 A 
HETATM   33  C   UNL     1     -39.636  50.583 -53.116  1.00  0.00     0.008 A 
HETATM   34  C   UNL     1     -40.225  51.593 -53.932  1.00  0.00     0.022 A 
ENDBRANCH   3  30
TORSDOF 6
ENDMDL
MODEL 6
REMARK VINA RESULT:      -8.1      3.011      7.683
REMARK  6 active torsions:
REMARK  status: ('A' for Active; 'I' for Inactive)
REMARK    1  A    between atoms: C_2  and  C_3 
REMARK    2  A    between atoms: C_3  and  C_4 
REMARK    3  A    between atoms: C_6  and  N_7 
REMARK    4  A    between atoms: C_9  and  C_10 
REMARK    5  A    between atoms: C_16  and  N_17 
REMARK       I    between atoms: N_17  and  C_18 
REMARK    6  A    between atoms: C_18  and  C_19 
ROOT
HETATM    1  N   UNL     1     -42.443  55.369 -53.262  1.00  0.00    -0.044 N 
HETATM    2  N   UNL     1     -41.635  54.413 -52.728  1.00  0.00    -0.150 NA
HETATM    3  C   UNL     1     -41.537  53.491 -53.696  1.00  0.00     0.099 A 
HETATM    4  C   UNL     1     -42.275  53.856 -54.848  1.00  0.00     0.086 A 
HETATM    5  C   UNL     1     -42.867  55.059 -54.542  1.00  0.00     0.152 A 
ENDROOT
BRANCH   5   6
HETATM    6  N   UNL     1     -43.737  55.827 -55.311  1.00  0.00    -0.305 N 
HETATM    7  C   UNL     1     -43.355  56.992 -56.052  1.00  0.00     0.281 C 
HETATM    8  O   UNL     1     -42.242  57.479 -55.928  1.00  0.00    -0.265 OA
HETATM    9  H   UNL     1     -44.722  55.550 -55.331  1.00  0.00     0.170 HD
BRANCH   7  10
HETATM   10  C   UNL     1     -44.403  57.495 -56.902  1.00  0.00     0.144 A 
HETATM   11  O   UNL     1     -44.415  57.139 -58.226  1.00  0.00    -0.304 OA
HETATM   12  C   UNL     1     -45.453  57.806 -58.808  1.00  0.00     0.086 A 
HETATM   13  C   UNL     1     -46.136  58.560 -57.861  1.00  0.00     0.001 A 
HETATM   14  C   UNL     1     -45.789  57.760 -60.158  1.00  0.00     0.038 A 
HETATM   15  C   UNL     1     -45.452  58.354 -56.636  1.00  0.00     0.057 A 
HETATM   16  C   UNL     1     -47.248  59.313 -58.275  1.00  0.00     0.014 A 
HETATM   17  C   UNL     1     -47.615  59.282 -59.628  1.00  0.00     0.001 A 
HETATM   18  C   UNL     1     -46.894  58.521 -60.551  1.00  0.00     0.003 A 
ENDBRANCH   7  10
ENDBRANCH   5   6
BRANCH   1  19
HETATM   19  C   UNL     1     -42.744  56.531 -52.535  1.00  0.00     0.732 A 
HETATM   20  N   UNL     1     -41.878  57.479 -52.351  1.00  0.00    -0.067 NA
HETATM   21  C   UNL     1     -42.317  58.544 -51.587  1.00  0.00     0.059 A 
HETATM   22  C   UNL     1     -43.549  58.627 -51.058  1.00  0.00     0.102 A 
HETATM   23  C   UNL     1     -44.508  57.537 -51.303  1.00  0.00     0.261 A 
HETATM   24  N   UNL     1     -44.024  56.516 -52.056  1.00  0.00    -0.152 N 
HETATM   25  O   UNL     1     -45.642  57.563 -50.849  1.00  0.00    -0.268 OA
HETATM   26  H   UNL     1     -44.632  55.725 -52.251  1.00  0.00     0.187 HD
BRANCH  21  27
HETATM   27  C   UNL     1     -41.301  59.634 -51.326  1.00  0.00     0.060 C 
BRANCH  27  28
HETATM   28  C   UNL     1     -39.870  59.096 -51.338  1.00  0.00     0.002 C 
HETATM   29  C   UNL     1     -39.015  59.781 -50.284  1.00  0.00     0.005 C 
ENDBRANCH  27  28
ENDBRANCH  21  27
ENDBRANCH   1  19
BRANCH   3  30
HETATM   30  C   UNL     1     -40.736  52.235 -53.516  1.00  0.00     0.035 A 
HETATM   31  S   UNL     1     -39.795  51.886 -52.132  1.00  0.00    -0.100 SA
HETATM   32  C   UNL     1     -39.285  50.385 -52.777  1.00  0.00     0.050 A 
HETATM   33  C   UNL     1     -39.822  50.152 -54.023  1.00  0.00     0.008 A 
HETATM   34  C   UNL     1     -40.663  51.222 -54.450  1.00  0.00     0.022 A 
ENDBRANCH   3  30
TORSDOF 6
ENDMDL
MODEL 7
REMARK VINA RESULT:      -8.0      2.931      7.983
REMARK  6 active torsions:
REMARK  status: ('A' for Active; 'I' for Inactive)
REMARK    1  A    between atoms: C_2  and  C_3 
REMARK    2  A    between atoms: C_3  and  C_4 
REMARK    3  A    between atoms: C_6  and  N_7 
REMARK    4  A    between atoms: C_9  and  C_10 
REMARK    5  A    between atoms: C_16  and  N_17 
REMARK       I    between atoms: N_17  and  C_18 
REMARK    6  A    between atoms: C_18  and  C_19 
ROOT
HETATM    1  N   UNL     1     -42.918  56.022 -53.827  1.00  0.00    -0.044 N 
HETATM    2  N   UNL     1     -42.103  55.222 -53.087  1.00  0.00    -0.150 NA
HETATM    3  C   UNL     1     -41.768  54.231 -53.926  1.00  0.00     0.099 A 
HETATM    4  C   UNL     1     -42.362  54.397 -55.200  1.00  0.00     0.086 A 
HETATM    5  C   UNL     1     -43.114  55.545 -55.111  1.00  0.00     0.152 A 
ENDROOT
BRANCH   5   6
HETATM    6  N   UNL     1     -43.936  56.130 -56.070  1.00  0.00    -0.305 N 
HETATM    7  C   UNL     1     -43.471  56.935 -57.159  1.00  0.00     0.281 C 
HETATM    8  O   UNL     1     -42.304  57.289 -57.225  1.00  0.00    -0.265 OA
HETATM    9  H   UNL     1     -44.946  55.989 -55.977  1.00  0.00     0.170 HD
BRANCH   7  10
HETATM   10  C   UNL     1     -44.505  57.268 -58.104  1.00  0.00     0.144 A 
HETATM   11  O   UNL     1     -45.096  56.263 -58.827  1.00  0.00    -0.304 OA
HETATM   12  C   UNL     1     -45.972  56.854 -59.688  1.00  0.00     0.086 A 
HETATM   13  C   UNL     1     -45.982  58.231 -59.501  1.00  0.00     0.001 A 
HETATM   14  C   UNL     1     -46.747  56.191 -60.635  1.00  0.00     0.038 A 
HETATM   15  C   UNL     1     -45.033  58.489 -58.478  1.00  0.00     0.057 A 
HETATM   16  C   UNL     1     -46.835  59.014 -60.297  1.00  0.00     0.014 A 
HETATM   17  C   UNL     1     -47.633  58.374 -61.256  1.00  0.00     0.001 A 
HETATM   18  C   UNL     1     -47.585  56.988 -61.423  1.00  0.00     0.003 A 
ENDBRANCH   7  10
ENDBRANCH   5   6
BRANCH   1  19
HETATM   19  C   UNL     1     -43.442  57.202 -53.279  1.00  0.00     0.732 A 
HETATM   20  N   UNL     1     -43.121  58.378 -53.725  1.00  0.00    -0.067 NA
HETATM   21  C   UNL     1     -43.698  59.443 -53.060  1.00  0.00     0.059 A 
HETATM   22  C   UNL     1     -44.538  59.309 -52.021  1.00  0.00     0.102 A 
HETATM   23  C   UNL     1     -44.889  57.957 -51.555  1.00  0.00     0.261 A 
HETATM   24  N   UNL     1     -44.293  56.949 -52.241  1.00  0.00    -0.152 N 
HETATM   25  O   UNL     1     -45.652  57.778 -50.616  1.00  0.00    -0.268 OA
HETATM   26  H   UNL     1     -44.484  55.991 -51.960  1.00  0.00     0.187 HD
BRANCH  21  27
HETATM   27  C   UNL     1     -43.294  60.819 -53.540  1.00  0.00     0.060 C 
BRANCH  27  28
HETATM   28  C   UNL     1     -43.949  61.173 -54.876  1.00  0.00     0.002 C 
HETATM   29  C   UNL     1     -42.919  61.240 -55.993  1.00  0.00     0.005 C 
ENDBRANCH  27  28
ENDBRANCH  21  27
ENDBRANCH   1  19
BRANCH   3  30
HETATM   30  C   UNL     1     -40.876  53.102 -53.502  1.00  0.00     0.035 A 
HETATM   31  S   UNL     1     -40.233  52.923 -51.928  1.00  0.00    -0.100 SA
HETATM   32  C   UNL     1     -39.406  51.488 -52.358  1.00  0.00     0.050 A 
HETATM   33  C   UNL     1     -39.617  51.148 -53.676  1.00  0.00     0.008 A 
HETATM   34  C   UNL     1     -40.468  52.082 -54.338  1.00  0.00     0.022 A 
ENDBRANCH   3  30
TORSDOF 6
ENDMDL
MODEL 8
REMARK VINA RESULT:      -8.0      3.498      8.228
REMARK  6 active torsions:
REMARK  status: ('A' for Active; 'I' for Inactive)
REMARK    1  A    between atoms: C_2  and  C_3 
REMARK    2  A    between atoms: C_3  and  C_4 
REMARK    3  A    between atoms: C_6  and  N_7 
REMARK    4  A    between atoms: C_9  and  C_10 
REMARK    5  A    between atoms: C_16  and  N_17 
REMARK       I    between atoms: N_17  and  C_18 
REMARK    6  A    between atoms: C_18  and  C_19 
ROOT
HETATM    1  N   UNL     1     -41.713  55.897 -54.144  1.00  0.00    -0.044 N 
HETATM    2  N   UNL     1     -41.150  54.710 -54.498  1.00  0.00    -0.150 NA
HETATM    3  C   UNL     1     -41.080  54.026 -53.347  1.00  0.00     0.099 A 
HETATM    4  C   UNL     1     -41.600  54.770 -52.260  1.00  0.00     0.086 A 
HETATM    5  C   UNL     1     -41.985  55.979 -52.790  1.00  0.00     0.152 A 
ENDROOT
BRANCH   5   6
HETATM    6  N   UNL     1     -42.515  57.090 -52.141  1.00  0.00    -0.305 N 
HETATM    7  C   UNL     1     -41.744  58.059 -51.422  1.00  0.00     0.281 C 
HETATM    8  O   UNL     1     -40.556  57.878 -51.202  1.00  0.00    -0.265 OA
HETATM    9  H   UNL     1     -43.531  57.213 -52.166  1.00  0.00     0.170 HD
BRANCH   7  10
HETATM   10  C   UNL     1     -42.512  59.201 -51.000  1.00  0.00     0.144 A 
HETATM   11  O   UNL     1     -43.877  59.168 -51.124  1.00  0.00    -0.304 OA
HETATM   12  C   UNL     1     -44.342  60.388 -50.729  1.00  0.00     0.086 A 
HETATM   13  C   UNL     1     -43.291  61.196 -50.313  1.00  0.00     0.001 A 
HETATM   14  C   UNL     1     -45.675  60.789 -50.743  1.00  0.00     0.038 A 
HETATM   15  C   UNL     1     -42.115  60.423 -50.492  1.00  0.00     0.057 A 
HETATM   16  C   UNL     1     -43.578  62.495 -49.860  1.00  0.00     0.014 A 
HETATM   17  C   UNL     1     -44.912  62.926 -49.857  1.00  0.00     0.001 A 
HETATM   18  C   UNL     1     -45.939  62.088 -50.295  1.00  0.00     0.003 A 
ENDBRANCH   7  10
ENDBRANCH   5   6
BRANCH   1  19
HETATM   19  C   UNL     1     -41.981  56.872 -55.116  1.00  0.00     0.732 A 
HETATM   20  N   UNL     1     -42.023  58.139 -54.838  1.00  0.00    -0.067 NA
HETATM   21  C   UNL     1     -42.329  58.971 -55.898  1.00  0.00     0.059 A 
HETATM   22  C   UNL     1     -42.570  58.534 -57.146  1.00  0.00     0.102 A 
HETATM   23  C   UNL     1     -42.497  57.090 -57.424  1.00  0.00     0.261 A 
HETATM   24  N   UNL     1     -42.196  56.320 -56.347  1.00  0.00    -0.152 N 
HETATM   25  O   UNL     1     -42.703  56.639 -58.542  1.00  0.00    -0.268 OA
HETATM   26  H   UNL     1     -42.143  55.313 -56.471  1.00  0.00     0.187 HD
BRANCH  21  27
HETATM   27  C   UNL     1     -42.428  60.445 -55.575  1.00  0.00     0.060 C 
BRANCH  27  28
HETATM   28  C   UNL     1     -43.329  60.706 -54.367  1.00  0.00     0.002 C 
HETATM   29  C   UNL     1     -43.103  62.101 -53.804  1.00  0.00     0.005 C 
ENDBRANCH  27  28
ENDBRANCH  21  27
ENDBRANCH   1  19
BRANCH   3  30
HETATM   30  C   UNL     1     -40.497  52.645 -53.280  1.00  0.00     0.035 A 
HETATM   31  S   UNL     1     -39.759  51.980 -51.889  1.00  0.00    -0.100 SA
HETATM   32  C   UNL     1     -39.418  50.509 -52.693  1.00  0.00     0.050 A 
HETATM   33  C   UNL     1     -39.859  50.521 -53.997  1.00  0.00     0.008 A 
HETATM   34  C   UNL     1     -40.485  51.757 -54.336  1.00  0.00     0.022 A 
ENDBRANCH   3  30
TORSDOF 6
ENDMDL
MODEL 9
REMARK VINA RESULT:      -7.9      3.389      7.521
REMARK  6 active torsions:
REMARK  status: ('A' for Active; 'I' for Inactive)
REMARK    1  A    between atoms: C_2  and  C_3 
REMARK    2  A    between atoms: C_3  and  C_4 
REMARK    3  A    between atoms: C_6  and  N_7 
REMARK    4  A    between atoms: C_9  and  C_10 
REMARK    5  A    between atoms: C_16  and  N_17 
REMARK       I    between atoms: N_17  and  C_18 
REMARK    6  A    between atoms: C_18  and  C_19 
ROOT
HETATM    1  N   UNL     1     -44.325  57.994 -52.572  1.00  0.00    -0.044 N 
HETATM    2  N   UNL     1     -44.329  58.730 -51.427  1.00  0.00    -0.150 NA
HETATM    3  C   UNL     1     -44.868  59.901 -51.795  1.00  0.00     0.099 A 
HETATM    4  C   UNL     1     -45.212  59.915 -53.168  1.00  0.00     0.086 A 
HETATM    5  C   UNL     1     -44.837  58.685 -53.655  1.00  0.00     0.152 A 
ENDROOT
BRANCH   5   6
HETATM    6  N   UNL     1     -44.911  58.200 -54.958  1.00  0.00    -0.305 N 
HETATM    7  C   UNL     1     -43.948  58.468 -55.983  1.00  0.00     0.281 C 
HETATM    8  O   UNL     1     -43.058  59.287 -55.810  1.00  0.00    -0.265 OA
HETATM    9  H   UNL     1     -45.722  57.625 -55.204  1.00  0.00     0.170 HD
BRANCH   7  10
HETATM   10  C   UNL     1     -44.164  57.703 -57.183  1.00  0.00     0.144 A 
HETATM   11  O   UNL     1     -45.331  57.877 -57.883  1.00  0.00    -0.304 OA
HETATM   12  C   UNL     1     -45.311  56.987 -58.917  1.00  0.00     0.086 A 
HETATM   13  C   UNL     1     -44.122  56.268 -58.914  1.00  0.00     0.001 A 
HETATM   14  C   UNL     1     -46.331  56.804 -59.846  1.00  0.00     0.038 A 
HETATM   15  C   UNL     1     -43.390  56.735 -57.794  1.00  0.00     0.057 A 
HETATM   16  C   UNL     1     -43.916  55.304 -59.916  1.00  0.00     0.014 A 
HETATM   17  C   UNL     1     -44.923  55.101 -60.871  1.00  0.00     0.001 A 
HETATM   18  C   UNL     1     -46.109  55.836 -60.832  1.00  0.00     0.003 A 
ENDBRANCH   7  10
ENDBRANCH   5   6
BRANCH   1  19
HETATM   19  C   UNL     1     -43.858  56.671 -52.563  1.00  0.00     0.732 A 
HETATM   20  N   UNL     1     -43.455  56.068 -53.639  1.00  0.00    -0.067 NA
HETATM   21  C   UNL     1     -43.052  54.757 -53.470  1.00  0.00     0.059 A 
HETATM   22  C   UNL     1     -43.062  54.118 -52.288  1.00  0.00     0.102 A 
HETATM   23  C   UNL     1     -43.512  54.842 -51.088  1.00  0.00     0.261 A 
HETATM   24  N   UNL     1     -43.898  56.125 -51.311  1.00  0.00    -0.152 N 
HETATM   25  O   UNL     1     -43.538  54.310 -49.987  1.00  0.00    -0.268 OA
HETATM   26  H   UNL     1     -44.232  56.675 -50.525  1.00  0.00     0.187 HD
BRANCH  21  27
HETATM   27  C   UNL     1     -42.625  54.029 -54.725  1.00  0.00     0.060 C 
BRANCH  27  28
HETATM   28  C   UNL     1     -41.441  54.714 -55.408  1.00  0.00     0.002 C 
HETATM   29  C   UNL     1     -40.122  54.093 -54.975  1.00  0.00     0.005 C 
ENDBRANCH  27  28
ENDBRANCH  21  27
ENDBRANCH   1  19
BRANCH   3  30
HETATM   30  C   UNL     1     -45.046  61.031 -50.823  1.00  0.00     0.035 A 
HETATM   31  S   UNL     1     -46.371  62.111 -50.838  1.00  0.00    -0.100 SA
HETATM   32  C   UNL     1     -45.760  62.981 -49.497  1.00  0.00     0.050 A 
HETATM   33  C   UNL     1     -44.571  62.458 -49.043  1.00  0.00     0.008 A 
HETATM   34  C   UNL     1     -44.158  61.328 -49.810  1.00  0.00     0.022 A 
ENDBRANCH   3  30
TORSDOF 6
ENDMDL
MODEL 10
REMARK VINA RESULT:      -7.8      3.691      7.553
REMARK  6 active torsions:
REMARK  status: ('A' for Active; 'I' for Inactive)
REMARK    1  A    between atoms: C_2  and  C_3 
REMARK    2  A    between atoms: C_3  and  C_4 
REMARK    3  A    between atoms: C_6  and  N_7 
REMARK    4  A    between atoms: C_9  and  C_10 
REMARK    5  A    between atoms: C_16  and  N_17 
REMARK       I    between atoms: N_17  and  C_18 
REMARK    6  A    between atoms: C_18  and  C_19 
ROOT
HETATM    1  N   UNL     1     -43.388  59.042 -51.735  1.00  0.00    -0.044 N 
HETATM    2  N   UNL     1     -43.567  59.692 -50.553  1.00  0.00    -0.150 NA
HETATM    3  C   UNL     1     -43.919  60.934 -50.913  1.00  0.00     0.099 A 
HETATM    4  C   UNL     1     -43.970  61.080 -52.320  1.00  0.00     0.086 A 
HETATM    5  C   UNL     1     -43.607  59.856 -52.832  1.00  0.00     0.152 A 
ENDROOT
BRANCH   5   6
HETATM    6  N   UNL     1     -43.451  59.475 -54.162  1.00  0.00    -0.305 N 
HETATM    7  C   UNL     1     -42.203  59.462 -54.864  1.00  0.00     0.281 C 
HETATM    8  O   UNL     1     -41.197  59.943 -54.367  1.00  0.00    -0.265 OA
HETATM    9  H   UNL     1     -44.292  59.202 -54.678  1.00  0.00     0.170 HD
BRANCH   7  10
HETATM   10  C   UNL     1     -42.289  58.857 -56.168  1.00  0.00     0.144 A 
HETATM   11  O   UNL     1     -42.794  57.587 -56.281  1.00  0.00    -0.304 OA
HETATM   12  C   UNL     1     -42.692  57.234 -57.594  1.00  0.00     0.086 A 
HETATM   13  C   UNL     1     -42.162  58.281 -58.338  1.00  0.00     0.001 A 
HETATM   14  C   UNL     1     -43.051  56.001 -58.131  1.00  0.00     0.038 A 
HETATM   15  C   UNL     1     -41.905  59.322 -57.411  1.00  0.00     0.057 A 
HETATM   16  C   UNL     1     -41.989  58.105 -59.722  1.00  0.00     0.014 A 
HETATM   17  C   UNL     1     -42.348  56.875 -60.292  1.00  0.00     0.001 A 
HETATM   18  C   UNL     1     -42.866  55.842 -59.508  1.00  0.00     0.003 A 
ENDBRANCH   7  10
ENDBRANCH   5   6
BRANCH   1  19
HETATM   19  C   UNL     1     -43.045  57.682 -51.752  1.00  0.00     0.732 A 
HETATM   20  N   UNL     1     -43.335  56.904 -52.749  1.00  0.00    -0.067 NA
HETATM   21  C   UNL     1     -42.956  55.583 -52.602  1.00  0.00     0.059 A 
HETATM   22  C   UNL     1     -42.327  55.103 -51.517  1.00  0.00     0.102 A 
HETATM   23  C   UNL     1     -42.001  56.021 -50.414  1.00  0.00     0.261 A 
HETATM   24  N   UNL     1     -42.398  57.305 -50.610  1.00  0.00    -0.152 N 
HETATM   25  O   UNL     1     -41.426  55.638 -49.405  1.00  0.00    -0.268 OA
HETATM   26  H   UNL     1     -42.214  57.986 -49.878  1.00  0.00     0.187 HD
BRANCH  21  27
HETATM   27  C   UNL     1     -43.332  54.657 -53.737  1.00  0.00     0.060 C 
BRANCH  27  28
HETATM   28  C   UNL     1     -42.136  53.838 -54.226  1.00  0.00     0.002 C 
HETATM   29  C   UNL     1     -41.220  54.674 -55.107  1.00  0.00     0.005 C 
ENDBRANCH  27  28
ENDBRANCH  21  27
ENDBRANCH   1  19
BRANCH   3  30
HETATM   30  C   UNL     1     -44.200  62.004 -49.898  1.00  0.00     0.035 A 
HETATM   31  S   UNL     1     -45.445  61.918 -48.730  1.00  0.00    -0.100 SA
HETATM   32  C   UNL     1     -45.040  63.452 -48.090  1.00  0.00     0.050 A 
HETATM   33  C   UNL     1     -43.974  64.020 -48.752  1.00  0.00     0.008 A 
HETATM   34  C   UNL     1     -43.487  63.181 -49.797  1.00  0.00     0.022 A 
ENDBRANCH   3  30
TORSDOF 6
ENDMDL
