MODEL 1
REMARK VINA RESULT:      -8.6      0.000      0.000
REMARK  8 active torsions:
REMARK  status: ('A' for Active; 'I' for Inactive)
REMARK    1  A    between atoms: C_7  and  C_8 
REMARK    2  A    between atoms: C_9  and  O_10 
REMARK    3  A    between atoms: C_12  and  N_13 
REMARK    4  A    between atoms: C_14  and  N_15 
REMARK       I    between atoms: N_15  and  C_16 
REMARK    5  A    between atoms: C_16  and  C_17 
REMARK    6  A    between atoms: C_19  and  O_20 
REMARK    7  A    between atoms: O_20  and  C_21 
REMARK    8  A    between atoms: C_21  and  C_22 
ROOT
HETATM    1  C   UNL     1     -43.925  58.471 -56.278  1.00  0.00     0.050 A 
HETATM    2  C   UNL     1     -44.534  59.074 -55.169  1.00  0.00     0.082 A 
HETATM    3  C   UNL     1     -43.788  59.475 -54.062  1.00  0.00     0.067 A 
HETATM    4  C   UNL     1     -42.397  59.335 -54.062  1.00  0.00     0.036 A 
HETATM    5  C   UNL     1     -41.774  58.732 -55.156  1.00  0.00     0.030 A 
HETATM    6  C   UNL     1     -42.533  58.297 -56.253  1.00  0.00     0.021 A 
ENDROOT
BRANCH   4   7
HETATM    7  N   UNL     1     -41.708  59.756 -52.910  1.00  0.00    -0.337 N 
HETATM    8  C   UNL     1     -41.457  59.105 -51.754  1.00  0.00     0.157 C 
HETATM    9  S   UNL     1     -41.376  59.982 -50.329  1.00  0.00    -0.047 SA
HETATM   10  H   UNL     1     -41.530  60.754 -52.869  1.00  0.00     0.168 HD
BRANCH   8  11
HETATM   11  N   UNL     1     -41.163  57.777 -51.691  1.00  0.00    -0.201 NA
HETATM   12  C   UNL     1     -42.146  56.800 -51.569  1.00  0.00     0.237 C 
HETATM   13  O   UNL     1     -42.921  56.668 -50.629  1.00  0.00    -0.274 OA
HETATM   14  H   UNL     1     -40.500  57.597 -52.431  1.00  0.00     0.139 HD
BRANCH  12  15
HETATM   15  C   UNL     1     -42.220  55.807 -52.678  1.00  0.00     0.029 A 
HETATM   16  C   UNL     1     -41.166  54.937 -52.995  1.00  0.00     0.053 A 
HETATM   17  C   UNL     1     -41.282  54.083 -54.096  1.00  0.00     0.069 A 
HETATM   18  C   UNL     1     -42.461  54.076 -54.845  1.00  0.00     0.037 A 
HETATM   19  C   UNL     1     -43.523  54.916 -54.513  1.00  0.00     0.004 A 
HETATM   20  C   UNL     1     -43.402  55.782 -53.431  1.00  0.00     0.017 A 
BRANCH  17  21
HETATM   21  O   UNL     1     -40.328  53.213 -54.543  1.00  0.00    -0.351 OA
BRANCH  21  22
HETATM   22  C   UNL     1     -40.578  51.816 -54.396  1.00  0.00     0.179 C 
BRANCH  22  23
HETATM   23  C   UNL     1     -39.443  51.171 -53.584  1.00  0.00     0.002 C 
HETATM   24  C   UNL     1     -39.483  51.605 -52.119  1.00  0.00     0.011 C 
HETATM   25  C   UNL     1     -39.501  49.644 -53.678  1.00  0.00     0.011 C 
ENDBRANCH  22  23
ENDBRANCH  21  22
ENDBRANCH  17  21
ENDBRANCH  12  15
ENDBRANCH   8  11
ENDBRANCH   4   7
BRANCH   2  26
HETATM   26  O   UNL     1     -45.886  59.309 -55.100  1.00  0.00    -0.360 OA
HETATM   27  H   UNL     1     -46.023  60.262 -54.914  1.00  0.00     0.217 HD
ENDBRANCH   2  26
BRANCH   1  28
HETATM   28  C   UNL     1     -44.720  58.061 -57.428  1.00  0.00     0.183 A 
HETATM   29  O   UNL     1     -44.357  56.903 -58.066  1.00  0.00    -0.288 OA
HETATM   30  C   UNL     1     -45.276  56.778 -59.070  1.00  0.00     0.112 A 
HETATM   31  C   UNL     1     -46.132  57.865 -58.992  1.00  0.00     0.094 A 
HETATM   32  C   UNL     1     -45.360  55.760 -60.019  1.00  0.00    -0.025 A 
HETATM   33  C   UNL     1     -47.148  58.004 -59.946  1.00  0.00     0.041 A 
HETATM   34  N   UNL     1     -45.796  58.653 -57.920  1.00  0.00    -0.221 NA
HETATM   35  C   UNL     1     -47.263  57.028 -60.950  1.00  0.00    -0.059 A 
HETATM   36  C   UNL     1     -48.313  57.160 -62.018  1.00  0.00     0.048 C 
HETATM   37  C   UNL     1     -46.384  55.929 -60.972  1.00  0.00     0.016 A 
HETATM   38  C   UNL     1     -44.446  54.577 -60.067  1.00  0.00     0.051 C 
ENDBRANCH   1  28
TORSDOF 8
ENDMDL
MODEL 2
REMARK VINA RESULT:      -8.6      2.210      7.513
REMARK  8 active torsions:
REMARK  status: ('A' for Active; 'I' for Inactive)
REMARK    1  A    between atoms: C_7  and  C_8 
REMARK    2  A    between atoms: C_9  and  O_10 
REMARK    3  A    between atoms: C_12  and  N_13 
REMARK    4  A    between atoms: C_14  and  N_15 
REMARK       I    between atoms: N_15  and  C_16 
REMARK    5  A    between atoms: C_16  and  C_17 
REMARK    6  A    between atoms: C_19  and  O_20 
REMARK    7  A    between atoms: O_20  and  C_21 
REMARK    8  A    between atoms: C_21  and  C_22 
ROOT
HETATM    1  C   UNL     1     -42.968  56.692 -53.234  1.00  0.00     0.050 A 
HETATM    2  C   UNL     1     -44.241  56.799 -53.812  1.00  0.00     0.082 A 
HETATM    3  C   UNL     1     -44.942  58.004 -53.798  1.00  0.00     0.067 A 
HETATM    4  C   UNL     1     -44.359  59.152 -53.254  1.00  0.00     0.036 A 
HETATM    5  C   UNL     1     -43.094  59.062 -52.670  1.00  0.00     0.030 A 
HETATM    6  C   UNL     1     -42.407  57.840 -52.655  1.00  0.00     0.021 A 
ENDROOT
BRANCH   4   7
HETATM    7  N   UNL     1     -45.126  60.333 -53.269  1.00  0.00    -0.337 N 
HETATM    8  C   UNL     1     -45.160  61.341 -54.166  1.00  0.00     0.157 C 
HETATM    9  S   UNL     1     -45.473  62.896 -53.627  1.00  0.00    -0.047 SA
HETATM   10  H   UNL     1     -45.586  60.545 -52.391  1.00  0.00     0.168 HD
BRANCH   8  11
HETATM   11  N   UNL     1     -45.053  61.153 -55.510  1.00  0.00    -0.201 NA
HETATM   12  C   UNL     1     -43.823  61.047 -56.153  1.00  0.00     0.237 C 
HETATM   13  O   UNL     1     -42.962  61.915 -56.211  1.00  0.00    -0.274 OA
HETATM   14  H   UNL     1     -45.700  60.414 -55.746  1.00  0.00     0.139 HD
BRANCH  12  15
HETATM   15  C   UNL     1     -43.568  59.763 -56.866  1.00  0.00     0.029 A 
HETATM   16  C   UNL     1     -44.323  59.338 -57.970  1.00  0.00     0.053 A 
HETATM   17  C   UNL     1     -44.071  58.088 -58.539  1.00  0.00     0.069 A 
HETATM   18  C   UNL     1     -43.044  57.289 -58.030  1.00  0.00     0.037 A 
HETATM   19  C   UNL     1     -42.270  57.721 -56.954  1.00  0.00     0.004 A 
HETATM   20  C   UNL     1     -42.532  58.957 -56.372  1.00  0.00     0.017 A 
BRANCH  17  21
HETATM   21  O   UNL     1     -44.746  57.531 -59.589  1.00  0.00    -0.351 OA
BRANCH  21  22
HETATM   22  C   UNL     1     -44.024  56.665 -60.463  1.00  0.00     0.179 C 
BRANCH  22  23
HETATM   23  C   UNL     1     -44.887  55.438 -60.803  1.00  0.00     0.002 C 
HETATM   24  C   UNL     1     -44.672  54.304 -59.800  1.00  0.00     0.011 C 
HETATM   25  C   UNL     1     -46.371  55.810 -60.860  1.00  0.00     0.011 C 
ENDBRANCH  22  23
ENDBRANCH  21  22
ENDBRANCH  17  21
ENDBRANCH  12  15
ENDBRANCH   8  11
ENDBRANCH   4   7
BRANCH   2  26
HETATM   26  O   UNL     1     -44.872  55.743 -54.423  1.00  0.00    -0.360 OA
HETATM   27  H   UNL     1     -45.840  55.866 -54.324  1.00  0.00     0.217 HD
ENDBRANCH   2  26
BRANCH   1  28
HETATM   28  C   UNL     1     -42.248  55.426 -53.261  1.00  0.00     0.183 A 
HETATM   29  O   UNL     1     -41.564  55.064 -52.130  1.00  0.00    -0.288 OA
HETATM   30  C   UNL     1     -41.015  53.854 -52.448  1.00  0.00     0.112 A 
HETATM   31  C   UNL     1     -41.386  53.556 -53.749  1.00  0.00     0.094 A 
HETATM   32  C   UNL     1     -40.219  53.046 -51.637  1.00  0.00    -0.025 A 
HETATM   33  C   UNL     1     -40.912  52.378 -54.342  1.00  0.00     0.041 A 
HETATM   34  N   UNL     1     -42.203  54.541 -54.244  1.00  0.00    -0.221 NA
HETATM   35  C   UNL     1     -40.076  51.537 -53.587  1.00  0.00    -0.059 A 
HETATM   36  C   UNL     1     -39.512  50.285 -54.197  1.00  0.00     0.048 C 
HETATM   37  C   UNL     1     -39.748  51.873 -52.260  1.00  0.00     0.016 A 
HETATM   38  C   UNL     1     -39.856  53.370 -50.223  1.00  0.00     0.051 C 
ENDBRANCH   1  28
TORSDOF 8
ENDMDL
MODEL 3
REMARK VINA RESULT:      -8.3      4.351      8.306
REMARK  8 active torsions:
REMARK  status: ('A' for Active; 'I' for Inactive)
REMARK    1  A    between atoms: C_7  and  C_8 
REMARK    2  A    between atoms: C_9  and  O_10 
REMARK    3  A    between atoms: C_12  and  N_13 
REMARK    4  A    between atoms: C_14  and  N_15 
REMARK       I    between atoms: N_15  and  C_16 
REMARK    5  A    between atoms: C_16  and  C_17 
REMARK    6  A    between atoms: C_19  and  O_20 
REMARK    7  A    between atoms: O_20  and  C_21 
REMARK    8  A    between atoms: C_21  and  C_22 
ROOT
HETATM    1  C   UNL     1     -45.143  59.922 -51.250  1.00  0.00     0.050 A 
HETATM    2  C   UNL     1     -45.001  58.531 -51.362  1.00  0.00     0.082 A 
HETATM    3  C   UNL     1     -44.945  57.907 -52.608  1.00  0.00     0.067 A 
HETATM    4  C   UNL     1     -44.971  58.670 -53.779  1.00  0.00     0.036 A 
HETATM    5  C   UNL     1     -45.116  60.055 -53.686  1.00  0.00     0.030 A 
HETATM    6  C   UNL     1     -45.208  60.675 -52.432  1.00  0.00     0.021 A 
ENDROOT
BRANCH   4   7
HETATM    7  N   UNL     1     -44.915  57.974 -55.002  1.00  0.00    -0.337 N 
HETATM    8  C   UNL     1     -43.864  57.700 -55.804  1.00  0.00     0.157 C 
HETATM    9  S   UNL     1     -44.107  57.617 -57.459  1.00  0.00    -0.047 SA
HETATM   10  H   UNL     1     -45.818  57.813 -55.434  1.00  0.00     0.168 HD
BRANCH   8  11
HETATM   11  N   UNL     1     -42.626  57.383 -55.335  1.00  0.00    -0.201 NA
HETATM   12  C   UNL     1     -41.870  58.266 -54.570  1.00  0.00     0.237 C 
HETATM   13  O   UNL     1     -41.448  59.357 -54.933  1.00  0.00    -0.274 OA
HETATM   14  H   UNL     1     -42.702  56.459 -54.934  1.00  0.00     0.139 HD
BRANCH  12  15
HETATM   15  C   UNL     1     -41.517  57.803 -53.198  1.00  0.00     0.029 A 
HETATM   16  C   UNL     1     -41.415  56.447 -52.851  1.00  0.00     0.053 A 
HETATM   17  C   UNL     1     -41.152  56.091 -51.526  1.00  0.00     0.069 A 
HETATM   18  C   UNL     1     -40.952  57.087 -50.567  1.00  0.00     0.037 A 
HETATM   19  C   UNL     1     -41.020  58.436 -50.914  1.00  0.00     0.004 A 
HETATM   20  C   UNL     1     -41.303  58.793 -52.229  1.00  0.00     0.017 A 
BRANCH  17  21
HETATM   21  O   UNL     1     -41.061  54.817 -51.038  1.00  0.00    -0.351 OA
BRANCH  21  22
HETATM   22  C   UNL     1     -41.487  53.748 -51.881  1.00  0.00     0.179 C 
BRANCH  22  23
HETATM   23  C   UNL     1     -40.259  53.016 -52.448  1.00  0.00     0.002 C 
HETATM   24  C   UNL     1     -39.810  51.877 -51.531  1.00  0.00     0.011 C 
HETATM   25  C   UNL     1     -40.542  52.476 -53.852  1.00  0.00     0.011 C 
ENDBRANCH  22  23
ENDBRANCH  21  22
ENDBRANCH  17  21
ENDBRANCH  12  15
ENDBRANCH   8  11
ENDBRANCH   4   7
BRANCH   2  26
HETATM   26  O   UNL     1     -44.908  57.703 -50.271  1.00  0.00    -0.360 OA
HETATM   27  H   UNL     1     -45.807  57.376 -50.055  1.00  0.00     0.217 HD
ENDBRANCH   2  26
BRANCH   1  28
HETATM   28  C   UNL     1     -45.197  60.557 -49.941  1.00  0.00     0.183 A 
HETATM   29  O   UNL     1     -45.787  59.855 -48.922  1.00  0.00    -0.288 OA
HETATM   30  C   UNL     1     -45.676  60.685 -47.842  1.00  0.00     0.112 A 
HETATM   31  C   UNL     1     -45.039  61.840 -48.265  1.00  0.00     0.094 A 
HETATM   32  C   UNL     1     -46.118  60.445 -46.541  1.00  0.00    -0.025 A 
HETATM   33  C   UNL     1     -44.840  62.884 -47.353  1.00  0.00     0.041 A 
HETATM   34  N   UNL     1     -44.700  61.733 -49.591  1.00  0.00    -0.221 NA
HETATM   35  C   UNL     1     -45.295  62.718 -46.034  1.00  0.00    -0.059 A 
HETATM   36  C   UNL     1     -45.139  63.828 -45.033  1.00  0.00     0.048 C 
HETATM   37  C   UNL     1     -45.915  61.514 -45.647  1.00  0.00     0.016 A 
HETATM   38  C   UNL     1     -46.776  59.179 -46.096  1.00  0.00     0.051 C 
ENDBRANCH   1  28
TORSDOF 8
ENDMDL
MODEL 4
REMARK VINA RESULT:      -8.1      2.567      7.515
REMARK  8 active torsions:
REMARK  status: ('A' for Active; 'I' for Inactive)
REMARK    1  A    between atoms: C_7  and  C_8 
REMARK    2  A    between atoms: C_9  and  O_10 
REMARK    3  A    between atoms: C_12  and  N_13 
REMARK    4  A    between atoms: C_14  and  N_15 
REMARK       I    between atoms: N_15  and  C_16 
REMARK    5  A    between atoms: C_16  and  C_17 
REMARK    6  A    between atoms: C_19  and  O_20 
REMARK    7  A    between atoms: O_20  and  C_21 
REMARK    8  A    between atoms: C_21  and  C_22 
ROOT
HETATM    1  C   UNL     1     -42.023  57.037 -51.429  1.00  0.00     0.050 A 
HETATM    2  C   UNL     1     -43.409  57.239 -51.368  1.00  0.00     0.082 A 
HETATM    3  C   UNL     1     -43.949  58.519 -51.248  1.00  0.00     0.067 A 
HETATM    4  C   UNL     1     -43.113  59.638 -51.244  1.00  0.00     0.036 A 
HETATM    5  C   UNL     1     -41.730  59.455 -51.299  1.00  0.00     0.030 A 
HETATM    6  C   UNL     1     -41.190  58.164 -51.384  1.00  0.00     0.021 A 
ENDROOT
BRANCH   4   7
HETATM    7  N   UNL     1     -43.725  60.899 -51.115  1.00  0.00    -0.337 N 
HETATM    8  C   UNL     1     -44.098  61.790 -52.059  1.00  0.00     0.157 C 
HETATM    9  S   UNL     1     -44.033  63.426 -51.701  1.00  0.00    -0.047 SA
HETATM   10  H   UNL     1     -43.722  61.273 -50.172  1.00  0.00     0.168 HD
BRANCH   8  11
HETATM   11  N   UNL     1     -44.626  61.432 -53.261  1.00  0.00    -0.201 NA
HETATM   12  C   UNL     1     -43.840  61.240 -54.394  1.00  0.00     0.237 C 
HETATM   13  O   UNL     1     -43.159  62.091 -54.952  1.00  0.00    -0.274 OA
HETATM   14  H   UNL     1     -45.265  60.671 -53.076  1.00  0.00     0.139 HD
BRANCH  12  15
HETATM   15  C   UNL     1     -43.877  59.875 -54.990  1.00  0.00     0.029 A 
HETATM   16  C   UNL     1     -42.907  59.408 -55.890  1.00  0.00     0.053 A 
HETATM   17  C   UNL     1     -43.049  58.142 -56.463  1.00  0.00     0.069 A 
HETATM   18  C   UNL     1     -44.135  57.337 -56.106  1.00  0.00     0.037 A 
HETATM   19  C   UNL     1     -45.083  57.785 -55.188  1.00  0.00     0.004 A 
HETATM   20  C   UNL     1     -44.955  59.054 -54.631  1.00  0.00     0.017 A 
BRANCH  17  21
HETATM   21  O   UNL     1     -42.207  57.573 -57.377  1.00  0.00    -0.351 OA
BRANCH  21  22
HETATM   22  C   UNL     1     -41.925  58.303 -58.570  1.00  0.00     0.179 C 
BRANCH  22  23
HETATM   23  C   UNL     1     -42.553  57.584 -59.776  1.00  0.00     0.002 C 
HETATM   24  C   UNL     1     -42.648  56.076 -59.544  1.00  0.00     0.011 C 
HETATM   25  C   UNL     1     -43.938  58.152 -60.092  1.00  0.00     0.011 C 
ENDBRANCH  22  23
ENDBRANCH  21  22
ENDBRANCH  17  21
ENDBRANCH  12  15
ENDBRANCH   8  11
ENDBRANCH   4   7
BRANCH   2  26
HETATM   26  O   UNL     1     -44.314  56.207 -51.425  1.00  0.00    -0.360 OA
HETATM   27  H   UNL     1     -43.934  55.438 -50.949  1.00  0.00     0.217 HD
ENDBRANCH   2  26
BRANCH   1  28
HETATM   28  C   UNL     1     -41.476  55.693 -51.558  1.00  0.00     0.183 A 
HETATM   29  O   UNL     1     -41.212  55.237 -52.822  1.00  0.00    -0.288 OA
HETATM   30  C   UNL     1     -40.707  53.982 -52.622  1.00  0.00     0.112 A 
HETATM   31  C   UNL     1     -40.705  53.745 -51.257  1.00  0.00     0.094 A 
HETATM   32  C   UNL     1     -40.273  53.080 -53.593  1.00  0.00    -0.025 A 
HETATM   33  C   UNL     1     -40.274  52.500 -50.781  1.00  0.00     0.041 A 
HETATM   34  N   UNL     1     -41.156  54.853 -50.586  1.00  0.00    -0.221 NA
HETATM   35  C   UNL     1     -39.857  51.534 -51.712  1.00  0.00    -0.059 A 
HETATM   36  C   UNL     1     -39.426  50.171 -51.248  1.00  0.00     0.048 C 
HETATM   37  C   UNL     1     -39.855  51.833 -53.088  1.00  0.00     0.016 A 
HETATM   38  C   UNL     1     -40.255  53.366 -55.060  1.00  0.00     0.051 C 
ENDBRANCH   1  28
TORSDOF 8
ENDMDL
MODEL 5
REMARK VINA RESULT:      -7.9      2.885      5.397
REMARK  8 active torsions:
REMARK  status: ('A' for Active; 'I' for Inactive)
REMARK    1  A    between atoms: C_7  and  C_8 
REMARK    2  A    between atoms: C_9  and  O_10 
REMARK    3  A    between atoms: C_12  and  N_13 
REMARK    4  A    between atoms: C_14  and  N_15 
REMARK       I    between atoms: N_15  and  C_16 
REMARK    5  A    between atoms: C_16  and  C_17 
REMARK    6  A    between atoms: C_19  and  O_20 
REMARK    7  A    between atoms: O_20  and  C_21 
REMARK    8  A    between atoms: C_21  and  C_22 
ROOT
HETATM    1  C   UNL     1     -42.228  55.359 -55.344  1.00  0.00     0.050 A 
HETATM    2  C   UNL     1     -43.263  55.034 -54.457  1.00  0.00     0.082 A 
HETATM    3  C   UNL     1     -43.010  54.354 -53.266  1.00  0.00     0.067 A 
HETATM    4  C   UNL     1     -41.699  54.033 -52.904  1.00  0.00     0.036 A 
HETATM    5  C   UNL     1     -40.656  54.344 -53.778  1.00  0.00     0.030 A 
HETATM    6  C   UNL     1     -40.919  54.996 -54.991  1.00  0.00     0.021 A 
ENDROOT
BRANCH   4   7
HETATM    7  N   UNL     1     -41.517  53.342 -51.691  1.00  0.00    -0.337 N 
HETATM    8  C   UNL     1     -41.367  53.810 -50.433  1.00  0.00     0.157 C 
HETATM    9  S   UNL     1     -40.406  52.956 -49.359  1.00  0.00    -0.047 SA
HETATM   10  H   UNL     1     -41.282  52.361 -51.798  1.00  0.00     0.168 HD
BRANCH   8  11
HETATM   11  N   UNL     1     -42.040  54.891 -49.951  1.00  0.00    -0.201 NA
HETATM   12  C   UNL     1     -41.689  56.196 -50.283  1.00  0.00     0.237 C 
HETATM   13  O   UNL     1     -40.626  56.747 -50.023  1.00  0.00    -0.274 OA
HETATM   14  H   UNL     1     -43.022  54.691 -50.070  1.00  0.00     0.139 HD
BRANCH  12  15
HETATM   15  C   UNL     1     -42.734  56.994 -50.984  1.00  0.00     0.029 A 
HETATM   16  C   UNL     1     -42.432  58.000 -51.914  1.00  0.00     0.053 A 
HETATM   17  C   UNL     1     -43.465  58.755 -52.477  1.00  0.00     0.069 A 
HETATM   18  C   UNL     1     -44.791  58.474 -52.138  1.00  0.00     0.037 A 
HETATM   19  C   UNL     1     -45.098  57.454 -51.240  1.00  0.00     0.004 A 
HETATM   20  C   UNL     1     -44.070  56.714 -50.662  1.00  0.00     0.017 A 
BRANCH  17  21
HETATM   21  O   UNL     1     -43.318  59.784 -53.363  1.00  0.00    -0.351 OA
BRANCH  21  22
HETATM   22  C   UNL     1     -44.463  60.188 -54.112  1.00  0.00     0.179 C 
BRANCH  22  23
HETATM   23  C   UNL     1     -44.346  59.668 -55.555  1.00  0.00     0.002 C 
HETATM   24  C   UNL     1     -45.422  58.627 -55.867  1.00  0.00     0.011 C 
HETATM   25  C   UNL     1     -44.426  60.819 -56.561  1.00  0.00     0.011 C 
ENDBRANCH  22  23
ENDBRANCH  21  22
ENDBRANCH  17  21
ENDBRANCH  12  15
ENDBRANCH   8  11
ENDBRANCH   4   7
BRANCH   2  26
HETATM   26  O   UNL     1     -44.576  55.360 -54.695  1.00  0.00    -0.360 OA
HETATM   27  H   UNL     1     -44.809  56.129 -54.132  1.00  0.00     0.217 HD
ENDBRANCH   2  26
BRANCH   1  28
HETATM   28  C   UNL     1     -42.510  56.072 -56.582  1.00  0.00     0.183 A 
HETATM   29  O   UNL     1     -43.211  55.403 -57.551  1.00  0.00    -0.288 OA
HETATM   30  C   UNL     1     -43.330  56.314 -58.562  1.00  0.00     0.112 A 
HETATM   31  C   UNL     1     -42.688  57.474 -58.157  1.00  0.00     0.094 A 
HETATM   32  C   UNL     1     -43.966  56.138 -59.790  1.00  0.00    -0.025 A 
HETATM   33  C   UNL     1     -42.622  58.561 -59.038  1.00  0.00     0.041 A 
HETATM   34  N   UNL     1     -42.207  57.325 -56.881  1.00  0.00    -0.221 NA
HETATM   35  C   UNL     1     -43.215  58.433 -60.306  1.00  0.00    -0.059 A 
HETATM   36  C   UNL     1     -43.132  59.559 -61.298  1.00  0.00     0.048 C 
HETATM   37  C   UNL     1     -43.876  57.242 -60.661  1.00  0.00     0.016 A 
HETATM   38  C   UNL     1     -44.680  54.889 -60.196  1.00  0.00     0.051 C 
ENDBRANCH   1  28
TORSDOF 8
ENDMDL
MODEL 6
REMARK VINA RESULT:      -7.8      2.355      8.033
REMARK  8 active torsions:
REMARK  status: ('A' for Active; 'I' for Inactive)
REMARK    1  A    between atoms: C_7  and  C_8 
REMARK    2  A    between atoms: C_9  and  O_10 
REMARK    3  A    between atoms: C_12  and  N_13 
REMARK    4  A    between atoms: C_14  and  N_15 
REMARK       I    between atoms: N_15  and  C_16 
REMARK    5  A    between atoms: C_16  and  C_17 
REMARK    6  A    between atoms: C_19  and  O_20 
REMARK    7  A    between atoms: O_20  and  C_21 
REMARK    8  A    between atoms: C_21  and  C_22 
ROOT
HETATM    1  C   UNL     1     -42.581  56.472 -54.444  1.00  0.00     0.050 A 
HETATM    2  C   UNL     1     -43.625  56.953 -53.641  1.00  0.00     0.082 A 
HETATM    3  C   UNL     1     -44.245  58.172 -53.913  1.00  0.00     0.067 A 
HETATM    4  C   UNL     1     -43.873  58.916 -55.036  1.00  0.00     0.036 A 
HETATM    5  C   UNL     1     -42.831  58.455 -55.844  1.00  0.00     0.030 A 
HETATM    6  C   UNL     1     -42.187  57.246 -55.546  1.00  0.00     0.021 A 
ENDROOT
BRANCH   4   7
HETATM    7  N   UNL     1     -44.537  60.139 -55.247  1.00  0.00    -0.337 N 
HETATM    8  C   UNL     1     -45.475  60.478 -56.158  1.00  0.00     0.157 C 
HETATM    9  S   UNL     1     -45.511  62.049 -56.738  1.00  0.00    -0.047 SA
HETATM   10  H   UNL     1     -44.123  60.930 -54.765  1.00  0.00     0.168 HD
BRANCH   8  11
HETATM   11  N   UNL     1     -46.466  59.637 -56.561  1.00  0.00    -0.201 NA
HETATM   12  C   UNL     1     -47.358  59.969 -57.576  1.00  0.00     0.237 C 
HETATM   13  O   UNL     1     -48.158  60.897 -57.560  1.00  0.00    -0.274 OA
HETATM   14  H   UNL     1     -46.039  58.729 -56.676  1.00  0.00     0.139 HD
BRANCH  12  15
HETATM   15  C   UNL     1     -47.352  59.075 -58.768  1.00  0.00     0.029 A 
HETATM   16  C   UNL     1     -46.861  57.761 -58.736  1.00  0.00     0.053 A 
HETATM   17  C   UNL     1     -46.821  57.009 -59.913  1.00  0.00     0.069 A 
HETATM   18  C   UNL     1     -47.308  57.557 -61.102  1.00  0.00     0.037 A 
HETATM   19  C   UNL     1     -47.827  58.851 -61.132  1.00  0.00     0.004 A 
HETATM   20  C   UNL     1     -47.848  59.610 -59.966  1.00  0.00     0.017 A 
BRANCH  17  21
HETATM   21  O   UNL     1     -46.338  55.737 -60.038  1.00  0.00    -0.351 OA
BRANCH  21  22
HETATM   22  C   UNL     1     -45.217  55.530 -60.896  1.00  0.00     0.179 C 
BRANCH  22  23
HETATM   23  C   UNL     1     -44.097  54.819 -60.118  1.00  0.00     0.002 C 
HETATM   24  C   UNL     1     -43.369  55.780 -59.177  1.00  0.00     0.011 C 
HETATM   25  C   UNL     1     -44.646  53.630 -59.328  1.00  0.00     0.011 C 
ENDBRANCH  22  23
ENDBRANCH  21  22
ENDBRANCH  17  21
ENDBRANCH  12  15
ENDBRANCH   8  11
ENDBRANCH   4   7
BRANCH   2  26
HETATM   26  O   UNL     1     -44.101  56.266 -52.551  1.00  0.00    -0.360 OA
HETATM   27  H   UNL     1     -43.335  55.989 -52.004  1.00  0.00     0.217 HD
ENDBRANCH   2  26
BRANCH   1  28
HETATM   28  C   UNL     1     -41.946  55.195 -54.147  1.00  0.00     0.183 A 
HETATM   29  O   UNL     1     -41.359  55.053 -52.917  1.00  0.00    -0.288 OA
HETATM   30  C   UNL     1     -40.873  53.775 -52.929  1.00  0.00     0.112 A 
HETATM   31  C   UNL     1     -41.182  53.222 -54.161  1.00  0.00     0.094 A 
HETATM   32  C   UNL     1     -40.184  53.122 -51.908  1.00  0.00    -0.025 A 
HETATM   33  C   UNL     1     -40.752  51.921 -54.453  1.00  0.00     0.041 A 
HETATM   34  N   UNL     1     -41.900  54.117 -54.914  1.00  0.00    -0.221 NA
HETATM   35  C   UNL     1     -40.021  51.222 -53.477  1.00  0.00    -0.059 A 
HETATM   36  C   UNL     1     -39.505  49.840 -53.763  1.00  0.00     0.048 C 
HETATM   37  C   UNL     1     -39.754  51.820 -52.230  1.00  0.00     0.016 A 
HETATM   38  C   UNL     1     -39.888  53.726 -50.573  1.00  0.00     0.051 C 
ENDBRANCH   1  28
TORSDOF 8
ENDMDL
MODEL 7
REMARK VINA RESULT:      -7.7      2.796      7.284
REMARK  8 active torsions:
REMARK  status: ('A' for Active; 'I' for Inactive)
REMARK    1  A    between atoms: C_7  and  C_8 
REMARK    2  A    between atoms: C_9  and  O_10 
REMARK    3  A    between atoms: C_12  and  N_13 
REMARK    4  A    between atoms: C_14  and  N_15 
REMARK       I    between atoms: N_15  and  C_16 
REMARK    5  A    between atoms: C_16  and  C_17 
REMARK    6  A    between atoms: C_19  and  O_20 
REMARK    7  A    between atoms: O_20  and  C_21 
REMARK    8  A    between atoms: C_21  and  C_22 
ROOT
HETATM    1  C   UNL     1     -43.175  58.492 -53.726  1.00  0.00     0.050 A 
HETATM    2  C   UNL     1     -42.359  59.504 -54.253  1.00  0.00     0.082 A 
HETATM    3  C   UNL     1     -42.856  60.433 -55.166  1.00  0.00     0.067 A 
HETATM    4  C   UNL     1     -44.205  60.408 -55.531  1.00  0.00     0.036 A 
HETATM    5  C   UNL     1     -45.030  59.405 -55.021  1.00  0.00     0.030 A 
HETATM    6  C   UNL     1     -44.517  58.451 -54.130  1.00  0.00     0.021 A 
ENDROOT
BRANCH   4   7
HETATM    7  N   UNL     1     -44.637  61.373 -56.461  1.00  0.00    -0.337 N 
HETATM    8  C   UNL     1     -44.603  61.364 -57.811  1.00  0.00     0.157 C 
HETATM    9  S   UNL     1     -44.398  62.812 -58.627  1.00  0.00    -0.047 SA
HETATM   10  H   UNL     1     -44.837  62.283 -56.059  1.00  0.00     0.168 HD
BRANCH   8  11
HETATM   11  N   UNL     1     -44.827  60.248 -58.558  1.00  0.00    -0.201 NA
HETATM   12  C   UNL     1     -43.802  59.563 -59.202  1.00  0.00     0.237 C 
HETATM   13  O   UNL     1     -43.083  60.006 -60.089  1.00  0.00    -0.274 OA
HETATM   14  H   UNL     1     -45.431  59.655 -58.008  1.00  0.00     0.139 HD
BRANCH  12  15
HETATM   15  C   UNL     1     -43.604  58.145 -58.787  1.00  0.00     0.029 A 
HETATM   16  C   UNL     1     -42.957  57.780 -57.598  1.00  0.00     0.053 A 
HETATM   17  C   UNL     1     -42.744  56.429 -57.313  1.00  0.00     0.069 A 
HETATM   18  C   UNL     1     -43.215  55.452 -58.195  1.00  0.00     0.037 A 
HETATM   19  C   UNL     1     -43.888  55.810 -59.363  1.00  0.00     0.004 A 
HETATM   20  C   UNL     1     -44.082  57.156 -59.659  1.00  0.00     0.017 A 
BRANCH  17  21
HETATM   21  O   UNL     1     -42.100  55.929 -56.216  1.00  0.00    -0.351 OA
BRANCH  21  22
HETATM   22  C   UNL     1     -42.593  54.718 -55.646  1.00  0.00     0.179 C 
BRANCH  22  23
HETATM   23  C   UNL     1     -41.675  54.279 -54.493  1.00  0.00     0.002 C 
HETATM   24  C   UNL     1     -41.546  52.756 -54.426  1.00  0.00     0.011 C 
HETATM   25  C   UNL     1     -40.290  54.915 -54.622  1.00  0.00     0.011 C 
ENDBRANCH  22  23
ENDBRANCH  21  22
ENDBRANCH  17  21
ENDBRANCH  12  15
ENDBRANCH   8  11
ENDBRANCH   4   7
BRANCH   2  26
HETATM   26  O   UNL     1     -41.037  59.647 -53.909  1.00  0.00    -0.360 OA
HETATM   27  H   UNL     1     -40.591  60.165 -54.613  1.00  0.00     0.217 HD
ENDBRANCH   2  26
BRANCH   1  28
HETATM   28  C   UNL     1     -42.639  57.532 -52.771  1.00  0.00     0.183 A 
HETATM   29  O   UNL     1     -43.430  56.464 -52.439  1.00  0.00    -0.288 OA
HETATM   30  C   UNL     1     -42.668  55.750 -51.556  1.00  0.00     0.112 A 
HETATM   31  C   UNL     1     -41.470  56.427 -51.396  1.00  0.00     0.094 A 
HETATM   32  C   UNL     1     -43.009  54.560 -50.913  1.00  0.00    -0.025 A 
HETATM   33  C   UNL     1     -40.518  55.927 -50.498  1.00  0.00     0.041 A 
HETATM   34  N   UNL     1     -41.443  57.536 -52.203  1.00  0.00    -0.221 NA
HETATM   35  C   UNL     1     -40.816  54.748 -49.793  1.00  0.00    -0.059 A 
HETATM   36  C   UNL     1     -39.841  54.199 -48.790  1.00  0.00     0.048 C 
HETATM   37  C   UNL     1     -42.038  54.084 -50.009  1.00  0.00     0.016 A 
HETATM   38  C   UNL     1     -44.295  53.828 -51.124  1.00  0.00     0.051 C 
ENDBRANCH   1  28
TORSDOF 8
ENDMDL
MODEL 8
REMARK VINA RESULT:      -7.6      4.759      8.584
REMARK  8 active torsions:
REMARK  status: ('A' for Active; 'I' for Inactive)
REMARK    1  A    between atoms: C_7  and  C_8 
REMARK    2  A    between atoms: C_9  and  O_10 
REMARK    3  A    between atoms: C_12  and  N_13 
REMARK    4  A    between atoms: C_14  and  N_15 
REMARK       I    between atoms: N_15  and  C_16 
REMARK    5  A    between atoms: C_16  and  C_17 
REMARK    6  A    between atoms: C_19  and  O_20 
REMARK    7  A    between atoms: O_20  and  C_21 
REMARK    8  A    between atoms: C_21  and  C_22 
ROOT
HETATM    1  C   UNL     1     -45.396  60.191 -51.056  1.00  0.00     0.050 A 
HETATM    2  C   UNL     1     -45.527  60.787 -52.319  1.00  0.00     0.082 A 
HETATM    3  C   UNL     1     -45.352  60.049 -53.489  1.00  0.00     0.067 A 
HETATM    4  C   UNL     1     -45.097  58.677 -53.424  1.00  0.00     0.036 A 
HETATM    5  C   UNL     1     -44.958  58.068 -52.175  1.00  0.00     0.030 A 
HETATM    6  C   UNL     1     -45.100  58.822 -51.001  1.00  0.00     0.021 A 
ENDROOT
BRANCH   4   7
HETATM    7  N   UNL     1     -44.926  57.995 -54.644  1.00  0.00    -0.337 N 
HETATM    8  C   UNL     1     -43.819  57.812 -55.395  1.00  0.00     0.157 C 
HETATM    9  S   UNL     1     -43.975  57.720 -57.061  1.00  0.00    -0.047 SA
HETATM   10  H   UNL     1     -45.792  57.764 -55.120  1.00  0.00     0.168 HD
BRANCH   8  11
HETATM   11  N   UNL     1     -42.584  57.593 -54.868  1.00  0.00    -0.201 NA
HETATM   12  C   UNL     1     -41.810  58.618 -54.330  1.00  0.00     0.237 C 
HETATM   13  O   UNL     1     -41.374  59.588 -54.937  1.00  0.00    -0.274 OA
HETATM   14  H   UNL     1     -42.671  56.789 -54.263  1.00  0.00     0.139 HD
BRANCH  12  15
HETATM   15  C   UNL     1     -41.457  58.481 -52.889  1.00  0.00     0.029 A 
HETATM   16  C   UNL     1     -41.319  57.239 -52.250  1.00  0.00     0.053 A 
HETATM   17  C   UNL     1     -41.058  57.193 -50.878  1.00  0.00     0.069 A 
HETATM   18  C   UNL     1     -40.897  58.382 -50.163  1.00  0.00     0.037 A 
HETATM   19  C   UNL     1     -41.001  59.618 -50.800  1.00  0.00     0.004 A 
HETATM   20  C   UNL     1     -41.282  59.667 -52.162  1.00  0.00     0.017 A 
BRANCH  17  21
HETATM   21  O   UNL     1     -40.934  56.062 -50.121  1.00  0.00    -0.351 OA
BRANCH  21  22
HETATM   22  C   UNL     1     -41.939  55.058 -50.252  1.00  0.00     0.179 C 
BRANCH  22  23
HETATM   23  C   UNL     1     -41.301  53.753 -50.758  1.00  0.00     0.002 C 
HETATM   24  C   UNL     1     -41.430  53.616 -52.276  1.00  0.00     0.011 C 
HETATM   25  C   UNL     1     -39.829  53.667 -50.349  1.00  0.00     0.011 C 
ENDBRANCH  22  23
ENDBRANCH  21  22
ENDBRANCH  17  21
ENDBRANCH  12  15
ENDBRANCH   8  11
ENDBRANCH   4   7
BRANCH   2  26
HETATM   26  O   UNL     1     -45.835  62.115 -52.486  1.00  0.00    -0.360 OA
HETATM   27  H   UNL     1     -45.091  62.546 -52.959  1.00  0.00     0.217 HD
ENDBRANCH   2  26
BRANCH   1  28
HETATM   28  C   UNL     1     -45.585  60.977 -49.844  1.00  0.00     0.183 A 
HETATM   29  O   UNL     1     -46.673  61.809 -49.794  1.00  0.00    -0.288 OA
HETATM   30  C   UNL     1     -46.590  62.387 -48.559  1.00  0.00     0.112 A 
HETATM   31  C   UNL     1     -45.459  61.884 -47.937  1.00  0.00     0.094 A 
HETATM   32  C   UNL     1     -47.464  63.319 -48.000  1.00  0.00    -0.025 A 
HETATM   33  C   UNL     1     -45.114  62.354 -46.663  1.00  0.00     0.041 A 
HETATM   34  N   UNL     1     -44.849  60.958 -48.745  1.00  0.00    -0.221 NA
HETATM   35  C   UNL     1     -45.936  63.321 -46.059  1.00  0.00    -0.059 A 
HETATM   36  C   UNL     1     -45.581  63.883 -44.712  1.00  0.00     0.048 C 
HETATM   37  C   UNL     1     -47.089  63.782 -46.723  1.00  0.00     0.016 A 
HETATM   38  C   UNL     1     -48.698  63.826 -48.675  1.00  0.00     0.051 C 
ENDBRANCH   1  28
TORSDOF 8
ENDMDL
MODEL 9
REMARK VINA RESULT:      -7.5      3.969      8.707
REMARK  8 active torsions:
REMARK  status: ('A' for Active; 'I' for Inactive)
REMARK    1  A    between atoms: C_7  and  C_8 
REMARK    2  A    between atoms: C_9  and  O_10 
REMARK    3  A    between atoms: C_12  and  N_13 
REMARK    4  A    between atoms: C_14  and  N_15 
REMARK       I    between atoms: N_15  and  C_16 
REMARK    5  A    between atoms: C_16  and  C_17 
REMARK    6  A    between atoms: C_19  and  O_20 
REMARK    7  A    between atoms: O_20  and  C_21 
REMARK    8  A    between atoms: C_21  and  C_22 
ROOT
HETATM    1  C   UNL     1     -41.415  57.139 -53.770  1.00  0.00     0.050 A 
HETATM    2  C   UNL     1     -42.066  57.152 -55.012  1.00  0.00     0.082 A 
HETATM    3  C   UNL     1     -42.372  58.349 -55.657  1.00  0.00     0.067 A 
HETATM    4  C   UNL     1     -41.979  59.569 -55.099  1.00  0.00     0.036 A 
HETATM    5  C   UNL     1     -41.334  59.576 -53.860  1.00  0.00     0.030 A 
HETATM    6  C   UNL     1     -41.060  58.370 -53.199  1.00  0.00     0.021 A 
ENDROOT
BRANCH   4   7
HETATM    7  N   UNL     1     -42.325  60.739 -55.801  1.00  0.00    -0.337 N 
HETATM    8  C   UNL     1     -43.337  61.610 -55.604  1.00  0.00     0.157 C 
HETATM    9  S   UNL     1     -44.013  62.383 -56.928  1.00  0.00    -0.047 SA
HETATM   10  H   UNL     1     -41.856  60.846 -56.695  1.00  0.00     0.168 HD
BRANCH   8  11
HETATM   11  N   UNL     1     -43.780  61.978 -54.370  1.00  0.00    -0.201 NA
HETATM   12  C   UNL     1     -45.086  61.750 -53.947  1.00  0.00     0.237 C 
HETATM   13  O   UNL     1     -46.099  62.223 -54.446  1.00  0.00    -0.274 OA
HETATM   14  H   UNL     1     -43.079  61.666 -53.712  1.00  0.00     0.139 HD
BRANCH  12  15
HETATM   15  C   UNL     1     -45.240  60.878 -52.748  1.00  0.00     0.029 A 
HETATM   16  C   UNL     1     -45.719  61.349 -51.517  1.00  0.00     0.053 A 
HETATM   17  C   UNL     1     -45.767  60.487 -50.418  1.00  0.00     0.069 A 
HETATM   18  C   UNL     1     -45.376  59.154 -50.566  1.00  0.00     0.037 A 
HETATM   19  C   UNL     1     -44.931  58.673 -51.796  1.00  0.00     0.004 A 
HETATM   20  C   UNL     1     -44.862  59.535 -52.887  1.00  0.00     0.017 A 
BRANCH  17  21
HETATM   21  O   UNL     1     -46.174  60.815 -49.155  1.00  0.00    -0.351 OA
BRANCH  21  22
HETATM   22  C   UNL     1     -45.203  60.778 -48.111  1.00  0.00     0.179 C 
BRANCH  22  23
HETATM   23  C   UNL     1     -45.908  60.867 -46.747  1.00  0.00     0.002 C 
HETATM   24  C   UNL     1     -46.460  59.509 -46.310  1.00  0.00     0.011 C 
HETATM   25  C   UNL     1     -44.964  61.416 -45.675  1.00  0.00     0.011 C 
ENDBRANCH  22  23
ENDBRANCH  21  22
ENDBRANCH  17  21
ENDBRANCH  12  15
ENDBRANCH   8  11
ENDBRANCH   4   7
BRANCH   2  26
HETATM   26  O   UNL     1     -42.438  56.004 -55.668  1.00  0.00    -0.360 OA
HETATM   27  H   UNL     1     -42.339  55.250 -55.048  1.00  0.00     0.217 HD
ENDBRANCH   2  26
BRANCH   1  28
HETATM   28  C   UNL     1     -41.100  55.878 -53.112  1.00  0.00     0.183 A 
HETATM   29  O   UNL     1     -41.166  55.846 -51.743  1.00  0.00    -0.288 OA
HETATM   30  C   UNL     1     -40.840  54.557 -51.427  1.00  0.00     0.112 A 
HETATM   31  C   UNL     1     -40.585  53.887 -52.613  1.00  0.00     0.094 A 
HETATM   32  C   UNL     1     -40.762  53.992 -50.155  1.00  0.00    -0.025 A 
HETATM   33  C   UNL     1     -40.179  52.547 -52.567  1.00  0.00     0.041 A 
HETATM   34  N   UNL     1     -40.793  54.723 -53.681  1.00  0.00    -0.221 NA
HETATM   35  C   UNL     1     -40.047  51.929 -51.311  1.00  0.00    -0.059 A 
HETATM   36  C   UNL     1     -39.574  50.506 -51.213  1.00  0.00     0.048 C 
HETATM   37  C   UNL     1     -40.342  52.647 -50.136  1.00  0.00     0.016 A 
HETATM   38  C   UNL     1     -41.072  54.723 -48.888  1.00  0.00     0.051 C 
ENDBRANCH   1  28
TORSDOF 8
ENDMDL
MODEL 10
REMARK VINA RESULT:      -7.4      3.086      7.672
REMARK  8 active torsions:
REMARK  status: ('A' for Active; 'I' for Inactive)
REMARK    1  A    between atoms: C_7  and  C_8 
REMARK    2  A    between atoms: C_9  and  O_10 
REMARK    3  A    between atoms: C_12  and  N_13 
REMARK    4  A    between atoms: C_14  and  N_15 
REMARK       I    between atoms: N_15  and  C_16 
REMARK    5  A    between atoms: C_16  and  C_17 
REMARK    6  A    between atoms: C_19  and  O_20 
REMARK    7  A    between atoms: O_20  and  C_21 
REMARK    8  A    between atoms: C_21  and  C_22 
ROOT
HETATM    1  C   UNL     1     -43.270  57.584 -51.678  1.00  0.00     0.050 A 
HETATM    2  C   UNL     1     -44.565  57.601 -51.142  1.00  0.00     0.082 A 
HETATM    3  C   UNL     1     -45.338  58.762 -51.151  1.00  0.00     0.067 A 
HETATM    4  C   UNL     1     -44.852  59.926 -51.752  1.00  0.00     0.036 A 
HETATM    5  C   UNL     1     -43.562  59.929 -52.286  1.00  0.00     0.030 A 
HETATM    6  C   UNL     1     -42.775  58.769 -52.243  1.00  0.00     0.021 A 
ENDROOT
BRANCH   4   7
HETATM    7  N   UNL     1     -45.683  61.062 -51.721  1.00  0.00    -0.337 N 
HETATM    8  C   UNL     1     -45.889  62.020 -52.650  1.00  0.00     0.157 C 
HETATM    9  S   UNL     1     -46.224  63.581 -52.144  1.00  0.00    -0.047 SA
HETATM   10  H   UNL     1     -46.040  61.295 -50.800  1.00  0.00     0.168 HD
BRANCH   8  11
HETATM   11  N   UNL     1     -45.942  61.768 -53.986  1.00  0.00    -0.201 NA
HETATM   12  C   UNL     1     -44.990  62.257 -54.876  1.00  0.00     0.237 C 
HETATM   13  O   UNL     1     -44.761  63.437 -55.112  1.00  0.00    -0.274 OA
HETATM   14  H   UNL     1     -46.119  60.778 -54.082  1.00  0.00     0.139 HD
BRANCH  12  15
HETATM   15  C   UNL     1     -44.216  61.232 -55.631  1.00  0.00     0.029 A 
HETATM   16  C   UNL     1     -44.648  59.906 -55.782  1.00  0.00     0.053 A 
HETATM   17  C   UNL     1     -43.832  58.983 -56.442  1.00  0.00     0.069 A 
HETATM   18  C   UNL     1     -42.612  59.400 -56.981  1.00  0.00     0.037 A 
HETATM   19  C   UNL     1     -42.194  60.724 -56.862  1.00  0.00     0.004 A 
HETATM   20  C   UNL     1     -42.995  61.640 -56.187  1.00  0.00     0.017 A 
BRANCH  17  21
HETATM   21  O   UNL     1     -44.105  57.658 -56.631  1.00  0.00    -0.351 OA
BRANCH  21  22
HETATM   22  C   UNL     1     -43.635  56.733 -55.651  1.00  0.00     0.179 C 
BRANCH  22  23
HETATM   23  C   UNL     1     -42.821  55.623 -56.337  1.00  0.00     0.002 C 
HETATM   24  C   UNL     1     -43.132  54.249 -55.743  1.00  0.00     0.011 C 
HETATM   25  C   UNL     1     -43.076  55.609 -57.847  1.00  0.00     0.011 C 
ENDBRANCH  22  23
ENDBRANCH  21  22
ENDBRANCH  17  21
ENDBRANCH  12  15
ENDBRANCH   8  11
ENDBRANCH   4   7
BRANCH   2  26
HETATM   26  O   UNL     1     -45.153  56.492 -50.584  1.00  0.00    -0.360 OA
HETATM   27  H   UNL     1     -45.303  55.833 -51.295  1.00  0.00     0.217 HD
ENDBRANCH   2  26
BRANCH   1  28
HETATM   28  C   UNL     1     -42.478  56.362 -51.663  1.00  0.00     0.183 A 
HETATM   29  O   UNL     1     -41.995  55.937 -50.453  1.00  0.00    -0.288 OA
HETATM   30  C   UNL     1     -41.321  54.786 -50.752  1.00  0.00     0.112 A 
HETATM   31  C   UNL     1     -41.422  54.586 -52.119  1.00  0.00     0.094 A 
HETATM   32  C   UNL     1     -40.639  53.950 -49.869  1.00  0.00    -0.025 A 
HETATM   33  C   UNL     1     -40.772  53.488 -52.699  1.00  0.00     0.041 A 
HETATM   34  N   UNL     1     -42.195  55.569 -52.684  1.00  0.00    -0.221 NA
HETATM   35  C   UNL     1     -40.039  52.626 -51.865  1.00  0.00    -0.059 A 
HETATM   36  C   UNL     1     -39.292  51.461 -52.450  1.00  0.00     0.048 C 
HETATM   37  C   UNL     1     -39.987  52.860 -50.478  1.00  0.00     0.016 A 
HETATM   38  C   UNL     1     -40.568  54.167 -48.391  1.00  0.00     0.051 C 
ENDBRANCH   1  28
TORSDOF 8
ENDMDL
