MODEL 1
REMARK VINA RESULT:      -8.4      0.000      0.000
REMARK  10 active torsions:
REMARK  status: ('A' for Active; 'I' for Inactive)
REMARK    1  A    between atoms: C_2  and  C_3 
REMARK    2  A    between atoms: C_3  and  C_4 
REMARK    3  A    between atoms: C_4  and  O_5 
REMARK    4  A    between atoms: O_5  and  C_6 
REMARK    5  A    between atoms: C_10  and  C_11 
REMARK       I    between atoms: C_11  and  N_12 
REMARK    6  A    between atoms: N_12  and  C_13 
REMARK    7  A    between atoms: C_13  and  N_14 
REMARK    8  A    between atoms: N_14  and  C_15 
REMARK    9  A    between atoms: N_18  and  C_20 
REMARK   10  A    between atoms: C_20  and  C_21 
ROOT
HETATM    1  C   UNL     1     -43.638  57.100 -51.734  1.00  0.00     0.174 C 
HETATM    2  S   UNL     1     -44.998  57.976 -51.306  1.00  0.00    -0.041 SA
ENDROOT
BRANCH   1   3
HETATM    3  N   UNL     1     -43.379  56.942 -53.061  1.00  0.00    -0.300 N 
HETATM    4  C   UNL     1     -42.238  56.907 -53.868  1.00  0.00     0.257 C 
HETATM    5  O   UNL     1     -41.093  57.174 -53.524  1.00  0.00    -0.267 OA
HETATM    6  H   UNL     1     -44.250  56.946 -53.581  1.00  0.00     0.171 HD
BRANCH   4   7
HETATM    7  C   UNL     1     -42.480  56.613 -55.306  1.00  0.00     0.033 A 
HETATM    8  C   UNL     1     -42.428  57.602 -56.290  1.00  0.00     0.039 A 
HETATM    9  C   UNL     1     -42.675  57.259 -57.627  1.00  0.00     0.045 A 
HETATM   10  C   UNL     1     -42.983  55.939 -57.995  1.00  0.00     0.086 A 
HETATM   11 BR   UNL     1     -42.594  58.653 -58.918  1.00  0.00    -0.048 Br
HETATM   12  C   UNL     1     -43.048  54.963 -56.996  1.00  0.00     0.039 A 
HETATM   13  C   UNL     1     -42.804  55.299 -55.661  1.00  0.00     0.020 A 
BRANCH  10  14
HETATM   14  O   UNL     1     -43.192  55.693 -59.326  1.00  0.00    -0.350 OA
BRANCH  14  15
HETATM   15  C   UNL     1     -44.342  54.925 -59.688  1.00  0.00     0.176 C 
BRANCH  15  16
HETATM   16  C   UNL     1     -45.180  55.753 -60.662  1.00  0.00     0.030 C 
BRANCH  16  17
HETATM   17  C   UNL     1     -46.542  56.176 -60.085  1.00  0.00    -0.021 C 
HETATM   18  C   UNL     1     -47.512  56.503 -61.222  1.00  0.00     0.009 C 
HETATM   19  C   UNL     1     -46.421  57.378 -59.147  1.00  0.00     0.009 C 
ENDBRANCH  16  17
ENDBRANCH  15  16
ENDBRANCH  14  15
ENDBRANCH  10  14
ENDBRANCH   4   7
ENDBRANCH   1   3
BRANCH   1  20
HETATM   20  N   UNL     1     -42.907  56.591 -50.724  1.00  0.00    -0.362 N 
HETATM   21  H   UNL     1     -42.392  57.328 -50.252  1.00  0.00     0.162 HD
BRANCH  20  22
HETATM   22  C   UNL     1     -42.876  55.254 -50.136  1.00  0.00     0.087 C 
HETATM   23  C   UNL     1     -41.663  55.077 -49.212  1.00  0.00     0.053 C 
HETATM   24  C   UNL     1     -40.365  54.767 -49.941  1.00  0.00     0.237 C 
HETATM   25  N   UNL     1     -40.580  53.583 -50.847  1.00  0.00    -0.067 N 
HETATM   26  H   UNL     1     -40.948  52.817 -50.269  1.00  0.00     0.280 HD
HETATM   27  C   UNL     1     -41.609  53.897 -51.895  1.00  0.00     0.237 C 
HETATM   28  C   UNL     1     -42.938  54.168 -51.219  1.00  0.00     0.053 C 
BRANCH  25  29
HETATM   29  C   UNL     1     -39.298  53.042 -51.446  1.00  0.00     0.273 C 
BRANCH  29  30
HETATM   30  C   UNL     1     -39.528  51.815 -52.287  1.00  0.00    -0.033 A 
HETATM   31  C   UNL     1     -39.494  50.535 -51.709  1.00  0.00     0.009 A 
HETATM   32  C   UNL     1     -39.656  49.397 -52.500  1.00  0.00     0.001 A 
HETATM   33  C   UNL     1     -39.865  49.525 -53.871  1.00  0.00     0.000 A 
HETATM   34  C   UNL     1     -39.921  50.789 -54.453  1.00  0.00     0.001 A 
HETATM   35  C   UNL     1     -39.753  51.931 -53.666  1.00  0.00     0.009 A 
ENDBRANCH  29  30
ENDBRANCH  25  29
ENDBRANCH  20  22
ENDBRANCH   1  20
TORSDOF 10
ENDMDL
MODEL 2
REMARK VINA RESULT:      -8.3      1.481      2.069
REMARK  10 active torsions:
REMARK  status: ('A' for Active; 'I' for Inactive)
REMARK    1  A    between atoms: C_2  and  C_3 
REMARK    2  A    between atoms: C_3  and  C_4 
REMARK    3  A    between atoms: C_4  and  O_5 
REMARK    4  A    between atoms: O_5  and  C_6 
REMARK    5  A    between atoms: C_10  and  C_11 
REMARK       I    between atoms: C_11  and  N_12 
REMARK    6  A    between atoms: N_12  and  C_13 
REMARK    7  A    between atoms: C_13  and  N_14 
REMARK    8  A    between atoms: N_14  and  C_15 
REMARK    9  A    between atoms: N_18  and  C_20 
REMARK   10  A    between atoms: C_20  and  C_21 
ROOT
HETATM    1  C   UNL     1     -44.392  57.719 -51.915  1.00  0.00     0.174 C 
HETATM    2  S   UNL     1     -44.986  59.037 -51.072  1.00  0.00    -0.041 SA
ENDROOT
BRANCH   1   3
HETATM    3  N   UNL     1     -43.891  57.939 -53.162  1.00  0.00    -0.300 N 
HETATM    4  C   UNL     1     -42.899  58.749 -53.721  1.00  0.00     0.257 C 
HETATM    5  O   UNL     1     -42.280  59.640 -53.153  1.00  0.00    -0.267 OA
HETATM    6  H   UNL     1     -44.458  57.451 -53.847  1.00  0.00     0.171 HD
BRANCH   4   7
HETATM    7  C   UNL     1     -42.662  58.559 -55.177  1.00  0.00     0.033 A 
HETATM    8  C   UNL     1     -42.275  59.608 -56.014  1.00  0.00     0.039 A 
HETATM    9  C   UNL     1     -42.077  59.364 -57.380  1.00  0.00     0.045 A 
HETATM   10  C   UNL     1     -42.271  58.083 -57.926  1.00  0.00     0.086 A 
HETATM   11 BR   UNL     1     -41.555  60.834 -58.466  1.00  0.00    -0.048 Br
HETATM   12  C   UNL     1     -42.676  57.048 -57.079  1.00  0.00     0.039 A 
HETATM   13  C   UNL     1     -42.875  57.286 -55.716  1.00  0.00     0.020 A 
BRANCH  10  14
HETATM   14  O   UNL     1     -42.038  57.934 -59.267  1.00  0.00    -0.350 OA
BRANCH  14  15
HETATM   15  C   UNL     1     -42.427  56.700 -59.877  1.00  0.00     0.176 C 
BRANCH  15  16
HETATM   16  C   UNL     1     -43.817  56.887 -60.484  1.00  0.00     0.030 C 
BRANCH  16  17
HETATM   17  C   UNL     1     -44.895  56.019 -59.812  1.00  0.00    -0.021 C 
HETATM   18  C   UNL     1     -44.413  54.571 -59.712  1.00  0.00     0.009 C 
HETATM   19  C   UNL     1     -46.225  56.069 -60.566  1.00  0.00     0.009 C 
ENDBRANCH  16  17
ENDBRANCH  15  16
ENDBRANCH  14  15
ENDBRANCH  10  14
ENDBRANCH   4   7
ENDBRANCH   1   3
BRANCH   1  20
HETATM   20  N   UNL     1     -44.478  56.524 -51.302  1.00  0.00    -0.362 N 
HETATM   21  H   UNL     1     -45.373  56.087 -51.501  1.00  0.00     0.162 HD
BRANCH  20  22
HETATM   22  C   UNL     1     -43.481  55.736 -50.581  1.00  0.00     0.087 C 
HETATM   23  C   UNL     1     -42.073  56.325 -50.749  1.00  0.00     0.053 C 
HETATM   24  C   UNL     1     -41.396  55.950 -52.058  1.00  0.00     0.237 C 
HETATM   25  N   UNL     1     -41.420  54.452 -52.214  1.00  0.00    -0.067 N 
HETATM   26  H   UNL     1     -40.991  54.049 -51.371  1.00  0.00     0.280 HD
HETATM   27  C   UNL     1     -42.833  53.950 -52.292  1.00  0.00     0.237 C 
HETATM   28  C   UNL     1     -43.540  54.257 -50.986  1.00  0.00     0.053 C 
BRANCH  25  29
HETATM   29  C   UNL     1     -40.570  53.953 -53.364  1.00  0.00     0.273 C 
BRANCH  29  30
HETATM   30  C   UNL     1     -40.218  52.495 -53.231  1.00  0.00    -0.033 A 
HETATM   31  C   UNL     1     -40.357  51.624 -54.324  1.00  0.00     0.009 A 
HETATM   32  C   UNL     1     -40.080  50.263 -54.184  1.00  0.00     0.001 A 
HETATM   33  C   UNL     1     -39.650  49.763 -52.957  1.00  0.00     0.000 A 
HETATM   34  C   UNL     1     -39.490  50.620 -51.871  1.00  0.00     0.001 A 
HETATM   35  C   UNL     1     -39.772  51.981 -52.005  1.00  0.00     0.009 A 
ENDBRANCH  29  30
ENDBRANCH  25  29
ENDBRANCH  20  22
ENDBRANCH   1  20
TORSDOF 10
ENDMDL
MODEL 3
REMARK VINA RESULT:      -8.2      1.820      2.928
REMARK  10 active torsions:
REMARK  status: ('A' for Active; 'I' for Inactive)
REMARK    1  A    between atoms: C_2  and  C_3 
REMARK    2  A    between atoms: C_3  and  C_4 
REMARK    3  A    between atoms: C_4  and  O_5 
REMARK    4  A    between atoms: O_5  and  C_6 
REMARK    5  A    between atoms: C_10  and  C_11 
REMARK       I    between atoms: C_11  and  N_12 
REMARK    6  A    between atoms: N_12  and  C_13 
REMARK    7  A    between atoms: C_13  and  N_14 
REMARK    8  A    between atoms: N_14  and  C_15 
REMARK    9  A    between atoms: N_18  and  C_20 
REMARK   10  A    between atoms: C_20  and  C_21 
ROOT
HETATM    1  C   UNL     1     -42.138  59.765 -53.762  1.00  0.00     0.174 C 
HETATM    2  S   UNL     1     -42.874  61.260 -53.915  1.00  0.00    -0.041 SA
ENDROOT
BRANCH   1   3
HETATM    3  N   UNL     1     -42.236  58.902 -54.810  1.00  0.00    -0.300 N 
HETATM    4  C   UNL     1     -41.928  57.558 -55.040  1.00  0.00     0.257 C 
HETATM    5  O   UNL     1     -41.305  56.814 -54.293  1.00  0.00    -0.267 OA
HETATM    6  H   UNL     1     -42.519  59.407 -55.643  1.00  0.00     0.171 HD
BRANCH   4   7
HETATM    7  C   UNL     1     -42.315  57.032 -56.376  1.00  0.00     0.033 A 
HETATM    8  C   UNL     1     -42.316  57.830 -57.522  1.00  0.00     0.039 A 
HETATM    9  C   UNL     1     -42.700  57.274 -58.750  1.00  0.00     0.045 A 
HETATM   10  C   UNL     1     -43.095  55.929 -58.849  1.00  0.00     0.086 A 
HETATM   11 BR   UNL     1     -42.684  58.415 -60.272  1.00  0.00    -0.048 Br
HETATM   12  C   UNL     1     -43.107  55.148 -57.691  1.00  0.00     0.039 A 
HETATM   13  C   UNL     1     -42.725  55.697 -56.463  1.00  0.00     0.020 A 
BRANCH  10  14
HETATM   14  O   UNL     1     -43.438  55.468 -60.092  1.00  0.00    -0.350 OA
BRANCH  14  15
HETATM   15  C   UNL     1     -44.697  54.804 -60.231  1.00  0.00     0.176 C 
BRANCH  15  16
HETATM   16  C   UNL     1     -45.591  55.661 -61.127  1.00  0.00     0.030 C 
BRANCH  16  17
HETATM   17  C   UNL     1     -46.882  56.124 -60.431  1.00  0.00    -0.021 C 
HETATM   18  C   UNL     1     -47.857  56.693 -61.464  1.00  0.00     0.009 C 
HETATM   19  C   UNL     1     -46.609  57.171 -59.350  1.00  0.00     0.009 C 
ENDBRANCH  16  17
ENDBRANCH  15  16
ENDBRANCH  14  15
ENDBRANCH  10  14
ENDBRANCH   4   7
ENDBRANCH   1   3
BRANCH   1  20
HETATM   20  N   UNL     1     -41.519  59.515 -52.593  1.00  0.00    -0.362 N 
HETATM   21  H   UNL     1     -40.513  59.610 -52.697  1.00  0.00     0.162 HD
BRANCH  20  22
HETATM   22  C   UNL     1     -42.048  59.308 -51.247  1.00  0.00     0.087 C 
HETATM   23  C   UNL     1     -41.142  58.379 -50.426  1.00  0.00     0.053 C 
HETATM   24  C   UNL     1     -41.346  56.900 -50.714  1.00  0.00     0.237 C 
HETATM   25  N   UNL     1     -42.807  56.566 -50.564  1.00  0.00    -0.067 N 
HETATM   26  H   UNL     1     -43.097  56.871 -49.626  1.00  0.00     0.280 HD
HETATM   27  C   UNL     1     -43.630  57.325 -51.564  1.00  0.00     0.237 C 
HETATM   28  C   UNL     1     -43.498  58.810 -51.289  1.00  0.00     0.053 C 
BRANCH  25  29
HETATM   29  C   UNL     1     -43.091  55.079 -50.598  1.00  0.00     0.273 C 
BRANCH  29  30
HETATM   30  C   UNL     1     -42.199  54.343 -51.563  1.00  0.00    -0.033 A 
HETATM   31  C   UNL     1     -42.590  54.159 -52.900  1.00  0.00     0.009 A 
HETATM   32  C   UNL     1     -41.786  53.432 -53.778  1.00  0.00     0.001 A 
HETATM   33  C   UNL     1     -40.580  52.895 -53.336  1.00  0.00     0.000 A 
HETATM   34  C   UNL     1     -40.172  53.088 -52.018  1.00  0.00     0.001 A 
HETATM   35  C   UNL     1     -40.976  53.808 -51.134  1.00  0.00     0.009 A 
ENDBRANCH  29  30
ENDBRANCH  25  29
ENDBRANCH  20  22
ENDBRANCH   1  20
TORSDOF 10
ENDMDL
MODEL 4
REMARK VINA RESULT:      -8.2      2.093      2.843
REMARK  10 active torsions:
REMARK  status: ('A' for Active; 'I' for Inactive)
REMARK    1  A    between atoms: C_2  and  C_3 
REMARK    2  A    between atoms: C_3  and  C_4 
REMARK    3  A    between atoms: C_4  and  O_5 
REMARK    4  A    between atoms: O_5  and  C_6 
REMARK    5  A    between atoms: C_10  and  C_11 
REMARK       I    between atoms: C_11  and  N_12 
REMARK    6  A    between atoms: N_12  and  C_13 
REMARK    7  A    between atoms: C_13  and  N_14 
REMARK    8  A    between atoms: N_14  and  C_15 
REMARK    9  A    between atoms: N_18  and  C_20 
REMARK   10  A    between atoms: C_20  and  C_21 
ROOT
HETATM    1  C   UNL     1     -44.743  57.808 -51.873  1.00  0.00     0.174 C 
HETATM    2  S   UNL     1     -45.176  58.973 -50.754  1.00  0.00    -0.041 SA
ENDROOT
BRANCH   1   3
HETATM    3  N   UNL     1     -44.623  58.193 -53.174  1.00  0.00    -0.300 N 
HETATM    4  C   UNL     1     -43.631  58.782 -53.963  1.00  0.00     0.257 C 
HETATM    5  O   UNL     1     -42.570  59.252 -53.570  1.00  0.00    -0.267 OA
HETATM    6  H   UNL     1     -45.521  58.107 -53.639  1.00  0.00     0.171 HD
BRANCH   4   7
HETATM    7  C   UNL     1     -43.964  58.932 -55.404  1.00  0.00     0.033 A 
HETATM    8  C   UNL     1     -45.196  58.538 -55.932  1.00  0.00     0.039 A 
HETATM    9  C   UNL     1     -45.444  58.699 -57.302  1.00  0.00     0.045 A 
HETATM   10  C   UNL     1     -44.471  59.241 -58.159  1.00  0.00     0.086 A 
HETATM   11 BR   UNL     1     -47.138  58.139 -57.958  1.00  0.00    -0.048 Br
HETATM   12  C   UNL     1     -43.236  59.614 -57.620  1.00  0.00     0.039 A 
HETATM   13  C   UNL     1     -42.983  59.455 -56.254  1.00  0.00     0.020 A 
BRANCH  10  14
HETATM   14  O   UNL     1     -44.806  59.377 -59.479  1.00  0.00    -0.350 OA
BRANCH  14  15
HETATM   15  C   UNL     1     -43.985  58.717 -60.446  1.00  0.00     0.176 C 
BRANCH  15  16
HETATM   16  C   UNL     1     -44.225  57.212 -60.327  1.00  0.00     0.030 C 
BRANCH  16  17
HETATM   17  C   UNL     1     -42.965  56.425 -59.930  1.00  0.00    -0.021 C 
HETATM   18  C   UNL     1     -43.103  55.905 -58.498  1.00  0.00     0.009 C 
HETATM   19  C   UNL     1     -41.696  57.271 -60.051  1.00  0.00     0.009 C 
ENDBRANCH  16  17
ENDBRANCH  15  16
ENDBRANCH  14  15
ENDBRANCH  10  14
ENDBRANCH   4   7
ENDBRANCH   1   3
BRANCH   1  20
HETATM   20  N   UNL     1     -44.568  56.558 -51.405  1.00  0.00    -0.362 N 
HETATM   21  H   UNL     1     -45.314  55.950 -51.730  1.00  0.00     0.162 HD
BRANCH  20  22
HETATM   22  C   UNL     1     -43.453  55.943 -50.689  1.00  0.00     0.087 C 
HETATM   23  C   UNL     1     -42.118  56.605 -51.058  1.00  0.00     0.053 C 
HETATM   24  C   UNL     1     -41.522  56.113 -52.369  1.00  0.00     0.237 C 
HETATM   25  N   UNL     1     -41.435  54.610 -52.337  1.00  0.00    -0.067 N 
HETATM   26  H   UNL     1     -40.906  54.351 -51.494  1.00  0.00     0.280 HD
HETATM   27  C   UNL     1     -42.803  54.002 -52.220  1.00  0.00     0.237 C 
HETATM   28  C   UNL     1     -43.422  54.424 -50.903  1.00  0.00     0.053 C 
BRANCH  25  29
HETATM   29  C   UNL     1     -40.645  54.028 -53.491  1.00  0.00     0.273 C 
BRANCH  29  30
HETATM   30  C   UNL     1     -40.317  52.573 -53.289  1.00  0.00    -0.033 A 
HETATM   31  C   UNL     1     -39.827  52.115 -52.054  1.00  0.00     0.009 A 
HETATM   32  C   UNL     1     -39.475  50.775 -51.885  1.00  0.00     0.001 A 
HETATM   33  C   UNL     1     -39.619  49.879 -52.941  1.00  0.00     0.000 A 
HETATM   34  C   UNL     1     -40.123  50.316 -54.164  1.00  0.00     0.001 A 
HETATM   35  C   UNL     1     -40.471  51.657 -54.339  1.00  0.00     0.009 A 
ENDBRANCH  29  30
ENDBRANCH  25  29
ENDBRANCH  20  22
ENDBRANCH   1  20
TORSDOF 10
ENDMDL
MODEL 5
REMARK VINA RESULT:      -7.8      1.770      2.414
REMARK  10 active torsions:
REMARK  status: ('A' for Active; 'I' for Inactive)
REMARK    1  A    between atoms: C_2  and  C_3 
REMARK    2  A    between atoms: C_3  and  C_4 
REMARK    3  A    between atoms: C_4  and  O_5 
REMARK    4  A    between atoms: O_5  and  C_6 
REMARK    5  A    between atoms: C_10  and  C_11 
REMARK       I    between atoms: C_11  and  N_12 
REMARK    6  A    between atoms: N_12  and  C_13 
REMARK    7  A    between atoms: C_13  and  N_14 
REMARK    8  A    between atoms: N_14  and  C_15 
REMARK    9  A    between atoms: N_18  and  C_20 
REMARK   10  A    between atoms: C_20  and  C_21 
ROOT
HETATM    1  C   UNL     1     -44.719  57.711 -51.887  1.00  0.00     0.174 C 
HETATM    2  S   UNL     1     -45.116  58.958 -50.844  1.00  0.00    -0.041 SA
ENDROOT
BRANCH   1   3
HETATM    3  N   UNL     1     -44.620  58.003 -53.213  1.00  0.00    -0.300 N 
HETATM    4  C   UNL     1     -43.889  58.902 -53.995  1.00  0.00     0.257 C 
HETATM    5  O   UNL     1     -43.190  59.822 -53.588  1.00  0.00    -0.267 OA
HETATM    6  H   UNL     1     -45.329  57.492 -53.728  1.00  0.00     0.171 HD
BRANCH   4   7
HETATM    7  C   UNL     1     -44.076  58.771 -55.465  1.00  0.00     0.033 A 
HETATM    8  C   UNL     1     -43.594  57.677 -56.186  1.00  0.00     0.039 A 
HETATM    9  C   UNL     1     -43.798  57.619 -57.572  1.00  0.00     0.045 A 
HETATM   10  C   UNL     1     -44.470  58.649 -58.252  1.00  0.00     0.086 A 
HETATM   11 BR   UNL     1     -43.113  56.105 -58.496  1.00  0.00    -0.048 Br
HETATM   12  C   UNL     1     -44.930  59.746 -57.520  1.00  0.00     0.039 A 
HETATM   13  C   UNL     1     -44.731  59.809 -56.137  1.00  0.00     0.020 A 
BRANCH  10  14
HETATM   14  O   UNL     1     -44.637  58.500 -59.603  1.00  0.00    -0.350 OA
BRANCH  14  15
HETATM   15  C   UNL     1     -45.975  58.427 -60.104  1.00  0.00     0.176 C 
BRANCH  15  16
HETATM   16  C   UNL     1     -46.646  57.198 -59.491  1.00  0.00     0.030 C 
BRANCH  16  17
HETATM   17  C   UNL     1     -47.008  56.123 -60.529  1.00  0.00    -0.021 C 
HETATM   18  C   UNL     1     -45.735  55.480 -61.083  1.00  0.00     0.009 C 
HETATM   19  C   UNL     1     -47.841  56.691 -61.679  1.00  0.00     0.009 C 
ENDBRANCH  16  17
ENDBRANCH  15  16
ENDBRANCH  14  15
ENDBRANCH  10  14
ENDBRANCH   4   7
ENDBRANCH   1   3
BRANCH   1  20
HETATM   20  N   UNL     1     -44.552  56.495 -51.335  1.00  0.00    -0.362 N 
HETATM   21  H   UNL     1     -45.335  55.890 -51.565  1.00  0.00     0.162 HD
BRANCH  20  22
HETATM   22  C   UNL     1     -43.411  55.898 -50.644  1.00  0.00     0.087 C 
HETATM   23  C   UNL     1     -42.093  56.567 -51.058  1.00  0.00     0.053 C 
HETATM   24  C   UNL     1     -41.531  56.068 -52.380  1.00  0.00     0.237 C 
HETATM   25  N   UNL     1     -41.429  54.566 -52.336  1.00  0.00    -0.067 N 
HETATM   26  H   UNL     1     -40.873  54.320 -51.506  1.00  0.00     0.280 HD
HETATM   27  C   UNL     1     -42.787  53.947 -52.174  1.00  0.00     0.237 C 
HETATM   28  C   UNL     1     -43.372  54.377 -50.844  1.00  0.00     0.053 C 
BRANCH  25  29
HETATM   29  C   UNL     1     -40.666  53.980 -53.506  1.00  0.00     0.273 C 
BRANCH  29  30
HETATM   30  C   UNL     1     -40.325  52.528 -53.302  1.00  0.00    -0.033 A 
HETATM   31  C   UNL     1     -39.815  52.079 -52.072  1.00  0.00     0.009 A 
HETATM   32  C   UNL     1     -39.452  50.742 -51.902  1.00  0.00     0.001 A 
HETATM   33  C   UNL     1     -39.605  49.840 -52.952  1.00  0.00     0.000 A 
HETATM   34  C   UNL     1     -40.128  50.269 -54.170  1.00  0.00     0.001 A 
HETATM   35  C   UNL     1     -40.487  51.606 -54.346  1.00  0.00     0.009 A 
ENDBRANCH  29  30
ENDBRANCH  25  29
ENDBRANCH  20  22
ENDBRANCH   1  20
TORSDOF 10
ENDMDL
MODEL 6
REMARK VINA RESULT:      -7.8      2.583      3.635
REMARK  10 active torsions:
REMARK  status: ('A' for Active; 'I' for Inactive)
REMARK    1  A    between atoms: C_2  and  C_3 
REMARK    2  A    between atoms: C_3  and  C_4 
REMARK    3  A    between atoms: C_4  and  O_5 
REMARK    4  A    between atoms: O_5  and  C_6 
REMARK    5  A    between atoms: C_10  and  C_11 
REMARK       I    between atoms: C_11  and  N_12 
REMARK    6  A    between atoms: N_12  and  C_13 
REMARK    7  A    between atoms: C_13  and  N_14 
REMARK    8  A    between atoms: N_14  and  C_15 
REMARK    9  A    between atoms: N_18  and  C_20 
REMARK   10  A    between atoms: C_20  and  C_21 
ROOT
HETATM    1  C   UNL     1     -44.549  57.606 -52.046  1.00  0.00     0.174 C 
HETATM    2  S   UNL     1     -44.883  58.965 -51.128  1.00  0.00    -0.041 SA
ENDROOT
BRANCH   1   3
HETATM    3  N   UNL     1     -44.399  57.770 -53.389  1.00  0.00    -0.300 N 
HETATM    4  C   UNL     1     -44.302  56.931 -54.502  1.00  0.00     0.257 C 
HETATM    5  O   UNL     1     -44.187  55.711 -54.488  1.00  0.00    -0.267 OA
HETATM    6  H   UNL     1     -44.223  58.748 -53.595  1.00  0.00     0.171 HD
BRANCH   4   7
HETATM    7  C   UNL     1     -44.229  57.619 -55.819  1.00  0.00     0.033 A 
HETATM    8  C   UNL     1     -43.492  57.108 -56.889  1.00  0.00     0.039 A 
HETATM    9  C   UNL     1     -43.457  57.811 -58.101  1.00  0.00     0.045 A 
HETATM   10  C   UNL     1     -44.143  59.028 -58.257  1.00  0.00     0.086 A 
HETATM   11 BR   UNL     1     -42.433  57.065 -59.519  1.00  0.00    -0.048 Br
HETATM   12  C   UNL     1     -44.861  59.535 -57.171  1.00  0.00     0.039 A 
HETATM   13  C   UNL     1     -44.899  58.839 -55.959  1.00  0.00     0.020 A 
BRANCH  10  14
HETATM   14  O   UNL     1     -44.067  59.636 -59.482  1.00  0.00    -0.350 OA
BRANCH  14  15
HETATM   15  C   UNL     1     -43.587  60.982 -59.527  1.00  0.00     0.176 C 
BRANCH  15  16
HETATM   16  C   UNL     1     -42.257  60.988 -60.280  1.00  0.00     0.030 C 
BRANCH  16  17
HETATM   17  C   UNL     1     -41.076  61.476 -59.424  1.00  0.00    -0.021 C 
HETATM   18  C   UNL     1     -41.474  61.496 -57.947  1.00  0.00     0.009 C 
HETATM   19  C   UNL     1     -40.594  62.865 -59.847  1.00  0.00     0.009 C 
ENDBRANCH  16  17
ENDBRANCH  15  16
ENDBRANCH  14  15
ENDBRANCH  10  14
ENDBRANCH   4   7
ENDBRANCH   1   3
BRANCH   1  20
HETATM   20  N   UNL     1     -44.480  56.435 -51.385  1.00  0.00    -0.362 N 
HETATM   21  H   UNL     1     -45.329  55.895 -51.529  1.00  0.00     0.162 HD
BRANCH  20  22
HETATM   22  C   UNL     1     -43.375  55.790 -50.678  1.00  0.00     0.087 C 
HETATM   23  C   UNL     1     -42.030  56.442 -51.029  1.00  0.00     0.053 C 
HETATM   24  C   UNL     1     -41.437  55.971 -52.348  1.00  0.00     0.237 C 
HETATM   25  N   UNL     1     -41.370  54.466 -52.348  1.00  0.00    -0.067 N 
HETATM   26  H   UNL     1     -40.847  54.182 -51.509  1.00  0.00     0.280 HD
HETATM   27  C   UNL     1     -42.746  53.874 -52.249  1.00  0.00     0.237 C 
HETATM   28  C   UNL     1     -43.364  54.276 -50.925  1.00  0.00     0.053 C 
BRANCH  25  29
HETATM   29  C   UNL     1     -40.583  53.899 -53.511  1.00  0.00     0.273 C 
BRANCH  29  30
HETATM   30  C   UNL     1     -40.215  52.453 -53.308  1.00  0.00    -0.033 A 
HETATM   31  C   UNL     1     -40.278  51.543 -54.377  1.00  0.00     0.009 A 
HETATM   32  C   UNL     1     -39.986  50.193 -54.174  1.00  0.00     0.001 A 
HETATM   33  C   UNL     1     -39.618  49.742 -52.909  1.00  0.00     0.000 A 
HETATM   34  C   UNL     1     -39.533  50.639 -51.847  1.00  0.00     0.001 A 
HETATM   35  C   UNL     1     -39.830  51.989 -52.043  1.00  0.00     0.009 A 
ENDBRANCH  29  30
ENDBRANCH  25  29
ENDBRANCH  20  22
ENDBRANCH   1  20
TORSDOF 10
ENDMDL
MODEL 7
REMARK VINA RESULT:      -7.8      5.170      8.297
REMARK  10 active torsions:
REMARK  status: ('A' for Active; 'I' for Inactive)
REMARK    1  A    between atoms: C_2  and  C_3 
REMARK    2  A    between atoms: C_3  and  C_4 
REMARK    3  A    between atoms: C_4  and  O_5 
REMARK    4  A    between atoms: O_5  and  C_6 
REMARK    5  A    between atoms: C_10  and  C_11 
REMARK       I    between atoms: C_11  and  N_12 
REMARK    6  A    between atoms: N_12  and  C_13 
REMARK    7  A    between atoms: C_13  and  N_14 
REMARK    8  A    between atoms: N_14  and  C_15 
REMARK    9  A    between atoms: N_18  and  C_20 
REMARK   10  A    between atoms: C_20  and  C_21 
ROOT
HETATM    1  C   UNL     1     -44.371  58.039 -53.109  1.00  0.00     0.174 C 
HETATM    2  S   UNL     1     -44.164  58.388 -54.732  1.00  0.00    -0.041 SA
ENDROOT
BRANCH   1   3
HETATM    3  N   UNL     1     -44.702  59.066 -52.278  1.00  0.00    -0.300 N 
HETATM    4  C   UNL     1     -45.302  59.192 -51.022  1.00  0.00     0.257 C 
HETATM    5  O   UNL     1     -45.842  58.301 -50.379  1.00  0.00    -0.267 OA
HETATM    6  H   UNL     1     -44.550  59.950 -52.752  1.00  0.00     0.171 HD
BRANCH   4   7
HETATM    7  C   UNL     1     -45.369  60.576 -50.481  1.00  0.00     0.033 A 
HETATM    8  C   UNL     1     -46.386  61.467 -50.830  1.00  0.00     0.039 A 
HETATM    9  C   UNL     1     -46.385  62.761 -50.291  1.00  0.00     0.045 A 
HETATM   10  C   UNL     1     -45.374  63.182 -49.411  1.00  0.00     0.086 A 
HETATM   11 BR   UNL     1     -47.795  63.927 -50.810  1.00  0.00    -0.048 Br
HETATM   12  C   UNL     1     -44.353  62.286 -49.085  1.00  0.00     0.039 A 
HETATM   13  C   UNL     1     -44.348  60.994 -49.620  1.00  0.00     0.020 A 
BRANCH  10  14
HETATM   14  O   UNL     1     -45.464  64.458 -48.920  1.00  0.00    -0.350 OA
BRANCH  14  15
HETATM   15  C   UNL     1     -45.568  64.620 -47.503  1.00  0.00     0.176 C 
BRANCH  15  16
HETATM   16  C   UNL     1     -46.861  63.948 -47.042  1.00  0.00     0.030 C 
BRANCH  16  17
HETATM   17  C   UNL     1     -46.647  62.932 -45.907  1.00  0.00    -0.021 C 
HETATM   18  C   UNL     1     -45.198  62.990 -45.420  1.00  0.00     0.009 C 
HETATM   19  C   UNL     1     -46.989  61.505 -46.339  1.00  0.00     0.009 C 
ENDBRANCH  16  17
ENDBRANCH  15  16
ENDBRANCH  14  15
ENDBRANCH  10  14
ENDBRANCH   4   7
ENDBRANCH   1   3
BRANCH   1  20
HETATM   20  N   UNL     1     -44.168  56.761 -52.737  1.00  0.00    -0.362 N 
HETATM   21  H   UNL     1     -44.737  56.134 -53.296  1.00  0.00     0.162 HD
BRANCH  20  22
HETATM   22  C   UNL     1     -43.192  56.166 -51.826  1.00  0.00     0.087 C 
HETATM   23  C   UNL     1     -41.766  56.627 -52.155  1.00  0.00     0.053 C 
HETATM   24  C   UNL     1     -41.120  55.876 -53.308  1.00  0.00     0.237 C 
HETATM   25  N   UNL     1     -41.203  54.396 -53.041  1.00  0.00    -0.067 N 
HETATM   26  H   UNL     1     -40.780  54.226 -52.120  1.00  0.00     0.280 HD
HETATM   27  C   UNL     1     -42.635  53.949 -52.973  1.00  0.00     0.237 C 
HETATM   28  C   UNL     1     -43.313  54.636 -51.804  1.00  0.00     0.053 C 
BRANCH  25  29
HETATM   29  C   UNL     1     -40.388  53.563 -54.008  1.00  0.00     0.273 C 
BRANCH  29  30
HETATM   30  C   UNL     1     -40.121  52.175 -53.489  1.00  0.00    -0.033 A 
HETATM   31  C   UNL     1     -39.743  51.973 -52.150  1.00  0.00     0.009 A 
HETATM   32  C   UNL     1     -39.446  50.691 -51.685  1.00  0.00     0.001 A 
HETATM   33  C   UNL     1     -39.534  49.600 -52.546  1.00  0.00     0.000 A 
HETATM   34  C   UNL     1     -39.927  49.785 -53.869  1.00  0.00     0.001 A 
HETATM   35  C   UNL     1     -40.219  51.066 -54.341  1.00  0.00     0.009 A 
ENDBRANCH  29  30
ENDBRANCH  25  29
ENDBRANCH  20  22
ENDBRANCH   1  20
TORSDOF 10
ENDMDL
MODEL 8
REMARK VINA RESULT:      -7.8      3.191      7.972
REMARK  10 active torsions:
REMARK  status: ('A' for Active; 'I' for Inactive)
REMARK    1  A    between atoms: C_2  and  C_3 
REMARK    2  A    between atoms: C_3  and  C_4 
REMARK    3  A    between atoms: C_4  and  O_5 
REMARK    4  A    between atoms: O_5  and  C_6 
REMARK    5  A    between atoms: C_10  and  C_11 
REMARK       I    between atoms: C_11  and  N_12 
REMARK    6  A    between atoms: N_12  and  C_13 
REMARK    7  A    between atoms: C_13  and  N_14 
REMARK    8  A    between atoms: N_14  and  C_15 
REMARK    9  A    between atoms: N_18  and  C_20 
REMARK   10  A    between atoms: C_20  and  C_21 
ROOT
HETATM    1  C   UNL     1     -43.350  59.637 -51.625  1.00  0.00     0.174 C 
HETATM    2  S   UNL     1     -44.074  60.520 -50.402  1.00  0.00    -0.041 SA
ENDROOT
BRANCH   1   3
HETATM    3  N   UNL     1     -43.054  58.332 -51.373  1.00  0.00    -0.300 N 
HETATM    4  C   UNL     1     -43.775  57.181 -51.041  1.00  0.00     0.257 C 
HETATM    5  O   UNL     1     -44.961  57.124 -50.742  1.00  0.00    -0.267 OA
HETATM    6  H   UNL     1     -42.048  58.214 -51.330  1.00  0.00     0.171 HD
BRANCH   4   7
HETATM    7  C   UNL     1     -42.976  55.930 -50.948  1.00  0.00     0.033 A 
HETATM    8  C   UNL     1     -42.175  55.635 -49.843  1.00  0.00     0.039 A 
HETATM    9  C   UNL     1     -41.440  54.442 -49.822  1.00  0.00     0.045 A 
HETATM   10  C   UNL     1     -41.486  53.540 -50.899  1.00  0.00     0.086 A 
HETATM   11 BR   UNL     1     -40.366  54.100 -48.291  1.00  0.00    -0.048 Br
HETATM   12  C   UNL     1     -42.277  53.858 -52.006  1.00  0.00     0.039 A 
HETATM   13  C   UNL     1     -43.013  55.046 -52.033  1.00  0.00     0.020 A 
BRANCH  10  14
HETATM   14  O   UNL     1     -40.748  52.391 -50.784  1.00  0.00    -0.350 OA
BRANCH  14  15
HETATM   15  C   UNL     1     -39.556  52.286 -51.567  1.00  0.00     0.176 C 
BRANCH  15  16
HETATM   16  C   UNL     1     -39.571  50.932 -52.276  1.00  0.00     0.030 C 
BRANCH  16  17
HETATM   17  C   UNL     1     -39.489  51.047 -53.808  1.00  0.00    -0.021 C 
HETATM   18  C   UNL     1     -40.077  52.383 -54.264  1.00  0.00     0.009 C 
HETATM   19  C   UNL     1     -40.214  49.898 -54.511  1.00  0.00     0.009 C 
ENDBRANCH  16  17
ENDBRANCH  15  16
ENDBRANCH  14  15
ENDBRANCH  10  14
ENDBRANCH   4   7
ENDBRANCH   1   3
BRANCH   1  20
HETATM   20  N   UNL     1     -43.089  60.295 -52.769  1.00  0.00    -0.362 N 
HETATM   21  H   UNL     1     -42.148  60.678 -52.751  1.00  0.00     0.162 HD
BRANCH  20  22
HETATM   22  C   UNL     1     -43.839  60.392 -54.019  1.00  0.00     0.087 C 
HETATM   23  C   UNL     1     -44.802  59.209 -54.187  1.00  0.00     0.053 C 
HETATM   24  C   UNL     1     -44.143  57.939 -54.703  1.00  0.00     0.237 C 
HETATM   25  N   UNL     1     -43.387  58.255 -55.966  1.00  0.00    -0.067 N 
HETATM   26  H   UNL     1     -44.049  58.697 -56.618  1.00  0.00     0.280 HD
HETATM   27  C   UNL     1     -42.288  59.242 -55.695  1.00  0.00     0.237 C 
HETATM   28  C   UNL     1     -42.899  60.546 -55.222  1.00  0.00     0.053 C 
BRANCH  25  29
HETATM   29  C   UNL     1     -42.887  57.024 -56.692  1.00  0.00     0.273 C 
BRANCH  29  30
HETATM   30  C   UNL     1     -43.638  56.762 -57.970  1.00  0.00    -0.033 A 
HETATM   31  C   UNL     1     -44.748  57.550 -58.321  1.00  0.00     0.009 A 
HETATM   32  C   UNL     1     -45.474  57.273 -59.480  1.00  0.00     0.001 A 
HETATM   33  C   UNL     1     -45.093  56.217 -60.305  1.00  0.00     0.000 A 
HETATM   34  C   UNL     1     -43.983  55.442 -59.978  1.00  0.00     0.001 A 
HETATM   35  C   UNL     1     -43.257  55.711 -58.817  1.00  0.00     0.009 A 
ENDBRANCH  29  30
ENDBRANCH  25  29
ENDBRANCH  20  22
ENDBRANCH   1  20
TORSDOF 10
ENDMDL
MODEL 9
REMARK VINA RESULT:      -7.7      2.577      3.351
REMARK  10 active torsions:
REMARK  status: ('A' for Active; 'I' for Inactive)
REMARK    1  A    between atoms: C_2  and  C_3 
REMARK    2  A    between atoms: C_3  and  C_4 
REMARK    3  A    between atoms: C_4  and  O_5 
REMARK    4  A    between atoms: O_5  and  C_6 
REMARK    5  A    between atoms: C_10  and  C_11 
REMARK       I    between atoms: C_11  and  N_12 
REMARK    6  A    between atoms: N_12  and  C_13 
REMARK    7  A    between atoms: C_13  and  N_14 
REMARK    8  A    between atoms: N_14  and  C_15 
REMARK    9  A    between atoms: N_18  and  C_20 
REMARK   10  A    between atoms: C_20  and  C_21 
ROOT
HETATM    1  C   UNL     1     -44.388  57.849 -52.064  1.00  0.00     0.174 C 
HETATM    2  S   UNL     1     -45.031  59.093 -51.148  1.00  0.00    -0.041 SA
ENDROOT
BRANCH   1   3
HETATM    3  N   UNL     1     -43.896  58.158 -53.295  1.00  0.00    -0.300 N 
HETATM    4  C   UNL     1     -42.962  59.062 -53.808  1.00  0.00     0.257 C 
HETATM    5  O   UNL     1     -42.414  59.971 -53.197  1.00  0.00    -0.267 OA
HETATM    6  H   UNL     1     -44.421  57.661 -54.007  1.00  0.00     0.171 HD
BRANCH   4   7
HETATM    7  C   UNL     1     -42.702  58.955 -55.269  1.00  0.00     0.033 A 
HETATM    8  C   UNL     1     -42.991  57.798 -55.996  1.00  0.00     0.039 A 
HETATM    9  C   UNL     1     -42.713  57.759 -57.369  1.00  0.00     0.045 A 
HETATM   10  C   UNL     1     -42.141  58.860 -58.028  1.00  0.00     0.086 A 
HETATM   11 BR   UNL     1     -43.125  56.153 -58.301  1.00  0.00    -0.048 Br
HETATM   12  C   UNL     1     -41.841  60.004 -57.284  1.00  0.00     0.039 A 
HETATM   13  C   UNL     1     -42.115  60.049 -55.913  1.00  0.00     0.020 A 
BRANCH  10  14
HETATM   14  O   UNL     1     -41.921  58.738 -59.374  1.00  0.00    -0.350 OA
BRANCH  14  15
HETATM   15  C   UNL     1     -42.811  59.423 -60.259  1.00  0.00     0.176 C 
BRANCH  15  16
HETATM   16  C   UNL     1     -41.972  60.230 -61.249  1.00  0.00     0.030 C 
BRANCH  16  17
HETATM   17  C   UNL     1     -42.045  61.748 -61.011  1.00  0.00    -0.021 C 
HETATM   18  C   UNL     1     -40.674  62.277 -60.585  1.00  0.00     0.009 C 
HETATM   19  C   UNL     1     -43.089  62.116 -59.955  1.00  0.00     0.009 C 
ENDBRANCH  16  17
ENDBRANCH  15  16
ENDBRANCH  14  15
ENDBRANCH  10  14
ENDBRANCH   4   7
ENDBRANCH   1   3
BRANCH   1  20
HETATM   20  N   UNL     1     -44.429  56.617 -51.521  1.00  0.00    -0.362 N 
HETATM   21  H   UNL     1     -45.261  56.122 -51.828  1.00  0.00     0.162 HD
BRANCH  20  22
HETATM   22  C   UNL     1     -43.441  55.872 -50.745  1.00  0.00     0.087 C 
HETATM   23  C   UNL     1     -42.031  56.449 -50.933  1.00  0.00     0.053 C 
HETATM   24  C   UNL     1     -41.340  55.997 -52.210  1.00  0.00     0.237 C 
HETATM   25  N   UNL     1     -41.365  54.493 -52.279  1.00  0.00    -0.067 N 
HETATM   26  H   UNL     1     -40.946  54.140 -51.409  1.00  0.00     0.280 HD
HETATM   27  C   UNL     1     -42.778  53.988 -52.341  1.00  0.00     0.237 C 
HETATM   28  C   UNL     1     -43.498  54.372 -51.063  1.00  0.00     0.053 C 
BRANCH  25  29
HETATM   29  C   UNL     1     -40.504  53.927 -53.388  1.00  0.00     0.273 C 
BRANCH  29  30
HETATM   30  C   UNL     1     -40.229  52.457 -53.211  1.00  0.00    -0.033 A 
HETATM   31  C   UNL     1     -39.782  51.957 -51.976  1.00  0.00     0.009 A 
HETATM   32  C   UNL     1     -39.479  50.603 -51.829  1.00  0.00     0.001 A 
HETATM   33  C   UNL     1     -39.630  49.734 -52.907  1.00  0.00     0.000 A 
HETATM   34  C   UNL     1     -40.091  50.214 -54.131  1.00  0.00     0.001 A 
HETATM   35  C   UNL     1     -40.390  51.569 -54.284  1.00  0.00     0.009 A 
ENDBRANCH  29  30
ENDBRANCH  25  29
ENDBRANCH  20  22
ENDBRANCH   1  20
TORSDOF 10
ENDMDL
MODEL 10
REMARK VINA RESULT:      -7.5      1.842      2.570
REMARK  10 active torsions:
REMARK  status: ('A' for Active; 'I' for Inactive)
REMARK    1  A    between atoms: C_2  and  C_3 
REMARK    2  A    between atoms: C_3  and  C_4 
REMARK    3  A    between atoms: C_4  and  O_5 
REMARK    4  A    between atoms: O_5  and  C_6 
REMARK    5  A    between atoms: C_10  and  C_11 
REMARK       I    between atoms: C_11  and  N_12 
REMARK    6  A    between atoms: N_12  and  C_13 
REMARK    7  A    between atoms: C_13  and  N_14 
REMARK    8  A    between atoms: N_14  and  C_15 
REMARK    9  A    between atoms: N_18  and  C_20 
REMARK   10  A    between atoms: C_20  and  C_21 
ROOT
HETATM    1  C   UNL     1     -42.689  58.588 -51.595  1.00  0.00     0.174 C 
HETATM    2  S   UNL     1     -42.103  59.844 -50.657  1.00  0.00    -0.041 SA
ENDROOT
BRANCH   1   3
HETATM    3  N   UNL     1     -42.709  58.762 -52.945  1.00  0.00    -0.300 N 
HETATM    4  C   UNL     1     -41.762  59.011 -53.943  1.00  0.00     0.257 C 
HETATM    5  O   UNL     1     -40.580  59.288 -53.775  1.00  0.00    -0.267 OA
HETATM    6  H   UNL     1     -43.669  58.812 -53.268  1.00  0.00     0.171 HD
BRANCH   4   7
HETATM    7  C   UNL     1     -42.289  59.037 -55.333  1.00  0.00     0.033 A 
HETATM    8  C   UNL     1     -42.563  57.871 -56.051  1.00  0.00     0.039 A 
HETATM    9  C   UNL     1     -43.050  57.965 -57.362  1.00  0.00     0.045 A 
HETATM   10  C   UNL     1     -43.259  59.213 -57.972  1.00  0.00     0.086 A 
HETATM   11 BR   UNL     1     -43.400  56.340 -58.286  1.00  0.00    -0.048 Br
HETATM   12  C   UNL     1     -42.962  60.371 -57.249  1.00  0.00     0.039 A 
HETATM   13  C   UNL     1     -42.476  60.283 -55.941  1.00  0.00     0.020 A 
BRANCH  10  14
HETATM   14  O   UNL     1     -43.753  59.209 -59.250  1.00  0.00    -0.350 OA
BRANCH  14  15
HETATM   15  C   UNL     1     -45.070  59.728 -59.455  1.00  0.00     0.176 C 
BRANCH  15  16
HETATM   16  C   UNL     1     -45.801  58.799 -60.425  1.00  0.00     0.030 C 
BRANCH  16  17
HETATM   17  C   UNL     1     -46.896  57.956 -59.749  1.00  0.00    -0.021 C 
HETATM   18  C   UNL     1     -46.871  58.181 -58.237  1.00  0.00     0.009 C 
HETATM   19  C   UNL     1     -46.742  56.465 -60.052  1.00  0.00     0.009 C 
ENDBRANCH  16  17
ENDBRANCH  15  16
ENDBRANCH  14  15
ENDBRANCH  10  14
ENDBRANCH   4   7
ENDBRANCH   1   3
BRANCH   1  20
HETATM   20  N   UNL     1     -43.125  57.498 -50.937  1.00  0.00    -0.362 N 
HETATM   21  H   UNL     1     -44.141  57.475 -50.923  1.00  0.00     0.162 HD
BRANCH  20  22
HETATM   22  C   UNL     1     -42.411  56.332 -50.421  1.00  0.00     0.087 C 
HETATM   23  C   UNL     1     -40.961  56.298 -50.923  1.00  0.00     0.053 C 
HETATM   24  C   UNL     1     -40.803  55.748 -52.332  1.00  0.00     0.237 C 
HETATM   25  N   UNL     1     -41.477  54.404 -52.414  1.00  0.00    -0.067 N 
HETATM   26  H   UNL     1     -41.080  53.815 -51.671  1.00  0.00     0.280 HD
HETATM   27  C   UNL     1     -42.951  54.532 -52.155  1.00  0.00     0.237 C 
HETATM   28  C   UNL     1     -43.162  55.033 -50.740  1.00  0.00     0.053 C 
BRANCH  25  29
HETATM   29  C   UNL     1     -41.184  53.661 -53.701  1.00  0.00     0.273 C 
BRANCH  29  30
HETATM   30  C   UNL     1     -40.611  52.290 -53.458  1.00  0.00    -0.033 A 
HETATM   31  C   UNL     1     -40.039  51.965 -52.216  1.00  0.00     0.009 A 
HETATM   32  C   UNL     1     -39.462  50.711 -52.010  1.00  0.00     0.001 A 
HETATM   33  C   UNL     1     -39.460  49.768 -53.035  1.00  0.00     0.000 A 
HETATM   34  C   UNL     1     -40.041  50.072 -54.264  1.00  0.00     0.001 A 
HETATM   35  C   UNL     1     -40.614  51.327 -54.477  1.00  0.00     0.009 A 
ENDBRANCH  29  30
ENDBRANCH  25  29
ENDBRANCH  20  22
ENDBRANCH   1  20
TORSDOF 10
ENDMDL
