MODEL 1
REMARK VINA RESULT:      -7.1      0.000      0.000
REMARK  9 active torsions:
REMARK  status: ('A' for Active; 'I' for Inactive)
REMARK    1  A    between atoms: C_2  and  C_3 
REMARK    2  A    between atoms: C_7  and  C_8 
REMARK    3  A    between atoms: C_8  and  C_9 
REMARK       I    between atoms: C_9  and  N_10 
REMARK    4  A    between atoms: N_10  and  C_11 
REMARK    5  A    between atoms: C_11  and  C_12 
REMARK    6  A    between atoms: C_12  and  N_13 
REMARK    7  A    between atoms: C_21  and  C_22 
REMARK    8  A    between atoms: C_32  and  C_33 
REMARK    9  A    between atoms: C_33  and  O_34 
ROOT
HETATM    1  C   UNL     1     -45.122  59.899 -52.341  1.00  0.00     0.051 C 
HETATM    2  N   UNL     1     -45.507  59.156 -53.436  1.00  0.00    -0.228 NA
HETATM    3  C   UNL     1     -44.602  58.600 -54.157  1.00  0.00     0.170 C 
HETATM    4  N   UNL     1     -43.092  58.535 -53.813  1.00  0.00    -0.318 N 
HETATM    5  C   UNL     1     -42.438  57.882 -54.720  1.00  0.00     0.011 C 
HETATM    6  C   UNL     1     -42.752  59.061 -52.465  1.00  0.00     0.166 C 
HETATM    7  S   UNL     1     -44.973  57.769 -55.631  1.00  0.00    -0.086 SA
HETATM    8  C   UNL     1     -43.213  57.521 -55.966  1.00  0.00     0.135 C 
HETATM    9  C   UNL     1     -43.836  59.965 -51.929  1.00  0.00     0.069 C 
ENDROOT
BRANCH   5  10
HETATM   10  C   UNL     1     -41.017  57.435 -54.539  1.00  0.00     0.156 C 
BRANCH  10  11
HETATM   11  C   UNL     1     -40.872  55.940 -54.408  1.00  0.00     0.223 C 
HETATM   12  N   UNL     1     -41.807  55.321 -53.610  1.00  0.00    -0.359 N 
HETATM   13  H   UNL     1     -42.669  55.816 -53.399  1.00  0.00     0.162 HD
HETATM   14  O   UNL     1     -39.951  55.345 -54.950  1.00  0.00    -0.273 OA
BRANCH  12  15
HETATM   15  C   UNL     1     -41.860  53.858 -53.508  1.00  0.00     0.150 C 
BRANCH  15  16
HETATM   16  C   UNL     1     -40.844  53.261 -52.514  1.00  0.00     0.254 C 
BRANCH  16  17
HETATM   17  N   UNL     1     -40.578  51.788 -52.810  1.00  0.00    -0.070 N 
HETATM   18  H   UNL     1     -41.473  51.316 -52.634  1.00  0.00     0.279 HD
HETATM   19  C   UNL     1     -40.180  51.506 -54.242  1.00  0.00     0.235 C 
HETATM   20  C   UNL     1     -40.143  49.999 -54.455  1.00  0.00     0.028 C 
HETATM   21  C   UNL     1     -39.187  49.318 -53.482  1.00  0.00     0.003 C 
HETATM   22  C   UNL     1     -39.500  49.695 -52.038  1.00  0.00     0.028 C 
HETATM   23  C   UNL     1     -39.564  51.205 -51.843  1.00  0.00     0.235 C 
ENDBRANCH  16  17
ENDBRANCH  15  16
ENDBRANCH  12  15
ENDBRANCH  10  11
ENDBRANCH   5  10
BRANCH   6  24
HETATM   24  C   UNL     1     -42.436  57.879 -51.531  1.00  0.00    -0.024 A 
HETATM   25  C   UNL     1     -41.191  57.726 -50.872  1.00  0.00    -0.053 A 
HETATM   26  C   UNL     1     -40.078  58.744 -50.894  1.00  0.00     0.049 C 
HETATM   27  C   UNL     1     -40.983  56.598 -50.056  1.00  0.00     0.008 A 
HETATM   28  C   UNL     1     -41.962  55.618 -49.902  1.00  0.00     0.007 A 
HETATM   29  C   UNL     1     -43.189  55.748 -50.543  1.00  0.00    -0.061 A 
HETATM   30  C   UNL     1     -44.271  54.730 -50.320  1.00  0.00     0.048 C 
HETATM   31  C   UNL     1     -43.427  56.884 -51.327  1.00  0.00     0.017 A 
ENDBRANCH   6  24
BRANCH   9  32
HETATM   32  C   UNL     1     -43.328  60.981 -50.969  1.00  0.00     0.293 C 
HETATM   33  O   UNL     1     -42.988  60.699 -49.834  1.00  0.00    -0.259 OA
BRANCH  32  34
HETATM   34  O   UNL     1     -43.105  62.154 -51.601  1.00  0.00    -0.323 OA
HETATM   35  C   UNL     1     -43.652  63.308 -50.955  1.00  0.00     0.213 C 
ENDBRANCH  32  34
ENDBRANCH   9  32
BRANCH   1  36
HETATM   36  C   UNL     1     -46.298  60.602 -51.669  1.00  0.00     0.056 C 
HETATM   37  C   UNL     1     -46.835  61.786 -52.469  1.00  0.00     0.011 C 
ENDBRANCH   1  36
TORSDOF 9
ENDMDL
MODEL 2
REMARK VINA RESULT:      -7.0      3.490      5.997
REMARK  9 active torsions:
REMARK  status: ('A' for Active; 'I' for Inactive)
REMARK    1  A    between atoms: C_2  and  C_3 
REMARK    2  A    between atoms: C_7  and  C_8 
REMARK    3  A    between atoms: C_8  and  C_9 
REMARK       I    between atoms: C_9  and  N_10 
REMARK    4  A    between atoms: N_10  and  C_11 
REMARK    5  A    between atoms: C_11  and  C_12 
REMARK    6  A    between atoms: C_12  and  N_13 
REMARK    7  A    between atoms: C_21  and  C_22 
REMARK    8  A    between atoms: C_32  and  C_33 
REMARK    9  A    between atoms: C_33  and  O_34 
ROOT
HETATM    1  C   UNL     1     -45.697  60.199 -56.634  1.00  0.00     0.051 C 
HETATM    2  N   UNL     1     -44.761  60.784 -55.808  1.00  0.00    -0.228 NA
HETATM    3  C   UNL     1     -43.800  60.064 -55.353  1.00  0.00     0.170 C 
HETATM    4  N   UNL     1     -43.479  58.612 -55.789  1.00  0.00    -0.318 N 
HETATM    5  C   UNL     1     -42.432  58.164 -55.174  1.00  0.00     0.011 C 
HETATM    6  C   UNL     1     -44.308  58.119 -56.920  1.00  0.00     0.166 C 
HETATM    7  S   UNL     1     -42.660  60.667 -54.196  1.00  0.00    -0.086 SA
HETATM    8  C   UNL     1     -41.894  59.034 -54.061  1.00  0.00     0.135 C 
HETATM    9  C   UNL     1     -45.573  58.929 -57.080  1.00  0.00     0.069 C 
ENDROOT
BRANCH   5  10
HETATM   10  C   UNL     1     -41.732  56.898 -55.571  1.00  0.00     0.156 C 
BRANCH  10  11
HETATM   11  C   UNL     1     -42.096  55.717 -54.708  1.00  0.00     0.223 C 
HETATM   12  N   UNL     1     -41.319  55.539 -53.587  1.00  0.00    -0.359 N 
HETATM   13  H   UNL     1     -40.765  56.322 -53.251  1.00  0.00     0.162 HD
HETATM   14  O   UNL     1     -43.001  54.957 -55.026  1.00  0.00    -0.273 OA
BRANCH  12  15
HETATM   15  C   UNL     1     -41.653  54.511 -52.594  1.00  0.00     0.150 C 
BRANCH  15  16
HETATM   16  C   UNL     1     -40.430  53.743 -52.050  1.00  0.00     0.254 C 
BRANCH  16  17
HETATM   17  N   UNL     1     -40.419  52.299 -52.542  1.00  0.00    -0.070 N 
HETATM   18  H   UNL     1     -41.354  51.936 -52.319  1.00  0.00     0.279 HD
HETATM   19  C   UNL     1     -40.209  52.153 -54.033  1.00  0.00     0.235 C 
HETATM   20  C   UNL     1     -40.420  50.696 -54.420  1.00  0.00     0.028 C 
HETATM   21  C   UNL     1     -39.488  49.769 -53.647  1.00  0.00     0.003 C 
HETATM   22  C   UNL     1     -39.600  49.995 -52.143  1.00  0.00     0.028 C 
HETATM   23  C   UNL     1     -39.417  51.461 -51.771  1.00  0.00     0.235 C 
ENDBRANCH  16  17
ENDBRANCH  15  16
ENDBRANCH  12  15
ENDBRANCH  10  11
ENDBRANCH   5  10
BRANCH   6  24
HETATM   24  C   UNL     1     -43.447  58.090 -58.196  1.00  0.00    -0.024 A 
HETATM   25  C   UNL     1     -43.069  56.889 -58.845  1.00  0.00    -0.053 A 
HETATM   26  C   UNL     1     -43.554  55.514 -58.458  1.00  0.00     0.049 C 
HETATM   27  C   UNL     1     -42.257  56.958 -59.993  1.00  0.00     0.008 A 
HETATM   28  C   UNL     1     -41.797  58.176 -60.489  1.00  0.00     0.007 A 
HETATM   29  C   UNL     1     -42.153  59.366 -59.865  1.00  0.00    -0.061 A 
HETATM   30  C   UNL     1     -41.719  60.683 -60.441  1.00  0.00     0.048 C 
HETATM   31  C   UNL     1     -42.993  59.318 -58.745  1.00  0.00     0.017 A 
ENDBRANCH   6  24
BRANCH   9  32
HETATM   32  C   UNL     1     -46.684  58.159 -57.700  1.00  0.00     0.293 C 
HETATM   33  O   UNL     1     -47.580  57.658 -57.044  1.00  0.00    -0.259 OA
BRANCH  32  34
HETATM   34  O   UNL     1     -46.660  58.296 -59.043  1.00  0.00    -0.323 OA
HETATM   35  C   UNL     1     -46.751  57.075 -59.782  1.00  0.00     0.213 C 
ENDBRANCH  32  34
ENDBRANCH   9  32
BRANCH   1  36
HETATM   36  C   UNL     1     -46.844  61.144 -56.980  1.00  0.00     0.056 C 
HETATM   37  C   UNL     1     -46.382  62.559 -57.324  1.00  0.00     0.011 C 
ENDBRANCH   1  36
TORSDOF 9
ENDMDL
MODEL 3
REMARK VINA RESULT:      -6.8      2.974      5.849
REMARK  9 active torsions:
REMARK  status: ('A' for Active; 'I' for Inactive)
REMARK    1  A    between atoms: C_2  and  C_3 
REMARK    2  A    between atoms: C_7  and  C_8 
REMARK    3  A    between atoms: C_8  and  C_9 
REMARK       I    between atoms: C_9  and  N_10 
REMARK    4  A    between atoms: N_10  and  C_11 
REMARK    5  A    between atoms: C_11  and  C_12 
REMARK    6  A    between atoms: C_12  and  N_13 
REMARK    7  A    between atoms: C_21  and  C_22 
REMARK    8  A    between atoms: C_32  and  C_33 
REMARK    9  A    between atoms: C_33  and  O_34 
ROOT
HETATM    1  C   UNL     1     -42.548  60.547 -57.932  1.00  0.00     0.051 C 
HETATM    2  N   UNL     1     -43.017  61.435 -56.987  1.00  0.00    -0.228 NA
HETATM    3  C   UNL     1     -43.856  61.020 -56.109  1.00  0.00     0.170 C 
HETATM    4  N   UNL     1     -44.273  59.543 -55.891  1.00  0.00    -0.318 N 
HETATM    5  C   UNL     1     -45.113  59.438 -54.911  1.00  0.00     0.011 C 
HETATM    6  C   UNL     1     -43.506  58.567 -56.708  1.00  0.00     0.166 C 
HETATM    7  S   UNL     1     -44.613  62.088 -54.973  1.00  0.00    -0.086 SA
HETATM    8  C   UNL     1     -45.644  60.739 -54.351  1.00  0.00     0.135 C 
HETATM    9  C   UNL     1     -42.845  59.229 -57.894  1.00  0.00     0.069 C 
ENDROOT
BRANCH   5  10
HETATM   10  C   UNL     1     -45.497  58.123 -54.301  1.00  0.00     0.156 C 
BRANCH  10  11
HETATM   11  C   UNL     1     -44.695  57.776 -53.073  1.00  0.00     0.223 C 
HETATM   12  N   UNL     1     -44.392  56.443 -52.919  1.00  0.00    -0.359 N 
HETATM   13  H   UNL     1     -44.457  55.834 -53.730  1.00  0.00     0.162 HD
HETATM   14  O   UNL     1     -44.382  58.635 -52.259  1.00  0.00    -0.273 OA
BRANCH  12  15
HETATM   15  C   UNL     1     -43.504  55.992 -51.841  1.00  0.00     0.150 C 
BRANCH  15  16
HETATM   16  C   UNL     1     -43.293  54.464 -51.801  1.00  0.00     0.254 C 
BRANCH  16  17
HETATM   17  N   UNL     1     -42.111  54.091 -50.912  1.00  0.00    -0.070 N 
HETATM   18  H   UNL     1     -42.384  53.208 -50.463  1.00  0.00     0.279 HD
HETATM   19  C   UNL     1     -40.821  53.847 -51.664  1.00  0.00     0.235 C 
HETATM   20  C   UNL     1     -39.785  53.291 -50.698  1.00  0.00     0.028 C 
HETATM   21  C   UNL     1     -39.556  54.231 -49.519  1.00  0.00     0.003 C 
HETATM   22  C   UNL     1     -40.867  54.585 -48.827  1.00  0.00     0.028 C 
HETATM   23  C   UNL     1     -41.907  55.112 -49.808  1.00  0.00     0.235 C 
ENDBRANCH  16  17
ENDBRANCH  15  16
ENDBRANCH  12  15
ENDBRANCH  10  11
ENDBRANCH   5  10
BRANCH   6  24
HETATM   24  C   UNL     1     -42.509  57.827 -55.799  1.00  0.00    -0.024 A 
HETATM   25  C   UNL     1     -42.294  56.428 -55.865  1.00  0.00    -0.053 A 
HETATM   26  C   UNL     1     -42.903  55.515 -56.899  1.00  0.00     0.049 C 
HETATM   27  C   UNL     1     -41.380  55.834 -54.975  1.00  0.00     0.008 A 
HETATM   28  C   UNL     1     -40.703  56.583 -54.015  1.00  0.00     0.007 A 
HETATM   29  C   UNL     1     -40.902  57.957 -53.931  1.00  0.00    -0.061 A 
HETATM   30  C   UNL     1     -40.119  58.777 -52.946  1.00  0.00     0.048 C 
HETATM   31  C   UNL     1     -41.778  58.571 -54.835  1.00  0.00     0.017 A 
ENDBRANCH   6  24
BRANCH   9  32
HETATM   32  C   UNL     1     -42.635  58.302 -59.038  1.00  0.00     0.293 C 
HETATM   33  O   UNL     1     -41.567  57.759 -59.253  1.00  0.00    -0.259 OA
BRANCH  32  34
HETATM   34  O   UNL     1     -43.814  58.005 -59.625  1.00  0.00    -0.323 OA
HETATM   35  C   UNL     1     -43.848  56.759 -60.329  1.00  0.00     0.213 C 
ENDBRANCH  32  34
ENDBRANCH   9  32
BRANCH   1  36
HETATM   36  C   UNL     1     -41.667  61.220 -58.981  1.00  0.00     0.056 C 
HETATM   37  C   UNL     1     -40.513  62.021 -58.382  1.00  0.00     0.011 C 
ENDBRANCH   1  36
TORSDOF 9
ENDMDL
MODEL 4
REMARK VINA RESULT:      -6.8      2.484      4.406
REMARK  9 active torsions:
REMARK  status: ('A' for Active; 'I' for Inactive)
REMARK    1  A    between atoms: C_2  and  C_3 
REMARK    2  A    between atoms: C_7  and  C_8 
REMARK    3  A    between atoms: C_8  and  C_9 
REMARK       I    between atoms: C_9  and  N_10 
REMARK    4  A    between atoms: N_10  and  C_11 
REMARK    5  A    between atoms: C_11  and  C_12 
REMARK    6  A    between atoms: C_12  and  N_13 
REMARK    7  A    between atoms: C_21  and  C_22 
REMARK    8  A    between atoms: C_32  and  C_33 
REMARK    9  A    between atoms: C_33  and  O_34 
ROOT
HETATM    1  C   UNL     1     -43.957  60.579 -50.048  1.00  0.00     0.051 C 
HETATM    2  N   UNL     1     -42.588  60.583 -49.883  1.00  0.00    -0.228 NA
HETATM    3  C   UNL     1     -41.863  59.922 -50.710  1.00  0.00     0.170 C 
HETATM    4  N   UNL     1     -42.368  59.246 -52.010  1.00  0.00    -0.318 N 
HETATM    5  C   UNL     1     -41.394  58.682 -52.649  1.00  0.00     0.011 C 
HETATM    6  C   UNL     1     -43.790  59.535 -52.332  1.00  0.00     0.166 C 
HETATM    7  S   UNL     1     -40.151  59.745 -50.504  1.00  0.00    -0.086 SA
HETATM    8  C   UNL     1     -40.070  58.624 -51.921  1.00  0.00     0.135 C 
HETATM    9  C   UNL     1     -44.554  60.007 -51.118  1.00  0.00     0.069 C 
ENDROOT
BRANCH   5  10
HETATM   10  C   UNL     1     -41.524  58.174 -54.054  1.00  0.00     0.156 C 
BRANCH  10  11
HETATM   11  C   UNL     1     -41.733  56.684 -54.135  1.00  0.00     0.223 C 
HETATM   12  N   UNL     1     -40.597  55.936 -54.340  1.00  0.00    -0.359 N 
HETATM   13  H   UNL     1     -39.694  56.361 -54.144  1.00  0.00     0.162 HD
HETATM   14  O   UNL     1     -42.854  56.198 -54.062  1.00  0.00    -0.273 OA
BRANCH  12  15
HETATM   15  C   UNL     1     -40.643  54.469 -54.302  1.00  0.00     0.150 C 
BRANCH  15  16
HETATM   16  C   UNL     1     -40.457  53.873 -52.891  1.00  0.00     0.254 C 
BRANCH  16  17
HETATM   17  N   UNL     1     -40.422  52.349 -52.934  1.00  0.00    -0.070 N 
HETATM   18  H   UNL     1     -41.374  52.054 -52.685  1.00  0.00     0.279 HD
HETATM   19  C   UNL     1     -40.102  51.774 -54.297  1.00  0.00     0.235 C 
HETATM   20  C   UNL     1     -40.297  50.265 -54.252  1.00  0.00     0.028 C 
HETATM   21  C   UNL     1     -39.433  49.619 -53.175  1.00  0.00     0.003 C 
HETATM   22  C   UNL     1     -39.656  50.275 -51.816  1.00  0.00     0.028 C 
HETATM   23  C   UNL     1     -39.488  51.788 -51.879  1.00  0.00     0.235 C 
ENDBRANCH  16  17
ENDBRANCH  15  16
ENDBRANCH  12  15
ENDBRANCH  10  11
ENDBRANCH   5  10
BRANCH   6  24
HETATM   24  C   UNL     1     -43.846  60.533 -53.503  1.00  0.00    -0.024 A 
HETATM   25  C   UNL     1     -44.341  60.192 -54.786  1.00  0.00    -0.053 A 
HETATM   26  C   UNL     1     -44.985  58.873 -55.135  1.00  0.00     0.049 C 
HETATM   27  C   UNL     1     -44.328  61.164 -55.804  1.00  0.00     0.008 A 
HETATM   28  C   UNL     1     -43.819  62.442 -55.587  1.00  0.00     0.007 A 
HETATM   29  C   UNL     1     -43.325  62.795 -54.336  1.00  0.00    -0.061 A 
HETATM   30  C   UNL     1     -42.843  64.195 -54.080  1.00  0.00     0.048 C 
HETATM   31  C   UNL     1     -43.366  61.854 -53.301  1.00  0.00     0.017 A 
ENDBRANCH   6  24
BRANCH   9  32
HETATM   32  C   UNL     1     -46.007  59.701 -51.186  1.00  0.00     0.293 C 
HETATM   33  O   UNL     1     -46.571  59.003 -50.362  1.00  0.00    -0.259 OA
BRANCH  32  34
HETATM   34  O   UNL     1     -46.605  60.464 -52.126  1.00  0.00    -0.323 OA
HETATM   35  C   UNL     1     -46.930  61.795 -51.715  1.00  0.00     0.213 C 
ENDBRANCH  32  34
ENDBRANCH   9  32
BRANCH   1  36
HETATM   36  C   UNL     1     -44.685  61.294 -48.914  1.00  0.00     0.056 C 
HETATM   37  C   UNL     1     -44.567  62.815 -48.980  1.00  0.00     0.011 C 
ENDBRANCH   1  36
TORSDOF 9
ENDMDL
MODEL 5
REMARK VINA RESULT:      -6.8      4.875      8.310
REMARK  9 active torsions:
REMARK  status: ('A' for Active; 'I' for Inactive)
REMARK    1  A    between atoms: C_2  and  C_3 
REMARK    2  A    between atoms: C_7  and  C_8 
REMARK    3  A    between atoms: C_8  and  C_9 
REMARK       I    between atoms: C_9  and  N_10 
REMARK    4  A    between atoms: N_10  and  C_11 
REMARK    5  A    between atoms: C_11  and  C_12 
REMARK    6  A    between atoms: C_12  and  N_13 
REMARK    7  A    between atoms: C_21  and  C_22 
REMARK    8  A    between atoms: C_32  and  C_33 
REMARK    9  A    between atoms: C_33  and  O_34 
ROOT
HETATM    1  C   UNL     1     -47.041  57.226 -60.584  1.00  0.00     0.051 C 
HETATM    2  N   UNL     1     -47.679  58.276 -59.957  1.00  0.00    -0.228 NA
HETATM    3  C   UNL     1     -47.089  58.865 -58.981  1.00  0.00     0.170 C 
HETATM    4  N   UNL     1     -45.623  58.623 -58.537  1.00  0.00    -0.318 N 
HETATM    5  C   UNL     1     -45.308  59.390 -57.543  1.00  0.00     0.011 C 
HETATM    6  C   UNL     1     -44.857  57.721 -59.436  1.00  0.00     0.166 C 
HETATM    7  S   UNL     1     -47.863  60.096 -58.039  1.00  0.00    -0.086 SA
HETATM    8  C   UNL     1     -46.444  60.170 -56.920  1.00  0.00     0.135 C 
HETATM    9  C   UNL     1     -45.770  56.873 -60.288  1.00  0.00     0.069 C 
ENDROOT
BRANCH   5  10
HETATM   10  C   UNL     1     -43.897  59.567 -57.065  1.00  0.00     0.156 C 
BRANCH  10  11
HETATM   11  C   UNL     1     -43.311  58.320 -56.455  1.00  0.00     0.223 C 
HETATM   12  N   UNL     1     -44.120  57.661 -55.557  1.00  0.00    -0.359 N 
HETATM   13  H   UNL     1     -45.117  57.859 -55.568  1.00  0.00     0.162 HD
HETATM   14  O   UNL     1     -42.172  57.961 -56.723  1.00  0.00    -0.273 OA
BRANCH  12  15
HETATM   15  C   UNL     1     -43.724  56.364 -54.997  1.00  0.00     0.150 C 
BRANCH  15  16
HETATM   16  C   UNL     1     -42.860  56.468 -53.723  1.00  0.00     0.254 C 
BRANCH  16  17
HETATM   17  N   UNL     1     -41.735  55.438 -53.730  1.00  0.00    -0.070 N 
HETATM   18  H   UNL     1     -40.892  55.965 -53.472  1.00  0.00     0.279 HD
HETATM   19  C   UNL     1     -41.910  54.323 -52.723  1.00  0.00     0.235 C 
HETATM   20  C   UNL     1     -40.639  53.486 -52.689  1.00  0.00     0.028 C 
HETATM   21  C   UNL     1     -40.300  52.926 -54.065  1.00  0.00     0.003 C 
HETATM   22  C   UNL     1     -40.244  54.029 -55.117  1.00  0.00     0.028 C 
HETATM   23  C   UNL     1     -41.508  54.878 -55.121  1.00  0.00     0.235 C 
ENDBRANCH  16  17
ENDBRANCH  15  16
ENDBRANCH  12  15
ENDBRANCH  10  11
ENDBRANCH   5  10
BRANCH   6  24
HETATM   24  C   UNL     1     -43.869  58.561 -60.265  1.00  0.00    -0.024 A 
HETATM   25  C   UNL     1     -42.498  58.231 -60.400  1.00  0.00    -0.053 A 
HETATM   26  C   UNL     1     -41.862  56.971 -59.869  1.00  0.00     0.049 C 
HETATM   27  C   UNL     1     -41.663  59.074 -61.158  1.00  0.00     0.008 A 
HETATM   28  C   UNL     1     -42.147  60.236 -61.756  1.00  0.00     0.007 A 
HETATM   29  C   UNL     1     -43.489  60.579 -61.632  1.00  0.00    -0.061 A 
HETATM   30  C   UNL     1     -44.028  61.792 -62.336  1.00  0.00     0.048 C 
HETATM   31  C   UNL     1     -44.342  59.731 -60.915  1.00  0.00     0.017 A 
ENDBRANCH   6  24
BRANCH   9  32
HETATM   32  C   UNL     1     -45.157  55.580 -60.693  1.00  0.00     0.293 C 
HETATM   33  O   UNL     1     -45.017  55.258 -61.859  1.00  0.00    -0.259 OA
BRANCH  32  34
HETATM   34  O   UNL     1     -44.609  54.963 -59.624  1.00  0.00    -0.323 OA
HETATM   35  C   UNL     1     -44.807  53.547 -59.568  1.00  0.00     0.213 C 
ENDBRANCH  32  34
ENDBRANCH   9  32
BRANCH   1  36
HETATM   36  C   UNL     1     -47.922  56.546 -61.628  1.00  0.00     0.056 C 
HETATM   37  C   UNL     1     -48.479  57.511 -62.673  1.00  0.00     0.011 C 
ENDBRANCH   1  36
TORSDOF 9
ENDMDL
MODEL 6
REMARK VINA RESULT:      -6.6      3.995      6.344
REMARK  9 active torsions:
REMARK  status: ('A' for Active; 'I' for Inactive)
REMARK    1  A    between atoms: C_2  and  C_3 
REMARK    2  A    between atoms: C_7  and  C_8 
REMARK    3  A    between atoms: C_8  and  C_9 
REMARK       I    between atoms: C_9  and  N_10 
REMARK    4  A    between atoms: N_10  and  C_11 
REMARK    5  A    between atoms: C_11  and  C_12 
REMARK    6  A    between atoms: C_12  and  N_13 
REMARK    7  A    between atoms: C_21  and  C_22 
REMARK    8  A    between atoms: C_32  and  C_33 
REMARK    9  A    between atoms: C_33  and  O_34 
ROOT
HETATM    1  C   UNL     1     -42.151  59.566 -60.073  1.00  0.00     0.051 C 
HETATM    2  N   UNL     1     -42.482  58.244 -60.283  1.00  0.00    -0.228 NA
HETATM    3  C   UNL     1     -42.746  57.502 -59.269  1.00  0.00     0.170 C 
HETATM    4  N   UNL     1     -42.902  57.997 -57.808  1.00  0.00    -0.318 N 
HETATM    5  C   UNL     1     -43.198  57.018 -57.015  1.00  0.00     0.011 C 
HETATM    6  C   UNL     1     -42.862  59.476 -57.659  1.00  0.00     0.166 C 
HETATM    7  S   UNL     1     -43.031  55.800 -59.416  1.00  0.00    -0.086 SA
HETATM    8  C   UNL     1     -43.124  55.633 -57.618  1.00  0.00     0.135 C 
HETATM    9  C   UNL     1     -42.211  60.139 -58.850  1.00  0.00     0.069 C 
ENDROOT
BRANCH   5  10
HETATM   10  C   UNL     1     -43.659  57.221 -55.603  1.00  0.00     0.156 C 
BRANCH  10  11
HETATM   11  C   UNL     1     -42.530  57.259 -54.605  1.00  0.00     0.223 C 
HETATM   12  N   UNL     1     -42.572  56.294 -53.625  1.00  0.00    -0.359 N 
HETATM   13  H   UNL     1     -43.152  55.473 -53.777  1.00  0.00     0.162 HD
HETATM   14  O   UNL     1     -41.668  58.126 -54.658  1.00  0.00    -0.273 OA
BRANCH  12  15
HETATM   15  C   UNL     1     -41.464  56.136 -52.675  1.00  0.00     0.150 C 
BRANCH  15  16
HETATM   16  C   UNL     1     -41.539  54.845 -51.833  1.00  0.00     0.254 C 
BRANCH  16  17
HETATM   17  N   UNL     1     -40.645  53.753 -52.410  1.00  0.00    -0.070 N 
HETATM   18  H   UNL     1     -39.762  54.225 -52.638  1.00  0.00     0.279 HD
HETATM   19  C   UNL     1     -40.334  52.631 -51.444  1.00  0.00     0.235 C 
HETATM   20  C   UNL     1     -39.283  51.723 -52.067  1.00  0.00     0.028 C 
HETATM   21  C   UNL     1     -39.744  51.169 -53.410  1.00  0.00     0.003 C 
HETATM   22  C   UNL     1     -40.181  52.286 -54.352  1.00  0.00     0.028 C 
HETATM   23  C   UNL     1     -41.210  53.206 -53.708  1.00  0.00     0.235 C 
ENDBRANCH  16  17
ENDBRANCH  15  16
ENDBRANCH  12  15
ENDBRANCH  10  11
ENDBRANCH   5  10
BRANCH   6  24
HETATM   24  C   UNL     1     -44.286  59.991 -57.388  1.00  0.00    -0.024 A 
HETATM   25  C   UNL     1     -44.628  60.749 -56.240  1.00  0.00    -0.053 A 
HETATM   26  C   UNL     1     -43.639  61.252 -55.219  1.00  0.00     0.049 C 
HETATM   27  C   UNL     1     -45.964  61.156 -56.062  1.00  0.00     0.008 A 
HETATM   28  C   UNL     1     -46.960  60.810 -56.972  1.00  0.00     0.007 A 
HETATM   29  C   UNL     1     -46.646  60.063 -58.103  1.00  0.00    -0.061 A 
HETATM   30  C   UNL     1     -47.705  59.751 -59.122  1.00  0.00     0.048 C 
HETATM   31  C   UNL     1     -45.315  59.684 -58.316  1.00  0.00     0.017 A 
ENDBRANCH   6  24
BRANCH   9  32
HETATM   32  C   UNL     1     -41.575  61.442 -58.517  1.00  0.00     0.293 C 
HETATM   33  O   UNL     1     -40.403  61.537 -58.198  1.00  0.00    -0.259 OA
BRANCH  32  34
HETATM   34  O   UNL     1     -42.401  62.463 -58.830  1.00  0.00    -0.323 OA
HETATM   35  C   UNL     1     -42.344  63.587 -57.947  1.00  0.00     0.213 C 
ENDBRANCH  32  34
ENDBRANCH   9  32
BRANCH   1  36
HETATM   36  C   UNL     1     -41.736  60.276 -61.357  1.00  0.00     0.056 C 
HETATM   37  C   UNL     1     -42.893  60.980 -62.063  1.00  0.00     0.011 C 
ENDBRANCH   1  36
TORSDOF 9
ENDMDL
MODEL 7
REMARK VINA RESULT:      -6.2      3.928      6.340
REMARK  9 active torsions:
REMARK  status: ('A' for Active; 'I' for Inactive)
REMARK    1  A    between atoms: C_2  and  C_3 
REMARK    2  A    between atoms: C_7  and  C_8 
REMARK    3  A    between atoms: C_8  and  C_9 
REMARK       I    between atoms: C_9  and  N_10 
REMARK    4  A    between atoms: N_10  and  C_11 
REMARK    5  A    between atoms: C_11  and  C_12 
REMARK    6  A    between atoms: C_12  and  N_13 
REMARK    7  A    between atoms: C_21  and  C_22 
REMARK    8  A    between atoms: C_32  and  C_33 
REMARK    9  A    between atoms: C_33  and  O_34 
ROOT
HETATM    1  C   UNL     1     -42.264  59.817 -59.928  1.00  0.00     0.051 C 
HETATM    2  N   UNL     1     -42.692  58.521 -60.123  1.00  0.00    -0.228 NA
HETATM    3  C   UNL     1     -42.794  57.743 -59.107  1.00  0.00     0.170 C 
HETATM    4  N   UNL     1     -42.648  58.174 -57.625  1.00  0.00    -0.318 N 
HETATM    5  C   UNL     1     -42.835  57.170 -56.829  1.00  0.00     0.011 C 
HETATM    6  C   UNL     1     -42.510  59.641 -57.429  1.00  0.00     0.166 C 
HETATM    7  S   UNL     1     -43.182  56.062 -59.263  1.00  0.00    -0.086 SA
HETATM    8  C   UNL     1     -42.942  55.813 -57.488  1.00  0.00     0.135 C 
HETATM    9  C   UNL     1     -42.065  60.334 -58.695  1.00  0.00     0.069 C 
ENDROOT
BRANCH   5  10
HETATM   10  C   UNL     1     -43.010  57.324 -55.348  1.00  0.00     0.156 C 
BRANCH  10  11
HETATM   11  C   UNL     1     -42.451  56.170 -54.556  1.00  0.00     0.223 C 
HETATM   12  N   UNL     1     -43.381  55.382 -53.918  1.00  0.00    -0.359 N 
HETATM   13  H   UNL     1     -44.348  55.426 -54.228  1.00  0.00     0.162 HD
HETATM   14  O   UNL     1     -41.243  55.992 -54.466  1.00  0.00    -0.273 OA
BRANCH  12  15
HETATM   15  C   UNL     1     -42.979  54.150 -53.229  1.00  0.00     0.150 C 
BRANCH  15  16
HETATM   16  C   UNL     1     -43.418  54.087 -51.751  1.00  0.00     0.254 C 
BRANCH  16  17
HETATM   17  N   UNL     1     -42.223  53.881 -50.826  1.00  0.00    -0.070 N 
HETATM   18  H   UNL     1     -42.461  53.055 -50.265  1.00  0.00     0.279 HD
HETATM   19  C   UNL     1     -40.924  53.593 -51.546  1.00  0.00     0.235 C 
HETATM   20  C   UNL     1     -39.867  53.211 -50.519  1.00  0.00     0.028 C 
HETATM   21  C   UNL     1     -39.677  54.305 -49.474  1.00  0.00     0.003 C 
HETATM   22  C   UNL     1     -41.003  54.693 -48.828  1.00  0.00     0.028 C 
HETATM   23  C   UNL     1     -42.062  55.045 -49.865  1.00  0.00     0.235 C 
ENDBRANCH  16  17
ENDBRANCH  15  16
ENDBRANCH  12  15
ENDBRANCH  10  11
ENDBRANCH   5  10
BRANCH   6  24
HETATM   24  C   UNL     1     -43.831  60.199 -56.871  1.00  0.00    -0.024 A 
HETATM   25  C   UNL     1     -43.946  60.760 -55.575  1.00  0.00    -0.053 A 
HETATM   26  C   UNL     1     -42.789  61.000 -54.638  1.00  0.00     0.049 C 
HETATM   27  C   UNL     1     -45.203  61.222 -55.139  1.00  0.00     0.008 A 
HETATM   28  C   UNL     1     -46.338  61.116 -55.940  1.00  0.00     0.007 A 
HETATM   29  C   UNL     1     -46.246  60.564 -57.213  1.00  0.00    -0.061 A 
HETATM   30  C   UNL     1     -47.454  60.516 -58.106  1.00  0.00     0.048 C 
HETATM   31  C   UNL     1     -44.997  60.137 -57.678  1.00  0.00     0.017 A 
ENDBRANCH   6  24
BRANCH   9  32
HETATM   32  C   UNL     1     -41.316  61.593 -58.439  1.00  0.00     0.293 C 
HETATM   33  O   UNL     1     -40.099  61.639 -58.415  1.00  0.00    -0.259 OA
BRANCH  32  34
HETATM   34  O   UNL     1     -42.153  62.652 -58.464  1.00  0.00    -0.323 OA
HETATM   35  C   UNL     1     -41.750  63.729 -59.316  1.00  0.00     0.213 C 
ENDBRANCH  32  34
ENDBRANCH   9  32
BRANCH   1  36
HETATM   36  C   UNL     1     -42.066  60.571 -61.240  1.00  0.00     0.056 C 
HETATM   37  C   UNL     1     -43.345  60.704 -62.063  1.00  0.00     0.011 C 
ENDBRANCH   1  36
TORSDOF 9
ENDMDL
MODEL 8
REMARK VINA RESULT:      -6.1      3.687      5.916
REMARK  9 active torsions:
REMARK  status: ('A' for Active; 'I' for Inactive)
REMARK    1  A    between atoms: C_2  and  C_3 
REMARK    2  A    between atoms: C_7  and  C_8 
REMARK    3  A    between atoms: C_8  and  C_9 
REMARK       I    between atoms: C_9  and  N_10 
REMARK    4  A    between atoms: N_10  and  C_11 
REMARK    5  A    between atoms: C_11  and  C_12 
REMARK    6  A    between atoms: C_12  and  N_13 
REMARK    7  A    between atoms: C_21  and  C_22 
REMARK    8  A    between atoms: C_32  and  C_33 
REMARK    9  A    between atoms: C_33  and  O_34 
ROOT
HETATM    1  C   UNL     1     -44.445  62.486 -56.604  1.00  0.00     0.051 C 
HETATM    2  N   UNL     1     -43.478  62.212 -55.660  1.00  0.00    -0.228 NA
HETATM    3  C   UNL     1     -43.599  61.158 -54.938  1.00  0.00     0.170 C 
HETATM    4  N   UNL     1     -44.655  60.042 -55.143  1.00  0.00    -0.318 N 
HETATM    5  C   UNL     1     -44.503  59.094 -54.274  1.00  0.00     0.011 C 
HETATM    6  C   UNL     1     -45.479  60.203 -56.369  1.00  0.00     0.166 C 
HETATM    7  S   UNL     1     -42.518  60.803 -53.631  1.00  0.00    -0.086 SA
HETATM    8  C   UNL     1     -43.510  59.363 -53.167  1.00  0.00     0.135 C 
HETATM    9  C   UNL     1     -45.450  61.624 -56.880  1.00  0.00     0.069 C 
ENDROOT
BRANCH   5  10
HETATM   10  C   UNL     1     -45.203  57.772 -54.378  1.00  0.00     0.156 C 
BRANCH  10  11
HETATM   11  C   UNL     1     -44.263  56.611 -54.580  1.00  0.00     0.223 C 
HETATM   12  N   UNL     1     -44.153  55.745 -53.517  1.00  0.00    -0.359 N 
HETATM   13  H   UNL     1     -44.881  55.754 -52.807  1.00  0.00     0.162 HD
HETATM   14  O   UNL     1     -43.618  56.493 -55.613  1.00  0.00    -0.273 OA
BRANCH  12  15
HETATM   15  C   UNL     1     -43.379  54.504 -53.633  1.00  0.00     0.150 C 
BRANCH  15  16
HETATM   16  C   UNL     1     -41.943  54.606 -53.079  1.00  0.00     0.254 C 
BRANCH  16  17
HETATM   17  N   UNL     1     -41.268  53.239 -53.032  1.00  0.00    -0.070 N 
HETATM   18  H   UNL     1     -42.007  52.588 -52.743  1.00  0.00     0.279 HD
HETATM   19  C   UNL     1     -40.730  52.767 -54.365  1.00  0.00     0.235 C 
HETATM   20  C   UNL     1     -40.270  51.323 -54.226  1.00  0.00     0.028 C 
HETATM   21  C   UNL     1     -39.218  51.171 -53.133  1.00  0.00     0.003 C 
HETATM   22  C   UNL     1     -39.701  51.758 -51.811  1.00  0.00     0.028 C 
HETATM   23  C   UNL     1     -40.187  53.194 -51.967  1.00  0.00     0.235 C 
ENDBRANCH  16  17
ENDBRANCH  15  16
ENDBRANCH  12  15
ENDBRANCH  10  11
ENDBRANCH   5  10
BRANCH   6  24
HETATM   24  C   UNL     1     -45.020  59.176 -57.420  1.00  0.00    -0.024 A 
HETATM   25  C   UNL     1     -45.884  58.201 -57.976  1.00  0.00    -0.053 A 
HETATM   26  C   UNL     1     -47.368  58.121 -57.717  1.00  0.00     0.049 C 
HETATM   27  C   UNL     1     -45.368  57.285 -58.913  1.00  0.00     0.008 A 
HETATM   28  C   UNL     1     -44.025  57.299 -59.285  1.00  0.00     0.007 A 
HETATM   29  C   UNL     1     -43.160  58.246 -58.747  1.00  0.00    -0.061 A 
HETATM   30  C   UNL     1     -41.730  58.309 -59.201  1.00  0.00     0.048 C 
HETATM   31  C   UNL     1     -43.665  59.190 -57.844  1.00  0.00     0.017 A 
ENDBRANCH   6  24
BRANCH   9  32
HETATM   32  C   UNL     1     -46.671  61.997 -57.641  1.00  0.00     0.293 C 
HETATM   33  O   UNL     1     -46.720  61.968 -58.858  1.00  0.00    -0.259 OA
BRANCH  32  34
HETATM   34  O   UNL     1     -47.721  62.143 -56.805  1.00  0.00    -0.323 OA
HETATM   35  C   UNL     1     -48.968  61.644 -57.298  1.00  0.00     0.213 C 
ENDBRANCH  32  34
ENDBRANCH   9  32
BRANCH   1  36
HETATM   36  C   UNL     1     -44.233  63.835 -57.284  1.00  0.00     0.056 C 
HETATM   37  C   UNL     1     -43.346  63.758 -58.524  1.00  0.00     0.011 C 
ENDBRANCH   1  36
TORSDOF 9
ENDMDL
MODEL 9
REMARK VINA RESULT:      -6.1      1.588      2.226
REMARK  9 active torsions:
REMARK  status: ('A' for Active; 'I' for Inactive)
REMARK    1  A    between atoms: C_2  and  C_3 
REMARK    2  A    between atoms: C_7  and  C_8 
REMARK    3  A    between atoms: C_8  and  C_9 
REMARK       I    between atoms: C_9  and  N_10 
REMARK    4  A    between atoms: N_10  and  C_11 
REMARK    5  A    between atoms: C_11  and  C_12 
REMARK    6  A    between atoms: C_12  and  N_13 
REMARK    7  A    between atoms: C_21  and  C_22 
REMARK    8  A    between atoms: C_32  and  C_33 
REMARK    9  A    between atoms: C_33  and  O_34 
ROOT
HETATM    1  C   UNL     1     -45.202  61.136 -54.037  1.00  0.00     0.051 C 
HETATM    2  N   UNL     1     -45.830  60.282 -54.919  1.00  0.00    -0.228 NA
HETATM    3  C   UNL     1     -45.119  59.442 -55.580  1.00  0.00     0.170 C 
HETATM    4  N   UNL     1     -43.611  59.166 -55.355  1.00  0.00    -0.318 N 
HETATM    5  C   UNL     1     -43.184  58.243 -56.156  1.00  0.00     0.011 C 
HETATM    6  C   UNL     1     -43.033  59.866 -54.178  1.00  0.00     0.166 C 
HETATM    7  S   UNL     1     -45.792  58.429 -56.814  1.00  0.00    -0.086 SA
HETATM    8  C   UNL     1     -44.149  57.802 -57.233  1.00  0.00     0.135 C 
HETATM    9  C   UNL     1     -43.884  61.040 -53.754  1.00  0.00     0.069 C 
ENDROOT
BRANCH   5  10
HETATM   10  C   UNL     1     -41.845  57.584 -56.003  1.00  0.00     0.156 C 
BRANCH  10  11
HETATM   11  C   UNL     1     -41.924  56.196 -55.421  1.00  0.00     0.223 C 
HETATM   12  N   UNL     1     -43.164  55.815 -54.962  1.00  0.00    -0.359 N 
HETATM   13  H   UNL     1     -43.980  56.331 -55.283  1.00  0.00     0.162 HD
HETATM   14  O   UNL     1     -40.929  55.490 -55.334  1.00  0.00    -0.273 OA
BRANCH  12  15
HETATM   15  C   UNL     1     -43.407  54.444 -54.498  1.00  0.00     0.150 C 
BRANCH  15  16
HETATM   16  C   UNL     1     -43.056  54.213 -53.013  1.00  0.00     0.254 C 
BRANCH  16  17
HETATM   17  N   UNL     1     -41.642  53.664 -52.858  1.00  0.00    -0.070 N 
HETATM   18  H   UNL     1     -41.025  54.444 -53.115  1.00  0.00     0.279 HD
HETATM   19  C   UNL     1     -41.292  53.243 -51.447  1.00  0.00     0.235 C 
HETATM   20  C   UNL     1     -39.808  52.910 -51.387  1.00  0.00     0.028 C 
HETATM   21  C   UNL     1     -39.436  51.820 -52.386  1.00  0.00     0.003 C 
HETATM   22  C   UNL     1     -39.896  52.177 -53.796  1.00  0.00     0.028 C 
HETATM   23  C   UNL     1     -41.376  52.538 -53.839  1.00  0.00     0.235 C 
ENDBRANCH  16  17
ENDBRANCH  15  16
ENDBRANCH  12  15
ENDBRANCH  10  11
ENDBRANCH   5  10
BRANCH   6  24
HETATM   24  C   UNL     1     -42.809  58.846 -53.048  1.00  0.00    -0.024 A 
HETATM   25  C   UNL     1     -41.522  58.422 -52.634  1.00  0.00    -0.053 A 
HETATM   26  C   UNL     1     -40.224  58.996 -53.144  1.00  0.00     0.049 C 
HETATM   27  C   UNL     1     -41.415  57.464 -51.608  1.00  0.00     0.008 A 
HETATM   28  C   UNL     1     -42.543  56.905 -51.010  1.00  0.00     0.007 A 
HETATM   29  C   UNL     1     -43.814  57.305 -51.404  1.00  0.00    -0.061 A 
HETATM   30  C   UNL     1     -45.029  56.758 -50.711  1.00  0.00     0.048 C 
HETATM   31  C   UNL     1     -43.939  58.286 -52.396  1.00  0.00     0.017 A 
ENDBRANCH   6  24
BRANCH   9  32
HETATM   32  C   UNL     1     -43.106  62.108 -53.071  1.00  0.00     0.293 C 
HETATM   33  O   UNL     1     -42.871  63.184 -53.593  1.00  0.00    -0.259 OA
BRANCH  32  34
HETATM   34  O   UNL     1     -42.913  61.793 -51.773  1.00  0.00    -0.323 OA
HETATM   35  C   UNL     1     -43.533  62.676 -50.832  1.00  0.00     0.213 C 
ENDBRANCH  32  34
ENDBRANCH   9  32
BRANCH   1  36
HETATM   36  C   UNL     1     -46.159  62.159 -53.431  1.00  0.00     0.056 C 
HETATM   37  C   UNL     1     -46.901  61.642 -52.201  1.00  0.00     0.011 C 
ENDBRANCH   1  36
TORSDOF 9
ENDMDL
MODEL 10
REMARK VINA RESULT:      -6.0      2.633      4.347
REMARK  9 active torsions:
REMARK  status: ('A' for Active; 'I' for Inactive)
REMARK    1  A    between atoms: C_2  and  C_3 
REMARK    2  A    between atoms: C_7  and  C_8 
REMARK    3  A    between atoms: C_8  and  C_9 
REMARK       I    between atoms: C_9  and  N_10 
REMARK    4  A    between atoms: N_10  and  C_11 
REMARK    5  A    between atoms: C_11  and  C_12 
REMARK    6  A    between atoms: C_12  and  N_13 
REMARK    7  A    between atoms: C_21  and  C_22 
REMARK    8  A    between atoms: C_32  and  C_33 
REMARK    9  A    between atoms: C_33  and  O_34 
ROOT
HETATM    1  C   UNL     1     -43.713  62.306 -53.638  1.00  0.00     0.051 C 
HETATM    2  N   UNL     1     -43.858  62.337 -52.267  1.00  0.00    -0.228 NA
HETATM    3  C   UNL     1     -44.327  61.301 -51.670  1.00  0.00     0.170 C 
HETATM    4  N   UNL     1     -44.591  59.924 -52.331  1.00  0.00    -0.318 N 
HETATM    5  C   UNL     1     -45.036  59.072 -51.464  1.00  0.00     0.011 C 
HETATM    6  C   UNL     1     -44.119  59.824 -53.737  1.00  0.00     0.166 C 
HETATM    7  S   UNL     1     -44.682  61.292 -49.974  1.00  0.00    -0.086 SA
HETATM    8  C   UNL     1     -45.387  59.631 -50.104  1.00  0.00     0.135 C 
HETATM    9  C   UNL     1     -43.932  61.186 -54.362  1.00  0.00     0.069 C 
ENDROOT
BRANCH   5  10
HETATM   10  C   UNL     1     -45.139  57.602 -51.744  1.00  0.00     0.156 C 
BRANCH  10  11
HETATM   11  C   UNL     1     -44.013  56.799 -51.145  1.00  0.00     0.223 C 
HETATM   12  N   UNL     1     -44.176  55.433 -51.176  1.00  0.00    -0.359 N 
HETATM   13  H   UNL     1     -44.856  55.041 -51.821  1.00  0.00     0.162 HD
HETATM   14  O   UNL     1     -43.047  57.349 -50.632  1.00  0.00    -0.273 OA
BRANCH  12  15
HETATM   15  C   UNL     1     -43.096  54.535 -50.750  1.00  0.00     0.150 C 
BRANCH  15  16
HETATM   16  C   UNL     1     -41.769  54.747 -51.509  1.00  0.00     0.254 C 
BRANCH  16  17
HETATM   17  N   UNL     1     -41.281  53.451 -52.146  1.00  0.00    -0.070 N 
HETATM   18  H   UNL     1     -42.002  52.755 -51.918  1.00  0.00     0.279 HD
HETATM   19  C   UNL     1     -41.157  53.509 -53.653  1.00  0.00     0.235 C 
HETATM   20  C   UNL     1     -40.862  52.111 -54.177  1.00  0.00     0.028 C 
HETATM   21  C   UNL     1     -39.599  51.530 -53.551  1.00  0.00     0.003 C 
HETATM   22  C   UNL     1     -39.660  51.581 -52.028  1.00  0.00     0.028 C 
HETATM   23  C   UNL     1     -39.985  52.978 -51.515  1.00  0.00     0.235 C 
ENDBRANCH  16  17
ENDBRANCH  15  16
ENDBRANCH  12  15
ENDBRANCH  10  11
ENDBRANCH   5  10
BRANCH   6  24
HETATM   24  C   UNL     1     -42.843  58.963 -53.777  1.00  0.00    -0.024 A 
HETATM   25  C   UNL     1     -42.756  57.744 -54.494  1.00  0.00    -0.053 A 
HETATM   26  C   UNL     1     -43.834  57.202 -55.399  1.00  0.00     0.049 C 
HETATM   27  C   UNL     1     -41.556  57.010 -54.451  1.00  0.00     0.008 A 
HETATM   28  C   UNL     1     -40.463  57.441 -53.702  1.00  0.00     0.007 A 
HETATM   29  C   UNL     1     -40.530  58.633 -52.989  1.00  0.00    -0.061 A 
HETATM   30  C   UNL     1     -39.328  59.135 -52.240  1.00  0.00     0.048 C 
HETATM   31  C   UNL     1     -41.702  59.395 -53.052  1.00  0.00     0.017 A 
ENDBRANCH   6  24
BRANCH   9  32
HETATM   32  C   UNL     1     -44.097  61.178 -55.840  1.00  0.00     0.293 C 
HETATM   33  O   UNL     1     -45.150  61.457 -56.384  1.00  0.00    -0.259 OA
BRANCH  32  34
HETATM   34  O   UNL     1     -42.898  61.041 -56.446  1.00  0.00    -0.323 OA
HETATM   35  C   UNL     1     -42.822  61.571 -57.774  1.00  0.00     0.213 C 
ENDBRANCH  32  34
ENDBRANCH   9  32
BRANCH   1  36
HETATM   36  C   UNL     1     -43.273  63.651 -54.210  1.00  0.00     0.056 C 
HETATM   37  C   UNL     1     -44.258  64.782 -53.926  1.00  0.00     0.011 C 
ENDBRANCH   1  36
TORSDOF 9
ENDMDL
