MODEL 1
REMARK VINA RESULT:      -8.3      0.000      0.000
REMARK  5 active torsions:
REMARK  status: ('A' for Active; 'I' for Inactive)
REMARK    1  A    between atoms: C_6  and  O_7 
REMARK    2  A    between atoms: O_7  and  C_8 
REMARK    3  A    between atoms: C_8  and  C_9 
REMARK       I    between atoms: C_9  and  N_10 
REMARK    4  A    between atoms: N_10  and  N_11 
REMARK    5  A    between atoms: C_12  and  C_13 
ROOT
HETATM    1  C   UNL     1     -43.336  56.294 -55.438  1.00  0.00     0.261 C 
HETATM    2  N   UNL     1     -43.428  56.174 -54.060  1.00  0.00    -0.246 N 
HETATM    3  O   UNL     1     -42.797  55.482 -56.188  1.00  0.00    -0.269 OA
HETATM    4  H   UNL     1     -43.928  56.882 -53.527  1.00  0.00     0.192 HD
ENDROOT
BRANCH   2   5
HETATM    5  N   UNL     1     -42.841  55.111 -53.443  1.00  0.00    -0.184 NA
HETATM    6  C   UNL     1     -41.658  55.294 -52.958  1.00  0.00     0.153 C 
BRANCH   6   7
HETATM    7  C   UNL     1     -40.974  54.186 -52.314  1.00  0.00     0.018 A 
HETATM    8  C   UNL     1     -40.603  52.915 -52.876  1.00  0.00     0.004 A 
HETATM    9  C   UNL     1     -39.953  52.190 -51.877  1.00  0.00     0.043 A 
HETATM   10  C   UNL     1     -40.757  52.309 -54.141  1.00  0.00     0.014 A 
HETATM   11  C   UNL     1     -39.449  50.898 -52.080  1.00  0.00     0.030 A 
HETATM   12  N   UNL     1     -39.929  52.980 -50.755  1.00  0.00    -0.358 N 
HETATM   13  C   UNL     1     -39.616  50.326 -53.343  1.00  0.00     0.002 A 
HETATM   14  C   UNL     1     -40.262  51.018 -54.362  1.00  0.00     0.001 A 
HETATM   15  H   UNL     1     -39.511  52.700 -49.878  1.00  0.00     0.166 HD
HETATM   16  C   UNL     1     -40.537  54.188 -50.995  1.00  0.00     0.018 A 
HETATM   17  C   UNL     1     -40.626  55.226 -49.934  1.00  0.00     0.069 C 
ENDBRANCH   6   7
ENDBRANCH   2   5
BRANCH   1  18
HETATM   18  C   UNL     1     -43.892  57.609 -55.975  1.00  0.00     0.280 C 
BRANCH  18  19
HETATM   19  O   UNL     1     -43.558  57.826 -57.344  1.00  0.00    -0.341 OA
BRANCH  19  20
HETATM   20  C   UNL     1     -44.560  57.534 -58.236  1.00  0.00     0.086 A 
HETATM   21  C   UNL     1     -44.226  56.799 -59.382  1.00  0.00     0.044 A 
HETATM   22  C   UNL     1     -45.205  56.460 -60.325  1.00  0.00     0.028 A 
HETATM   23 BR   UNL     1     -42.436  56.258 -59.719  1.00  0.00    -0.048 Br
HETATM   24  C   UNL     1     -46.539  56.828 -60.121  1.00  0.00    -0.061 A 
HETATM   25  C   UNL     1     -47.594  56.498 -61.137  1.00  0.00     0.048 C 
HETATM   26  C   UNL     1     -46.875  57.552 -58.973  1.00  0.00     0.009 A 
HETATM   27  C   UNL     1     -45.897  57.894 -58.035  1.00  0.00     0.039 A 
ENDBRANCH  19  20
ENDBRANCH  18  19
ENDBRANCH   1  18
TORSDOF 5
ENDMDL
MODEL 2
REMARK VINA RESULT:      -8.2      4.821      6.044
REMARK  5 active torsions:
REMARK  status: ('A' for Active; 'I' for Inactive)
REMARK    1  A    between atoms: C_6  and  O_7 
REMARK    2  A    between atoms: O_7  and  C_8 
REMARK    3  A    between atoms: C_8  and  C_9 
REMARK       I    between atoms: C_9  and  N_10 
REMARK    4  A    between atoms: N_10  and  N_11 
REMARK    5  A    between atoms: C_12  and  C_13 
ROOT
HETATM    1  C   UNL     1     -44.054  57.340 -51.790  1.00  0.00     0.261 C 
HETATM    2  N   UNL     1     -43.488  56.808 -50.642  1.00  0.00    -0.246 N 
HETATM    3  O   UNL     1     -44.143  56.763 -52.872  1.00  0.00    -0.269 OA
HETATM    4  H   UNL     1     -43.495  57.350 -49.782  1.00  0.00     0.192 HD
ENDROOT
BRANCH   2   5
HETATM    5  N   UNL     1     -42.929  55.568 -50.688  1.00  0.00    -0.184 NA
HETATM    6  C   UNL     1     -41.654  55.506 -50.893  1.00  0.00     0.153 C 
BRANCH   6   7
HETATM    7  C   UNL     1     -41.009  54.207 -50.980  1.00  0.00     0.018 A 
HETATM    8  C   UNL     1     -40.688  53.444 -52.156  1.00  0.00     0.004 A 
HETATM    9  C   UNL     1     -40.062  52.271 -51.735  1.00  0.00     0.043 A 
HETATM   10  C   UNL     1     -40.869  53.639 -53.542  1.00  0.00     0.014 A 
HETATM   11  C   UNL     1     -39.607  51.290 -52.626  1.00  0.00     0.030 A 
HETATM   12  N   UNL     1     -40.005  52.313 -50.365  1.00  0.00    -0.358 N 
HETATM   13  C   UNL     1     -39.800  51.512 -53.992  1.00  0.00     0.002 A 
HETATM   14  C   UNL     1     -40.423  52.669 -54.448  1.00  0.00     0.001 A 
HETATM   15  H   UNL     1     -39.594  51.585 -49.796  1.00  0.00     0.166 HD
HETATM   16  C   UNL     1     -40.568  53.470 -49.887  1.00  0.00     0.018 A 
HETATM   17  C   UNL     1     -40.615  53.756 -48.429  1.00  0.00     0.069 C 
ENDBRANCH   6   7
ENDBRANCH   2   5
BRANCH   1  18
HETATM   18  C   UNL     1     -44.493  58.792 -51.637  1.00  0.00     0.280 C 
BRANCH  18  19
HETATM   19  O   UNL     1     -43.573  59.707 -52.229  1.00  0.00    -0.341 OA
BRANCH  19  20
HETATM   20  C   UNL     1     -42.280  59.602 -51.776  1.00  0.00     0.086 A 
HETATM   21  C   UNL     1     -41.295  59.203 -52.688  1.00  0.00     0.044 A 
HETATM   22  C   UNL     1     -39.957  59.088 -52.291  1.00  0.00     0.028 A 
HETATM   23 BR   UNL     1     -41.731  58.777 -54.488  1.00  0.00    -0.048 Br
HETATM   24  C   UNL     1     -39.581  59.396 -50.979  1.00  0.00    -0.061 A 
HETATM   25  C   UNL     1     -38.156  59.248 -50.530  1.00  0.00     0.048 C 
HETATM   26  C   UNL     1     -40.562  59.803 -50.071  1.00  0.00     0.009 A 
HETATM   27  C   UNL     1     -41.898  59.914 -50.467  1.00  0.00     0.039 A 
ENDBRANCH  19  20
ENDBRANCH  18  19
ENDBRANCH   1  18
TORSDOF 5
ENDMDL
MODEL 3
REMARK VINA RESULT:      -8.1      3.195      8.766
REMARK  5 active torsions:
REMARK  status: ('A' for Active; 'I' for Inactive)
REMARK    1  A    between atoms: C_6  and  O_7 
REMARK    2  A    between atoms: O_7  and  C_8 
REMARK    3  A    between atoms: C_8  and  C_9 
REMARK       I    between atoms: C_9  and  N_10 
REMARK    4  A    between atoms: N_10  and  N_11 
REMARK    5  A    between atoms: C_12  and  C_13 
ROOT
HETATM    1  C   UNL     1     -42.724  56.306 -53.753  1.00  0.00     0.261 C 
HETATM    2  N   UNL     1     -43.328  55.620 -54.796  1.00  0.00    -0.246 N 
HETATM    3  O   UNL     1     -42.403  57.492 -53.773  1.00  0.00    -0.269 OA
HETATM    4  H   UNL     1     -43.591  54.646 -54.670  1.00  0.00     0.192 HD
ENDROOT
BRANCH   2   5
HETATM    5  N   UNL     1     -43.554  56.265 -55.973  1.00  0.00    -0.184 NA
HETATM    6  C   UNL     1     -42.922  55.828 -57.013  1.00  0.00     0.153 C 
BRANCH   6   7
HETATM    7  C   UNL     1     -43.104  56.497 -58.289  1.00  0.00     0.018 A 
HETATM    8  C   UNL     1     -42.680  57.815 -58.678  1.00  0.00     0.004 A 
HETATM    9  C   UNL     1     -43.068  58.004 -60.005  1.00  0.00     0.043 A 
HETATM   10  C   UNL     1     -42.000  58.868 -58.029  1.00  0.00     0.014 A 
HETATM   11  C   UNL     1     -42.809  59.186 -60.712  1.00  0.00     0.030 A 
HETATM   12  N   UNL     1     -43.702  56.856 -60.408  1.00  0.00    -0.358 N 
HETATM   13  C   UNL     1     -42.134  60.210 -60.042  1.00  0.00     0.002 A 
HETATM   14  C   UNL     1     -41.734  60.057 -58.719  1.00  0.00     0.001 A 
HETATM   15  H   UNL     1     -44.083  56.719 -61.334  1.00  0.00     0.166 HD
HETATM   16  C   UNL     1     -43.735  55.933 -59.392  1.00  0.00     0.018 A 
HETATM   17  C   UNL     1     -44.359  54.598 -59.588  1.00  0.00     0.069 C 
ENDBRANCH   6   7
ENDBRANCH   2   5
BRANCH   1  18
HETATM   18  C   UNL     1     -42.383  55.421 -52.558  1.00  0.00     0.280 C 
BRANCH  18  19
HETATM   19  O   UNL     1     -40.986  55.162 -52.451  1.00  0.00    -0.341 OA
BRANCH  19  20
HETATM   20  C   UNL     1     -40.609  53.880 -52.771  1.00  0.00     0.086 A 
HETATM   21  C   UNL     1     -40.242  53.022 -51.725  1.00  0.00     0.044 A 
HETATM   22  C   UNL     1     -39.859  51.700 -51.986  1.00  0.00     0.028 A 
HETATM   23 BR   UNL     1     -40.221  53.619 -49.921  1.00  0.00    -0.048 Br
HETATM   24  C   UNL     1     -39.864  51.208 -53.296  1.00  0.00    -0.061 A 
HETATM   25  C   UNL     1     -39.427  49.804 -53.594  1.00  0.00     0.048 C 
HETATM   26  C   UNL     1     -40.239  52.061 -54.338  1.00  0.00     0.009 A 
HETATM   27  C   UNL     1     -40.617  53.381 -54.078  1.00  0.00     0.039 A 
ENDBRANCH  19  20
ENDBRANCH  18  19
ENDBRANCH   1  18
TORSDOF 5
ENDMDL
MODEL 4
REMARK VINA RESULT:      -8.1      1.779      2.372
REMARK  5 active torsions:
REMARK  status: ('A' for Active; 'I' for Inactive)
REMARK    1  A    between atoms: C_6  and  O_7 
REMARK    2  A    between atoms: O_7  and  C_8 
REMARK    3  A    between atoms: C_8  and  C_9 
REMARK       I    between atoms: C_9  and  N_10 
REMARK    4  A    between atoms: N_10  and  N_11 
REMARK    5  A    between atoms: C_12  and  C_13 
ROOT
HETATM    1  C   UNL     1     -43.527  56.511 -54.627  1.00  0.00     0.261 C 
HETATM    2  N   UNL     1     -42.552  55.596 -54.994  1.00  0.00    -0.246 N 
HETATM    3  O   UNL     1     -44.104  56.539 -53.541  1.00  0.00    -0.269 OA
HETATM    4  H   UNL     1     -42.104  55.678 -55.903  1.00  0.00     0.192 HD
ENDROOT
BRANCH   2   5
HETATM    5  N   UNL     1     -42.215  54.599 -54.129  1.00  0.00    -0.184 NA
HETATM    6  C   UNL     1     -41.023  54.632 -53.632  1.00  0.00     0.153 C 
BRANCH   6   7
HETATM    7  C   UNL     1     -40.601  53.579 -52.726  1.00  0.00     0.018 A 
HETATM    8  C   UNL     1     -40.267  52.214 -53.033  1.00  0.00     0.004 A 
HETATM    9  C   UNL     1     -39.906  51.592 -51.837  1.00  0.00     0.043 A 
HETATM   10  C   UNL     1     -40.236  51.445 -54.216  1.00  0.00     0.014 A 
HETATM   11  C   UNL     1     -39.514  50.249 -51.766  1.00  0.00     0.030 A 
HETATM   12  N   UNL     1     -40.016  52.533 -50.843  1.00  0.00    -0.358 N 
HETATM   13  C   UNL     1     -39.492  49.514 -52.954  1.00  0.00     0.002 A 
HETATM   14  C   UNL     1     -39.848  50.100 -54.164  1.00  0.00     0.001 A 
HETATM   15  H   UNL     1     -39.809  52.351 -49.871  1.00  0.00     0.166 HD
HETATM   16  C   UNL     1     -40.432  53.738 -51.355  1.00  0.00     0.018 A 
HETATM   17  C   UNL     1     -40.613  54.922 -50.476  1.00  0.00     0.069 C 
ENDBRANCH   6   7
ENDBRANCH   2   5
BRANCH   1  18
HETATM   18  C   UNL     1     -43.919  57.467 -55.749  1.00  0.00     0.280 C 
BRANCH  18  19
HETATM   19  O   UNL     1     -43.816  56.868 -57.039  1.00  0.00    -0.341 OA
BRANCH  19  20
HETATM   20  C   UNL     1     -43.324  57.693 -58.021  1.00  0.00     0.086 A 
HETATM   21  C   UNL     1     -43.280  57.199 -59.332  1.00  0.00     0.044 A 
HETATM   22  C   UNL     1     -42.800  57.995 -60.380  1.00  0.00     0.028 A 
HETATM   23 BR   UNL     1     -43.840  55.429 -59.739  1.00  0.00    -0.048 Br
HETATM   24  C   UNL     1     -42.382  59.308 -60.136  1.00  0.00    -0.061 A 
HETATM   25  C   UNL     1     -41.837  60.162 -61.243  1.00  0.00     0.048 C 
HETATM   26  C   UNL     1     -42.435  59.804 -58.830  1.00  0.00     0.009 A 
HETATM   27  C   UNL     1     -42.910  59.008 -57.784  1.00  0.00     0.039 A 
ENDBRANCH  19  20
ENDBRANCH  18  19
ENDBRANCH   1  18
TORSDOF 5
ENDMDL
MODEL 5
REMARK VINA RESULT:      -8.0      1.632      3.107
REMARK  5 active torsions:
REMARK  status: ('A' for Active; 'I' for Inactive)
REMARK    1  A    between atoms: C_6  and  O_7 
REMARK    2  A    between atoms: O_7  and  C_8 
REMARK    3  A    between atoms: C_8  and  C_9 
REMARK       I    between atoms: C_9  and  N_10 
REMARK    4  A    between atoms: N_10  and  N_11 
REMARK    5  A    between atoms: C_12  and  C_13 
ROOT
HETATM    1  C   UNL     1     -42.629  55.610 -56.213  1.00  0.00     0.261 C 
HETATM    2  N   UNL     1     -41.365  55.062 -56.052  1.00  0.00    -0.246 N 
HETATM    3  O   UNL     1     -43.401  55.899 -55.300  1.00  0.00    -0.269 OA
HETATM    4  H   UNL     1     -40.785  54.892 -56.869  1.00  0.00     0.192 HD
ENDROOT
BRANCH   2   5
HETATM    5  N   UNL     1     -40.927  54.757 -54.799  1.00  0.00    -0.184 NA
HETATM    6  C   UNL     1     -41.064  53.532 -54.411  1.00  0.00     0.153 C 
BRANCH   6   7
HETATM    7  C   UNL     1     -40.639  53.158 -53.074  1.00  0.00     0.018 A 
HETATM    8  C   UNL     1     -40.828  53.873 -51.841  1.00  0.00     0.004 A 
HETATM    9  C   UNL     1     -40.260  53.108 -50.822  1.00  0.00     0.043 A 
HETATM   10  C   UNL     1     -41.430  55.101 -51.491  1.00  0.00     0.014 A 
HETATM   11  C   UNL     1     -40.267  53.506 -49.478  1.00  0.00     0.030 A 
HETATM   12  N   UNL     1     -39.745  51.977 -51.404  1.00  0.00    -0.358 N 
HETATM   13  C   UNL     1     -40.872  54.726 -49.163  1.00  0.00     0.002 A 
HETATM   14  C   UNL     1     -41.445  55.516 -50.154  1.00  0.00     0.001 A 
HETATM   15  H   UNL     1     -39.277  51.243 -50.891  1.00  0.00     0.166 HD
HETATM   16  C   UNL     1     -39.962  51.984 -52.760  1.00  0.00     0.018 A 
HETATM   17  C   UNL     1     -39.508  50.857 -53.616  1.00  0.00     0.069 C 
ENDBRANCH   6   7
ENDBRANCH   2   5
BRANCH   1  18
HETATM   18  C   UNL     1     -43.053  55.746 -57.671  1.00  0.00     0.280 C 
BRANCH  18  19
HETATM   19  O   UNL     1     -43.801  56.935 -57.915  1.00  0.00    -0.341 OA
BRANCH  19  20
HETATM   20  C   UNL     1     -44.800  56.808 -58.849  1.00  0.00     0.086 A 
HETATM   21  C   UNL     1     -45.892  57.682 -58.766  1.00  0.00     0.044 A 
HETATM   22  C   UNL     1     -46.937  57.611 -59.695  1.00  0.00     0.028 A 
HETATM   23 BR   UNL     1     -46.016  58.976 -57.379  1.00  0.00    -0.048 Br
HETATM   24  C   UNL     1     -46.892  56.681 -60.740  1.00  0.00    -0.061 A 
HETATM   25  C   UNL     1     -48.019  56.573 -61.725  1.00  0.00     0.048 C 
HETATM   26  C   UNL     1     -45.798  55.816 -60.829  1.00  0.00     0.009 A 
HETATM   27  C   UNL     1     -44.757  55.885 -59.899  1.00  0.00     0.039 A 
ENDBRANCH  19  20
ENDBRANCH  18  19
ENDBRANCH   1  18
TORSDOF 5
ENDMDL
MODEL 6
REMARK VINA RESULT:      -7.9      1.743      2.107
REMARK  5 active torsions:
REMARK  status: ('A' for Active; 'I' for Inactive)
REMARK    1  A    between atoms: C_6  and  O_7 
REMARK    2  A    between atoms: O_7  and  C_8 
REMARK    3  A    between atoms: C_8  and  C_9 
REMARK       I    between atoms: C_9  and  N_10 
REMARK    4  A    between atoms: N_10  and  N_11 
REMARK    5  A    between atoms: C_12  and  C_13 
ROOT
HETATM    1  C   UNL     1     -41.809  57.354 -55.150  1.00  0.00     0.261 C 
HETATM    2  N   UNL     1     -41.174  56.176 -55.512  1.00  0.00    -0.246 N 
HETATM    3  O   UNL     1     -41.904  57.787 -54.002  1.00  0.00    -0.269 OA
HETATM    4  H   UNL     1     -41.115  55.920 -56.495  1.00  0.00     0.192 HD
ENDROOT
BRANCH   2   5
HETATM    5  N   UNL     1     -40.644  55.380 -54.543  1.00  0.00    -0.184 NA
HETATM    6  C   UNL     1     -41.341  54.353 -54.181  1.00  0.00     0.153 C 
BRANCH   6   7
HETATM    7  C   UNL     1     -40.836  53.486 -53.131  1.00  0.00     0.018 A 
HETATM    8  C   UNL     1     -40.381  52.126 -53.235  1.00  0.00     0.004 A 
HETATM    9  C   UNL     1     -39.978  51.721 -51.962  1.00  0.00     0.043 A 
HETATM   10  C   UNL     1     -40.271  51.197 -54.292  1.00  0.00     0.014 A 
HETATM   11  C   UNL     1     -39.470  50.442 -51.696  1.00  0.00     0.030 A 
HETATM   12  N   UNL     1     -40.180  52.783 -51.117  1.00  0.00    -0.358 N 
HETATM   13  C   UNL     1     -39.372  49.545 -52.763  1.00  0.00     0.002 A 
HETATM   14  C   UNL     1     -39.767  49.914 -54.045  1.00  0.00     0.001 A 
HETATM   15  H   UNL     1     -39.967  52.765 -50.129  1.00  0.00     0.166 HD
HETATM   16  C   UNL     1     -40.695  53.858 -51.799  1.00  0.00     0.018 A 
HETATM   17  C   UNL     1     -40.989  55.139 -51.103  1.00  0.00     0.069 C 
ENDBRANCH   6   7
ENDBRANCH   2   5
BRANCH   1  18
HETATM   18  C   UNL     1     -42.497  58.060 -56.314  1.00  0.00     0.280 C 
BRANCH  18  19
HETATM   19  O   UNL     1     -43.852  57.651 -56.478  1.00  0.00    -0.341 OA
BRANCH  19  20
HETATM   20  C   UNL     1     -44.122  57.003 -57.659  1.00  0.00     0.086 A 
HETATM   21  C   UNL     1     -45.266  57.387 -58.373  1.00  0.00     0.044 A 
HETATM   22  C   UNL     1     -45.589  56.773 -59.589  1.00  0.00     0.028 A 
HETATM   23 BR   UNL     1     -46.436  58.730 -57.711  1.00  0.00    -0.048 Br
HETATM   24  C   UNL     1     -44.757  55.783 -60.124  1.00  0.00    -0.061 A 
HETATM   25  C   UNL     1     -45.107  55.095 -61.411  1.00  0.00     0.048 C 
HETATM   26  C   UNL     1     -43.611  55.407 -59.417  1.00  0.00     0.009 A 
HETATM   27  C   UNL     1     -43.291  56.017 -58.201  1.00  0.00     0.039 A 
ENDBRANCH  19  20
ENDBRANCH  18  19
ENDBRANCH   1  18
TORSDOF 5
ENDMDL
MODEL 7
REMARK VINA RESULT:      -7.7      4.842      6.527
REMARK  5 active torsions:
REMARK  status: ('A' for Active; 'I' for Inactive)
REMARK    1  A    between atoms: C_6  and  O_7 
REMARK    2  A    between atoms: O_7  and  C_8 
REMARK    3  A    between atoms: C_8  and  C_9 
REMARK       I    between atoms: C_9  and  N_10 
REMARK    4  A    between atoms: N_10  and  N_11 
REMARK    5  A    between atoms: C_12  and  C_13 
ROOT
HETATM    1  C   UNL     1     -44.555  57.651 -51.954  1.00  0.00     0.261 C 
HETATM    2  N   UNL     1     -43.448  57.090 -52.573  1.00  0.00    -0.246 N 
HETATM    3  O   UNL     1     -45.115  57.202 -50.956  1.00  0.00    -0.269 OA
HETATM    4  H   UNL     1     -43.031  57.556 -53.374  1.00  0.00     0.192 HD
ENDROOT
BRANCH   2   5
HETATM    5  N   UNL     1     -42.941  55.919 -52.096  1.00  0.00    -0.184 NA
HETATM    6  C   UNL     1     -41.658  55.771 -52.148  1.00  0.00     0.153 C 
BRANCH   6   7
HETATM    7  C   UNL     1     -41.066  54.530 -51.680  1.00  0.00     0.018 A 
HETATM    8  C   UNL     1     -40.620  53.402 -52.453  1.00  0.00     0.004 A 
HETATM    9  C   UNL     1     -40.111  52.458 -51.561  1.00  0.00     0.043 A 
HETATM   10  C   UNL     1     -40.600  53.092 -53.829  1.00  0.00     0.014 A 
HETATM   11  C   UNL     1     -39.581  51.229 -51.974  1.00  0.00     0.030 A 
HETATM   12  N   UNL     1     -40.240  52.983 -50.299  1.00  0.00    -0.358 N 
HETATM   13  C   UNL     1     -39.574  50.951 -53.344  1.00  0.00     0.002 A 
HETATM   14  C   UNL     1     -40.077  51.867 -54.262  1.00  0.00     0.001 A 
HETATM   15  H   UNL     1     -39.945  52.508 -49.458  1.00  0.00     0.166 HD
HETATM   16  C   UNL     1     -40.812  54.231 -50.346  1.00  0.00     0.018 A 
HETATM   17  C   UNL     1     -41.046  55.015 -49.105  1.00  0.00     0.069 C 
ENDBRANCH   6   7
ENDBRANCH   2   5
BRANCH   1  18
HETATM   18  C   UNL     1     -45.113  58.865 -52.689  1.00  0.00     0.280 C 
BRANCH  18  19
HETATM   19  O   UNL     1     -44.365  60.051 -52.432  1.00  0.00    -0.341 OA
BRANCH  19  20
HETATM   20  C   UNL     1     -44.679  60.691 -51.258  1.00  0.00     0.086 A 
HETATM   21  C   UNL     1     -43.666  60.843 -50.301  1.00  0.00     0.044 A 
HETATM   22  C   UNL     1     -43.920  61.495 -49.089  1.00  0.00     0.028 A 
HETATM   23 BR   UNL     1     -41.921  60.149 -50.594  1.00  0.00    -0.048 Br
HETATM   24  C   UNL     1     -45.185  62.030 -48.826  1.00  0.00    -0.061 A 
HETATM   25  C   UNL     1     -45.481  62.705 -47.518  1.00  0.00     0.048 C 
HETATM   26  C   UNL     1     -46.193  61.887 -49.784  1.00  0.00     0.009 A 
HETATM   27  C   UNL     1     -45.941  61.233 -50.992  1.00  0.00     0.039 A 
ENDBRANCH  19  20
ENDBRANCH  18  19
ENDBRANCH   1  18
TORSDOF 5
ENDMDL
MODEL 8
REMARK VINA RESULT:      -7.5      6.191      8.212
REMARK  5 active torsions:
REMARK  status: ('A' for Active; 'I' for Inactive)
REMARK    1  A    between atoms: C_6  and  O_7 
REMARK    2  A    between atoms: O_7  and  C_8 
REMARK    3  A    between atoms: C_8  and  C_9 
REMARK       I    between atoms: C_9  and  N_10 
REMARK    4  A    between atoms: N_10  and  N_11 
REMARK    5  A    between atoms: C_12  and  C_13 
ROOT
HETATM    1  C   UNL     1     -44.677  58.778 -50.772  1.00  0.00     0.261 C 
HETATM    2  N   UNL     1     -43.345  58.470 -51.004  1.00  0.00    -0.246 N 
HETATM    3  O   UNL     1     -45.580  57.958 -50.618  1.00  0.00    -0.269 OA
HETATM    4  H   UNL     1     -42.663  59.220 -51.081  1.00  0.00     0.192 HD
ENDROOT
BRANCH   2   5
HETATM    5  N   UNL     1     -42.975  57.165 -51.129  1.00  0.00    -0.184 NA
HETATM    6  C   UNL     1     -41.719  56.927 -51.320  1.00  0.00     0.153 C 
BRANCH   6   7
HETATM    7  C   UNL     1     -41.273  55.555 -51.488  1.00  0.00     0.018 A 
HETATM    8  C   UNL     1     -40.972  54.855 -52.707  1.00  0.00     0.004 A 
HETATM    9  C   UNL     1     -40.568  53.565 -52.360  1.00  0.00     0.043 A 
HETATM   10  C   UNL     1     -41.002  55.194 -54.077  1.00  0.00     0.014 A 
HETATM   11  C   UNL     1     -40.192  52.604 -53.309  1.00  0.00     0.030 A 
HETATM   12  N   UNL     1     -40.623  53.479 -50.992  1.00  0.00    -0.358 N 
HETATM   13  C   UNL     1     -40.232  52.970 -54.657  1.00  0.00     0.002 A 
HETATM   14  C   UNL     1     -40.631  54.247 -55.039  1.00  0.00     0.001 A 
HETATM   15  H   UNL     1     -40.377  52.649 -50.469  1.00  0.00     0.166 HD
HETATM   16  C   UNL     1     -41.044  54.666 -50.444  1.00  0.00     0.018 A 
HETATM   17  C   UNL     1     -41.171  54.830 -48.972  1.00  0.00     0.069 C 
ENDBRANCH   6   7
ENDBRANCH   2   5
BRANCH   1  18
HETATM   18  C   UNL     1     -44.974  60.273 -50.819  1.00  0.00     0.280 C 
BRANCH  18  19
HETATM   19  O   UNL     1     -46.114  60.629 -50.040  1.00  0.00    -0.341 OA
BRANCH  19  20
HETATM   20  C   UNL     1     -45.836  61.346 -48.902  1.00  0.00     0.086 A 
HETATM   21  C   UNL     1     -46.139  62.714 -48.897  1.00  0.00     0.044 A 
HETATM   22  C   UNL     1     -45.890  63.498 -47.764  1.00  0.00     0.028 A 
HETATM   23 BR   UNL     1     -46.872  63.567 -50.429  1.00  0.00    -0.048 Br
HETATM   24  C   UNL     1     -45.358  62.918 -46.607  1.00  0.00    -0.061 A 
HETATM   25  C   UNL     1     -45.057  63.751 -45.395  1.00  0.00     0.048 C 
HETATM   26  C   UNL     1     -45.064  61.551 -46.608  1.00  0.00     0.009 A 
HETATM   27  C   UNL     1     -45.309  60.770 -47.741  1.00  0.00     0.039 A 
ENDBRANCH  19  20
ENDBRANCH  18  19
ENDBRANCH   1  18
TORSDOF 5
ENDMDL
MODEL 9
REMARK VINA RESULT:      -7.4      6.419      8.833
REMARK  5 active torsions:
REMARK  status: ('A' for Active; 'I' for Inactive)
REMARK    1  A    between atoms: C_6  and  O_7 
REMARK    2  A    between atoms: O_7  and  C_8 
REMARK    3  A    between atoms: C_8  and  C_9 
REMARK       I    between atoms: C_9  and  N_10 
REMARK    4  A    between atoms: N_10  and  N_11 
REMARK    5  A    between atoms: C_12  and  C_13 
ROOT
HETATM    1  C   UNL     1     -44.983  58.583 -50.901  1.00  0.00     0.261 C 
HETATM    2  N   UNL     1     -43.791  58.647 -51.607  1.00  0.00    -0.246 N 
HETATM    3  O   UNL     1     -45.707  57.593 -50.818  1.00  0.00    -0.269 OA
HETATM    4  H   UNL     1     -43.241  59.503 -51.585  1.00  0.00     0.192 HD
ENDROOT
BRANCH   2   5
HETATM    5  N   UNL     1     -43.380  57.563 -52.321  1.00  0.00    -0.184 NA
HETATM    6  C   UNL     1     -42.422  57.747 -53.168  1.00  0.00     0.153 C 
BRANCH   6   7
HETATM    7  C   UNL     1     -41.963  56.631 -53.977  1.00  0.00     0.018 A 
HETATM    8  C   UNL     1     -41.402  55.381 -53.541  1.00  0.00     0.004 A 
HETATM    9  C   UNL     1     -41.129  54.625 -54.682  1.00  0.00     0.043 A 
HETATM   10  C   UNL     1     -41.101  54.816 -52.283  1.00  0.00     0.014 A 
HETATM   11  C   UNL     1     -40.576  53.338 -54.627  1.00  0.00     0.030 A 
HETATM   12  N   UNL     1     -41.504  55.379 -55.765  1.00  0.00    -0.358 N 
HETATM   13  C   UNL     1     -40.290  52.806 -53.367  1.00  0.00     0.002 A 
HETATM   14  C   UNL     1     -40.546  53.532 -52.209  1.00  0.00     0.001 A 
HETATM   15  H   UNL     1     -41.419  55.069 -56.724  1.00  0.00     0.166 HD
HETATM   16  C   UNL     1     -42.010  56.591 -55.365  1.00  0.00     0.018 A 
HETATM   17  C   UNL     1     -42.498  57.584 -56.358  1.00  0.00     0.069 C 
ENDBRANCH   6   7
ENDBRANCH   2   5
BRANCH   1  18
HETATM   18  C   UNL     1     -45.400  59.914 -50.286  1.00  0.00     0.280 C 
BRANCH  18  19
HETATM   19  O   UNL     1     -45.841  59.780 -48.937  1.00  0.00    -0.341 OA
BRANCH  19  20
HETATM   20  C   UNL     1     -45.626  60.882 -48.146  1.00  0.00     0.086 A 
HETATM   21  C   UNL     1     -45.958  60.790 -46.787  1.00  0.00     0.044 A 
HETATM   22  C   UNL     1     -45.752  61.875 -45.926  1.00  0.00     0.028 A 
HETATM   23 BR   UNL     1     -46.722  59.208 -46.064  1.00  0.00    -0.048 Br
HETATM   24  C   UNL     1     -45.186  63.061 -46.406  1.00  0.00    -0.061 A 
HETATM   25  C   UNL     1     -44.987  64.242 -45.502  1.00  0.00     0.048 C 
HETATM   26  C   UNL     1     -44.846  63.149 -47.759  1.00  0.00     0.009 A 
HETATM   27  C   UNL     1     -45.055  62.068 -48.620  1.00  0.00     0.039 A 
ENDBRANCH  19  20
ENDBRANCH  18  19
ENDBRANCH   1  18
TORSDOF 5
ENDMDL
MODEL 10
REMARK VINA RESULT:      -7.2      6.384      9.803
REMARK  5 active torsions:
REMARK  status: ('A' for Active; 'I' for Inactive)
REMARK    1  A    between atoms: C_6  and  O_7 
REMARK    2  A    between atoms: O_7  and  C_8 
REMARK    3  A    between atoms: C_8  and  C_9 
REMARK       I    between atoms: C_9  and  N_10 
REMARK    4  A    between atoms: N_10  and  N_11 
REMARK    5  A    between atoms: C_12  and  C_13 
ROOT
HETATM    1  C   UNL     1     -41.550  58.824 -52.108  1.00  0.00     0.261 C 
HETATM    2  N   UNL     1     -42.328  58.849 -50.960  1.00  0.00    -0.246 N 
HETATM    3  O   UNL     1     -40.976  59.793 -52.600  1.00  0.00    -0.269 OA
HETATM    4  H   UNL     1     -42.733  57.985 -50.610  1.00  0.00     0.192 HD
ENDROOT
BRANCH   2   5
HETATM    5  N   UNL     1     -42.539  60.035 -50.326  1.00  0.00    -0.184 NA
HETATM    6  C   UNL     1     -43.740  60.511 -50.355  1.00  0.00     0.153 C 
BRANCH   6   7
HETATM    7  C   UNL     1     -44.016  61.787 -49.718  1.00  0.00     0.018 A 
HETATM    8  C   UNL     1     -44.499  62.038 -48.387  1.00  0.00     0.004 A 
HETATM    9  C   UNL     1     -44.592  63.421 -48.229  1.00  0.00     0.043 A 
HETATM   10  C   UNL     1     -44.867  61.220 -47.297  1.00  0.00     0.014 A 
HETATM   11  C   UNL     1     -45.028  64.023 -47.042  1.00  0.00     0.030 A 
HETATM   12  N   UNL     1     -44.187  63.990 -49.410  1.00  0.00    -0.358 N 
HETATM   13  C   UNL     1     -45.384  63.187 -45.980  1.00  0.00     0.002 A 
HETATM   14  C   UNL     1     -45.306  61.804 -46.103  1.00  0.00     0.001 A 
HETATM   15  H   UNL     1     -44.151  64.988 -49.571  1.00  0.00     0.166 HD
HETATM   16  C   UNL     1     -43.834  63.026 -50.322  1.00  0.00     0.018 A 
HETATM   17  C   UNL     1     -43.346  63.393 -51.677  1.00  0.00     0.069 C 
ENDBRANCH   6   7
ENDBRANCH   2   5
BRANCH   1  18
HETATM   18  C   UNL     1     -41.534  57.467 -52.803  1.00  0.00     0.280 C 
BRANCH  18  19
HETATM   19  O   UNL     1     -41.520  56.379 -51.881  1.00  0.00    -0.341 OA
BRANCH  19  20
HETATM   20  C   UNL     1     -41.129  55.175 -52.413  1.00  0.00     0.086 A 
HETATM   21  C   UNL     1     -40.694  54.177 -51.531  1.00  0.00     0.044 A 
HETATM   22  C   UNL     1     -40.293  52.924 -52.011  1.00  0.00     0.028 A 
HETATM   23 BR   UNL     1     -40.602  54.488 -49.659  1.00  0.00    -0.048 Br
HETATM   24  C   UNL     1     -40.348  52.640 -53.380  1.00  0.00    -0.061 A 
HETATM   25  C   UNL     1     -39.893  51.313 -53.912  1.00  0.00     0.048 C 
HETATM   26  C   UNL     1     -40.792  53.632 -54.259  1.00  0.00     0.009 A 
HETATM   27  C   UNL     1     -41.188  54.884 -53.781  1.00  0.00     0.039 A 
ENDBRANCH  19  20
ENDBRANCH  18  19
ENDBRANCH   1  18
TORSDOF 5
ENDMDL
