MODEL 1
REMARK VINA RESULT:      -8.7      0.000      0.000
REMARK  2 active torsions:
REMARK  status: ('A' for Active; 'I' for Inactive)
REMARK    1  A    between atoms: C_4  and  C_5 
REMARK    2  A    between atoms: C_11  and  C_12 
ROOT
HETATM    1  C   UNL     1     -42.614  54.480 -53.860  1.00  0.00     0.098 A 
HETATM    2  N   UNL     1     -42.652  53.908 -55.081  1.00  0.00    -0.172 NA
HETATM    3  N   UNL     1     -43.398  54.735 -55.829  1.00  0.00    -0.261 N 
HETATM    4  H   UNL     1     -43.552  54.497 -56.803  1.00  0.00     0.191 HD
HETATM    5  C   UNL     1     -43.835  55.817 -55.139  1.00  0.00     0.133 A 
HETATM    6  C   UNL     1     -43.369  55.691 -53.856  1.00  0.00     0.028 A 
HETATM    7  C   UNL     1     -43.642  56.741 -52.838  1.00  0.00     0.067 C 
HETATM    8  C   UNL     1     -44.772  57.684 -53.291  1.00  0.00     0.117 C 
HETATM    9  C   UNL     1     -44.902  57.902 -54.796  1.00  0.00     0.224 C 
HETATM   10  O   UNL     1     -45.418  58.919 -55.258  1.00  0.00    -0.273 OA
HETATM   11  N   UNL     1     -44.549  56.871 -55.635  1.00  0.00    -0.312 N 
HETATM   12  H   UNL     1     -44.741  56.989 -56.622  1.00  0.00     0.170 HD
ENDROOT
BRANCH   7  13
HETATM   13  C   UNL     1     -42.342  57.480 -52.552  1.00  0.00    -0.046 A 
HETATM   14  C   UNL     1     -42.137  57.977 -51.249  1.00  0.00     0.047 A 
HETATM   15  C   UNL     1     -40.982  58.683 -50.983  1.00  0.00     0.105 A 
HETATM   16  C   UNL     1     -40.033  58.908 -51.950  1.00  0.00     0.105 A 
HETATM   17  O   UNL     1     -40.647  59.232 -49.786  1.00  0.00    -0.323 OA
HETATM   18  O   UNL     1     -38.976  59.624 -51.481  1.00  0.00    -0.323 OA
HETATM   19  C   UNL     1     -40.191  58.449 -53.237  1.00  0.00     0.040 A 
HETATM   20  C   UNL     1     -39.377  59.833 -50.111  1.00  0.00     0.352 A 
HETATM   21  C   UNL     1     -41.361  57.741 -53.541  1.00  0.00     0.011 A 
ENDBRANCH   7  13
BRANCH   1  22
HETATM   22  C   UNL     1     -41.821  53.879 -52.787  1.00  0.00    -0.005 A 
HETATM   23  C   UNL     1     -40.705  53.092 -53.108  1.00  0.00     0.014 A 
HETATM   24  C   UNL     1     -39.916  52.526 -52.105  1.00  0.00     0.001 A 
HETATM   25  C   UNL     1     -40.238  52.737 -50.767  1.00  0.00     0.000 A 
HETATM   26  C   UNL     1     -41.352  53.506 -50.433  1.00  0.00     0.001 A 
HETATM   27  C   UNL     1     -42.144  54.069 -51.438  1.00  0.00     0.014 A 
ENDBRANCH   1  22
TORSDOF 2
ENDMDL
MODEL 2
REMARK VINA RESULT:      -8.2      2.507      3.690
REMARK  2 active torsions:
REMARK  status: ('A' for Active; 'I' for Inactive)
REMARK    1  A    between atoms: C_4  and  C_5 
REMARK    2  A    between atoms: C_11  and  C_12 
ROOT
HETATM    1  C   UNL     1     -40.820  53.433 -54.425  1.00  0.00     0.098 A 
HETATM    2  N   UNL     1     -40.153  53.902 -55.501  1.00  0.00    -0.172 NA
HETATM    3  N   UNL     1     -40.810  55.016 -55.858  1.00  0.00    -0.261 N 
HETATM    4  H   UNL     1     -40.468  55.543 -56.654  1.00  0.00     0.191 HD
HETATM    5  C   UNL     1     -41.867  55.284 -55.052  1.00  0.00     0.133 A 
HETATM    6  C   UNL     1     -41.926  54.281 -54.119  1.00  0.00     0.028 A 
HETATM    7  C   UNL     1     -42.961  54.294 -53.051  1.00  0.00     0.067 C 
HETATM    8  C   UNL     1     -44.098  55.279 -53.378  1.00  0.00     0.117 C 
HETATM    9  C   UNL     1     -43.708  56.505 -54.201  1.00  0.00     0.224 C 
HETATM   10  O   UNL     1     -44.359  57.548 -54.151  1.00  0.00    -0.273 OA
HETATM   11  N   UNL     1     -42.683  56.378 -55.109  1.00  0.00    -0.312 N 
HETATM   12  H   UNL     1     -42.507  57.165 -55.723  1.00  0.00     0.170 HD
ENDROOT
BRANCH   7  13
HETATM   13  C   UNL     1     -42.278  54.608 -51.727  1.00  0.00    -0.046 A 
HETATM   14  C   UNL     1     -42.006  53.536 -50.853  1.00  0.00     0.047 A 
HETATM   15  C   UNL     1     -41.423  53.807 -49.632  1.00  0.00     0.105 A 
HETATM   16  C   UNL     1     -41.100  55.086 -49.253  1.00  0.00     0.105 A 
HETATM   17  O   UNL     1     -41.111  52.887 -48.681  1.00  0.00    -0.323 OA
HETATM   18  O   UNL     1     -40.538  55.134 -48.016  1.00  0.00    -0.323 OA
HETATM   19  C   UNL     1     -41.351  56.165 -50.068  1.00  0.00     0.040 A 
HETATM   20  C   UNL     1     -40.557  53.736 -47.657  1.00  0.00     0.352 A 
HETATM   21  C   UNL     1     -41.956  55.923 -51.309  1.00  0.00     0.011 A 
ENDBRANCH   7  13
BRANCH   1  22
HETATM   22  C   UNL     1     -40.340  52.247 -53.717  1.00  0.00    -0.005 A 
HETATM   23  C   UNL     1     -39.764  52.386 -52.444  1.00  0.00     0.014 A 
HETATM   24  C   UNL     1     -39.318  51.269 -51.735  1.00  0.00     0.001 A 
HETATM   25  C   UNL     1     -39.438  49.999 -52.293  1.00  0.00     0.000 A 
HETATM   26  C   UNL     1     -39.994  49.847 -53.562  1.00  0.00     0.001 A 
HETATM   27  C   UNL     1     -40.437  50.966 -54.274  1.00  0.00     0.014 A 
ENDBRANCH   1  22
TORSDOF 2
ENDMDL
MODEL 3
REMARK VINA RESULT:      -8.1      2.577      4.965
REMARK  2 active torsions:
REMARK  status: ('A' for Active; 'I' for Inactive)
REMARK    1  A    between atoms: C_4  and  C_5 
REMARK    2  A    between atoms: C_11  and  C_12 
ROOT
HETATM    1  C   UNL     1     -41.232  55.101 -51.394  1.00  0.00     0.098 A 
HETATM    2  N   UNL     1     -41.577  54.757 -50.136  1.00  0.00    -0.172 NA
HETATM    3  N   UNL     1     -41.633  55.916 -49.462  1.00  0.00    -0.261 N 
HETATM    4  H   UNL     1     -41.887  55.890 -48.481  1.00  0.00     0.191 HD
HETATM    5  C   UNL     1     -41.346  56.990 -50.238  1.00  0.00     0.133 A 
HETATM    6  C   UNL     1     -41.064  56.515 -51.493  1.00  0.00     0.028 A 
HETATM    7  C   UNL     1     -40.741  57.448 -52.606  1.00  0.00     0.067 C 
HETATM    8  C   UNL     1     -40.391  58.852 -52.082  1.00  0.00     0.117 C 
HETATM    9  C   UNL     1     -41.081  59.277 -50.788  1.00  0.00     0.224 C 
HETATM   10  O   UNL     1     -41.256  60.463 -50.509  1.00  0.00    -0.273 OA
HETATM   11  N   UNL     1     -41.391  58.304 -49.867  1.00  0.00    -0.312 N 
HETATM   12  H   UNL     1     -41.749  58.610 -48.970  1.00  0.00     0.170 HD
ENDROOT
BRANCH   7  13
HETATM   13  C   UNL     1     -41.914  57.460 -53.576  1.00  0.00    -0.046 A 
HETATM   14  C   UNL     1     -41.633  57.404 -54.956  1.00  0.00     0.047 A 
HETATM   15  C   UNL     1     -42.682  57.453 -55.849  1.00  0.00     0.105 A 
HETATM   16  C   UNL     1     -43.986  57.552 -55.430  1.00  0.00     0.105 A 
HETATM   17  O   UNL     1     -42.572  57.421 -57.204  1.00  0.00    -0.323 OA
HETATM   18  O   UNL     1     -44.864  57.589 -56.467  1.00  0.00    -0.323 OA
HETATM   19  C   UNL     1     -44.311  57.617 -54.094  1.00  0.00     0.040 A 
HETATM   20  C   UNL     1     -43.959  57.514 -57.589  1.00  0.00     0.352 A 
HETATM   21  C   UNL     1     -43.265  57.583 -53.163  1.00  0.00     0.011 A 
ENDBRANCH   7  13
BRANCH   1  22
HETATM   22  C   UNL     1     -41.141  54.083 -52.441  1.00  0.00    -0.005 A 
HETATM   23  C   UNL     1     -40.179  53.066 -52.335  1.00  0.00     0.014 A 
HETATM   24  C   UNL     1     -40.083  52.068 -53.306  1.00  0.00     0.001 A 
HETATM   25  C   UNL     1     -40.948  52.077 -54.398  1.00  0.00     0.000 A 
HETATM   26  C   UNL     1     -41.899  53.089 -54.523  1.00  0.00     0.001 A 
HETATM   27  C   UNL     1     -41.991  54.091 -53.552  1.00  0.00     0.014 A 
ENDBRANCH   1  22
TORSDOF 2
ENDMDL
MODEL 4
REMARK VINA RESULT:      -8.1     16.037     17.964
REMARK  2 active torsions:
REMARK  status: ('A' for Active; 'I' for Inactive)
REMARK    1  A    between atoms: C_4  and  C_5 
REMARK    2  A    between atoms: C_11  and  C_12 
ROOT
HETATM    1  C   UNL     1     -36.613  41.291 -53.903  1.00  0.00     0.098 A 
HETATM    2  N   UNL     1     -37.926  41.030 -53.732  1.00  0.00    -0.172 NA
HETATM    3  N   UNL     1     -38.475  41.200 -54.944  1.00  0.00    -0.261 N 
HETATM    4  H   UNL     1     -39.471  41.044 -55.049  1.00  0.00     0.191 HD
HETATM    5  C   UNL     1     -37.566  41.552 -55.887  1.00  0.00     0.133 A 
HETATM    6  C   UNL     1     -36.350  41.640 -55.261  1.00  0.00     0.028 A 
HETATM    7  C   UNL     1     -35.120  41.975 -56.028  1.00  0.00     0.067 C 
HETATM    8  C   UNL     1     -35.459  42.563 -57.410  1.00  0.00     0.117 C 
HETATM    9  C   UNL     1     -36.754  42.070 -58.050  1.00  0.00     0.224 C 
HETATM   10  O   UNL     1     -36.918  42.088 -59.270  1.00  0.00    -0.273 OA
HETATM   11  N   UNL     1     -37.797  41.724 -57.223  1.00  0.00    -0.312 N 
HETATM   12  H   UNL     1     -38.683  41.502 -57.661  1.00  0.00     0.170 HD
ENDROOT
BRANCH   7  13
HETATM   13  C   UNL     1     -34.258  40.723 -56.120  1.00  0.00    -0.046 A 
HETATM   14  C   UNL     1     -32.993  40.744 -55.499  1.00  0.00     0.047 A 
HETATM   15  C   UNL     1     -32.184  39.632 -55.606  1.00  0.00     0.105 A 
HETATM   16  C   UNL     1     -32.579  38.513 -56.296  1.00  0.00     0.105 A 
HETATM   17  O   UNL     1     -30.939  39.503 -55.074  1.00  0.00    -0.323 OA
HETATM   18  O   UNL     1     -31.635  37.534 -56.281  1.00  0.00    -0.323 OA
HETATM   19  C   UNL     1     -33.802  38.447 -56.924  1.00  0.00     0.040 A 
HETATM   20  C   UNL     1     -30.595  38.174 -55.513  1.00  0.00     0.352 A 
HETATM   21  C   UNL     1     -34.640  39.566 -56.845  1.00  0.00     0.011 A 
ENDBRANCH   7  13
BRANCH   1  22
HETATM   22  C   UNL     1     -35.678  41.138 -52.788  1.00  0.00    -0.005 A 
HETATM   23  C   UNL     1     -35.236  39.856 -52.426  1.00  0.00     0.014 A 
HETATM   24  C   UNL     1     -34.326  39.681 -51.382  1.00  0.00     0.001 A 
HETATM   25  C   UNL     1     -33.850  40.789 -50.684  1.00  0.00     0.000 A 
HETATM   26  C   UNL     1     -34.292  42.067 -51.023  1.00  0.00     0.001 A 
HETATM   27  C   UNL     1     -35.207  42.241 -52.066  1.00  0.00     0.014 A 
ENDBRANCH   1  22
TORSDOF 2
ENDMDL
MODEL 5
REMARK VINA RESULT:      -8.1      2.626      4.442
REMARK  2 active torsions:
REMARK  status: ('A' for Active; 'I' for Inactive)
REMARK    1  A    between atoms: C_4  and  C_5 
REMARK    2  A    between atoms: C_11  and  C_12 
ROOT
HETATM    1  C   UNL     1     -42.812  54.573 -51.668  1.00  0.00     0.098 A 
HETATM    2  N   UNL     1     -43.797  54.018 -50.931  1.00  0.00    -0.172 NA
HETATM    3  N   UNL     1     -44.516  55.055 -50.476  1.00  0.00    -0.261 N 
HETATM    4  H   UNL     1     -45.325  54.862 -49.895  1.00  0.00     0.191 HD
HETATM    5  C   UNL     1     -44.037  56.252 -50.896  1.00  0.00     0.133 A 
HETATM    6  C   UNL     1     -42.926  55.995 -51.657  1.00  0.00     0.028 A 
HETATM    7  C   UNL     1     -42.175  57.102 -52.308  1.00  0.00     0.067 C 
HETATM    8  C   UNL     1     -42.551  58.468 -51.706  1.00  0.00     0.117 C 
HETATM    9  C   UNL     1     -43.978  58.601 -51.180  1.00  0.00     0.224 C 
HETATM   10  O   UNL     1     -44.538  59.694 -51.102  1.00  0.00    -0.273 OA
HETATM   11  N   UNL     1     -44.588  57.481 -50.666  1.00  0.00    -0.312 N 
HETATM   12  H   UNL     1     -45.490  57.605 -50.223  1.00  0.00     0.170 HD
ENDROOT
BRANCH   7  13
HETATM   13  C   UNL     1     -42.427  57.034 -53.808  1.00  0.00    -0.046 A 
HETATM   14  C   UNL     1     -43.615  57.605 -54.306  1.00  0.00     0.047 A 
HETATM   15  C   UNL     1     -43.877  57.517 -55.657  1.00  0.00     0.105 A 
HETATM   16  C   UNL     1     -43.013  56.894 -56.523  1.00  0.00     0.105 A 
HETATM   17  O   UNL     1     -44.980  58.006 -56.284  1.00  0.00    -0.323 OA
HETATM   18  O   UNL     1     -43.459  56.916 -57.807  1.00  0.00    -0.323 OA
HETATM   19  C   UNL     1     -41.844  56.316 -56.084  1.00  0.00     0.040 A 
HETATM   20  C   UNL     1     -44.711  57.615 -57.646  1.00  0.00     0.352 A 
HETATM   21  C   UNL     1     -41.557  56.377 -54.714  1.00  0.00     0.011 A 
ENDBRANCH   7  13
BRANCH   1  22
HETATM   22  C   UNL     1     -41.859  53.725 -52.385  1.00  0.00    -0.005 A 
HETATM   23  C   UNL     1     -42.103  53.391 -53.727  1.00  0.00     0.014 A 
HETATM   24  C   UNL     1     -41.200  52.604 -54.443  1.00  0.00     0.001 A 
HETATM   25  C   UNL     1     -40.043  52.137 -53.825  1.00  0.00     0.000 A 
HETATM   26  C   UNL     1     -39.795  52.450 -52.489  1.00  0.00     0.001 A 
HETATM   27  C   UNL     1     -40.702  53.235 -51.770  1.00  0.00     0.014 A 
ENDBRANCH   1  22
TORSDOF 2
ENDMDL
MODEL 6
REMARK VINA RESULT:      -7.8      2.847      4.731
REMARK  2 active torsions:
REMARK  status: ('A' for Active; 'I' for Inactive)
REMARK    1  A    between atoms: C_4  and  C_5 
REMARK    2  A    between atoms: C_11  and  C_12 
ROOT
HETATM    1  C   UNL     1     -43.078  55.209 -51.928  1.00  0.00     0.098 A 
HETATM    2  N   UNL     1     -43.870  54.594 -51.026  1.00  0.00    -0.172 NA
HETATM    3  N   UNL     1     -44.544  55.585 -50.422  1.00  0.00    -0.261 N 
HETATM    4  H   UNL     1     -45.214  55.342 -49.701  1.00  0.00     0.191 HD
HETATM    5  C   UNL     1     -44.221  56.810 -50.906  1.00  0.00     0.133 A 
HETATM    6  C   UNL     1     -43.265  56.622 -51.871  1.00  0.00     0.028 A 
HETATM    7  C   UNL     1     -42.716  57.775 -52.633  1.00  0.00     0.067 C 
HETATM    8  C   UNL     1     -43.043  59.114 -51.946  1.00  0.00     0.117 C 
HETATM    9  C   UNL     1     -44.347  59.161 -51.154  1.00  0.00     0.224 C 
HETATM   10  O   UNL     1     -44.940  60.220 -50.950  1.00  0.00    -0.273 OA
HETATM   11  N   UNL     1     -44.784  58.004 -50.552  1.00  0.00    -0.312 N 
HETATM   12  H   UNL     1     -45.589  58.073 -49.942  1.00  0.00     0.170 HD
ENDROOT
BRANCH   7  13
HETATM   13  C   UNL     1     -43.247  57.703 -54.058  1.00  0.00    -0.046 A 
HETATM   14  C   UNL     1     -42.315  57.744 -55.115  1.00  0.00     0.047 A 
HETATM   15  C   UNL     1     -42.782  57.719 -56.412  1.00  0.00     0.105 A 
HETATM   16  C   UNL     1     -44.124  57.653 -56.697  1.00  0.00     0.105 A 
HETATM   17  O   UNL     1     -42.013  57.763 -57.532  1.00  0.00    -0.323 OA
HETATM   18  O   UNL     1     -44.370  57.640 -58.035  1.00  0.00    -0.323 OA
HETATM   19  C   UNL     1     -45.072  57.617 -55.701  1.00  0.00     0.040 A 
HETATM   20  C   UNL     1     -43.027  57.720 -58.557  1.00  0.00     0.352 A 
HETATM   21  C   UNL     1     -44.629  57.656 -54.373  1.00  0.00     0.011 A 
ENDBRANCH   7  13
BRANCH   1  22
HETATM   22  C   UNL     1     -42.236  54.423 -52.830  1.00  0.00    -0.005 A 
HETATM   23  C   UNL     1     -41.062  53.829 -52.341  1.00  0.00     0.014 A 
HETATM   24  C   UNL     1     -40.252  53.054 -53.172  1.00  0.00     0.001 A 
HETATM   25  C   UNL     1     -40.605  52.867 -54.507  1.00  0.00     0.000 A 
HETATM   26  C   UNL     1     -41.761  53.462 -55.010  1.00  0.00     0.001 A 
HETATM   27  C   UNL     1     -42.569  54.242 -54.178  1.00  0.00     0.014 A 
ENDBRANCH   1  22
TORSDOF 2
ENDMDL
MODEL 7
REMARK VINA RESULT:      -7.7     16.719     19.088
REMARK  2 active torsions:
REMARK  status: ('A' for Active; 'I' for Inactive)
REMARK    1  A    between atoms: C_4  and  C_5 
REMARK    2  A    between atoms: C_11  and  C_12 
ROOT
HETATM    1  C   UNL     1     -35.437  41.817 -53.534  1.00  0.00     0.098 A 
HETATM    2  N   UNL     1     -35.333  42.975 -52.849  1.00  0.00    -0.172 NA
HETATM    3  N   UNL     1     -34.701  42.649 -51.711  1.00  0.00    -0.261 N 
HETATM    4  H   UNL     1     -34.509  43.384 -51.040  1.00  0.00     0.191 HD
HETATM    5  C   UNL     1     -34.390  41.331 -51.642  1.00  0.00     0.133 A 
HETATM    6  C   UNL     1     -34.858  40.746 -52.790  1.00  0.00     0.028 A 
HETATM    7  C   UNL     1     -34.646  39.297 -53.048  1.00  0.00     0.067 C 
HETATM    8  C   UNL     1     -34.236  38.549 -51.766  1.00  0.00     0.117 C 
HETATM    9  C   UNL     1     -33.442  39.357 -50.743  1.00  0.00     0.224 C 
HETATM   10  O   UNL     1     -32.690  38.813 -49.934  1.00  0.00    -0.273 OA
HETATM   11  N   UNL     1     -33.684  40.708 -50.651  1.00  0.00    -0.312 N 
HETATM   12  H   UNL     1     -33.232  41.211 -49.898  1.00  0.00     0.170 HD
ENDROOT
BRANCH   7  13
HETATM   13  C   UNL     1     -33.618  39.156 -54.163  1.00  0.00    -0.046 A 
HETATM   14  C   UNL     1     -33.999  38.463 -55.330  1.00  0.00     0.047 A 
HETATM   15  C   UNL     1     -33.068  38.292 -56.333  1.00  0.00     0.105 A 
HETATM   16  C   UNL     1     -31.789  38.780 -56.224  1.00  0.00     0.105 A 
HETATM   17  O   UNL     1     -33.278  37.641 -57.507  1.00  0.00    -0.323 OA
HETATM   18  O   UNL     1     -31.033  38.502 -57.320  1.00  0.00    -0.323 OA
HETATM   19  C   UNL     1     -31.368  39.457 -55.102  1.00  0.00     0.040 A 
HETATM   20  C   UNL     1     -31.982  37.772 -58.124  1.00  0.00     0.352 A 
HETATM   21  C   UNL     1     -32.288  39.634 -54.060  1.00  0.00     0.011 A 
ENDBRANCH   7  13
BRANCH   1  22
HETATM   22  C   UNL     1     -36.022  41.802 -54.875  1.00  0.00    -0.005 A 
HETATM   23  C   UNL     1     -35.224  42.128 -55.983  1.00  0.00     0.014 A 
HETATM   24  C   UNL     1     -35.749  42.100 -57.276  1.00  0.00     0.001 A 
HETATM   25  C   UNL     1     -37.082  41.749 -57.476  1.00  0.00     0.000 A 
HETATM   26  C   UNL     1     -37.890  41.436 -56.384  1.00  0.00     0.001 A 
HETATM   27  C   UNL     1     -37.365  41.469 -55.089  1.00  0.00     0.014 A 
ENDBRANCH   1  22
TORSDOF 2
ENDMDL
MODEL 8
REMARK VINA RESULT:      -7.4      1.683      2.201
REMARK  2 active torsions:
REMARK  status: ('A' for Active; 'I' for Inactive)
REMARK    1  A    between atoms: C_4  and  C_5 
REMARK    2  A    between atoms: C_11  and  C_12 
ROOT
HETATM    1  C   UNL     1     -42.467  55.099 -54.760  1.00  0.00     0.098 A 
HETATM    2  N   UNL     1     -41.782  54.661 -55.837  1.00  0.00    -0.172 NA
HETATM    3  N   UNL     1     -42.253  55.382 -56.866  1.00  0.00    -0.261 N 
HETATM    4  H   UNL     1     -41.864  55.218 -57.787  1.00  0.00     0.191 HD
HETATM    5  C   UNL     1     -43.207  56.270 -56.491  1.00  0.00     0.133 A 
HETATM    6  C   UNL     1     -43.393  56.115 -55.142  1.00  0.00     0.028 A 
HETATM    7  C   UNL     1     -44.357  56.973 -54.402  1.00  0.00     0.067 C 
HETATM    8  C   UNL     1     -45.321  57.695 -55.360  1.00  0.00     0.117 C 
HETATM    9  C   UNL     1     -44.766  58.034 -56.742  1.00  0.00     0.224 C 
HETATM   10  O   UNL     1     -45.223  58.960 -57.411  1.00  0.00    -0.273 OA
HETATM   11  N   UNL     1     -43.824  57.193 -57.287  1.00  0.00    -0.312 N 
HETATM   12  H   UNL     1     -43.545  57.368 -58.245  1.00  0.00     0.170 HD
ENDROOT
BRANCH   7  13
HETATM   13  C   UNL     1     -43.566  57.938 -53.530  1.00  0.00    -0.046 A 
HETATM   14  C   UNL     1     -44.228  58.538 -52.439  1.00  0.00     0.047 A 
HETATM   15  C   UNL     1     -43.537  59.444 -51.662  1.00  0.00     0.105 A 
HETATM   16  C   UNL     1     -42.230  59.772 -51.922  1.00  0.00     0.105 A 
HETATM   17  O   UNL     1     -44.038  60.111 -50.588  1.00  0.00    -0.323 OA
HETATM   18  O   UNL     1     -41.738  60.684 -51.040  1.00  0.00    -0.323 OA
HETATM   19  C   UNL     1     -41.544  59.219 -52.978  1.00  0.00     0.040 A 
HETATM   20  C   UNL     1     -42.894  60.900 -50.204  1.00  0.00     0.352 A 
HETATM   21  C   UNL     1     -42.223  58.305 -53.794  1.00  0.00     0.011 A 
ENDBRANCH   7  13
BRANCH   1  22
HETATM   22  C   UNL     1     -42.164  54.574 -53.429  1.00  0.00    -0.005 A 
HETATM   23  C   UNL     1     -43.199  54.427 -52.491  1.00  0.00     0.014 A 
HETATM   24  C   UNL     1     -42.944  53.907 -51.220  1.00  0.00     0.001 A 
HETATM   25  C   UNL     1     -41.648  53.533 -50.871  1.00  0.00     0.000 A 
HETATM   26  C   UNL     1     -40.609  53.687 -51.787  1.00  0.00     0.001 A 
HETATM   27  C   UNL     1     -40.864  54.211 -53.058  1.00  0.00     0.014 A 
ENDBRANCH   1  22
TORSDOF 2
ENDMDL
MODEL 9
REMARK VINA RESULT:      -7.3      4.041      6.704
REMARK  2 active torsions:
REMARK  status: ('A' for Active; 'I' for Inactive)
REMARK    1  A    between atoms: C_4  and  C_5 
REMARK    2  A    between atoms: C_11  and  C_12 
ROOT
HETATM    1  C   UNL     1     -42.222  57.975 -54.815  1.00  0.00     0.098 A 
HETATM    2  N   UNL     1     -42.539  58.641 -53.684  1.00  0.00    -0.172 NA
HETATM    3  N   UNL     1     -42.632  59.927 -54.054  1.00  0.00    -0.261 N 
HETATM    4  H   UNL     1     -42.873  60.614 -53.349  1.00  0.00     0.191 HD
HETATM    5  C   UNL     1     -42.395  60.112 -55.376  1.00  0.00     0.133 A 
HETATM    6  C   UNL     1     -42.110  58.882 -55.910  1.00  0.00     0.028 A 
HETATM    7  C   UNL     1     -41.835  58.727 -57.364  1.00  0.00     0.067 C 
HETATM    8  C   UNL     1     -41.534  60.083 -58.029  1.00  0.00     0.117 C 
HETATM    9  C   UNL     1     -42.225  61.299 -57.418  1.00  0.00     0.224 C 
HETATM   10  O   UNL     1     -42.441  62.316 -58.075  1.00  0.00    -0.273 OA
HETATM   11  N   UNL     1     -42.486  61.288 -56.067  1.00  0.00    -0.312 N 
HETATM   12  H   UNL     1     -42.845  62.141 -55.656  1.00  0.00     0.170 HD
ENDROOT
BRANCH   7  13
HETATM   13  C   UNL     1     -43.020  58.013 -58.000  1.00  0.00    -0.046 A 
HETATM   14  C   UNL     1     -42.754  56.929 -58.861  1.00  0.00     0.047 A 
HETATM   15  C   UNL     1     -43.814  56.296 -59.477  1.00  0.00     0.105 A 
HETATM   16  C   UNL     1     -45.112  56.692 -59.270  1.00  0.00     0.105 A 
HETATM   17  O   UNL     1     -43.719  55.248 -60.338  1.00  0.00    -0.323 OA
HETATM   18  O   UNL     1     -46.001  55.939 -59.971  1.00  0.00    -0.323 OA
HETATM   19  C   UNL     1     -45.421  57.748 -58.445  1.00  0.00     0.040 A 
HETATM   20  C   UNL     1     -45.110  55.033 -60.653  1.00  0.00     0.352 A 
HETATM   21  C   UNL     1     -44.365  58.420 -57.816  1.00  0.00     0.011 A 
ENDBRANCH   7  13
BRANCH   1  22
HETATM   22  C   UNL     1     -42.104  56.517 -54.805  1.00  0.00    -0.005 A 
HETATM   23  C   UNL     1     -40.891  55.923 -54.424  1.00  0.00     0.014 A 
HETATM   24  C   UNL     1     -40.756  54.534 -54.383  1.00  0.00     0.001 A 
HETATM   25  C   UNL     1     -41.834  53.721 -54.726  1.00  0.00     0.000 A 
HETATM   26  C   UNL     1     -43.041  54.298 -55.120  1.00  0.00     0.001 A 
HETATM   27  C   UNL     1     -43.174  55.688 -55.165  1.00  0.00     0.014 A 
ENDBRANCH   1  22
TORSDOF 2
ENDMDL
MODEL 10
REMARK VINA RESULT:      -7.3     15.852     18.551
REMARK  2 active torsions:
REMARK  status: ('A' for Active; 'I' for Inactive)
REMARK    1  A    between atoms: C_4  and  C_5 
REMARK    2  A    between atoms: C_11  and  C_12 
ROOT
HETATM    1  C   UNL     1     -36.009  40.421 -51.369  1.00  0.00     0.098 A 
HETATM    2  N   UNL     1     -37.263  40.165 -50.939  1.00  0.00    -0.172 NA
HETATM    3  N   UNL     1     -38.062  40.565 -51.939  1.00  0.00    -0.261 N 
HETATM    4  H   UNL     1     -39.063  40.455 -51.829  1.00  0.00     0.191 HD
HETATM    5  C   UNL     1     -37.372  41.061 -52.996  1.00  0.00     0.133 A 
HETATM    6  C   UNL     1     -36.041  41.004 -52.671  1.00  0.00     0.028 A 
HETATM    7  C   UNL     1     -35.000  41.443 -53.638  1.00  0.00     0.067 C 
HETATM    8  C   UNL     1     -35.607  42.281 -54.778  1.00  0.00     0.117 C 
HETATM    9  C   UNL     1     -37.044  41.944 -55.168  1.00  0.00     0.224 C 
HETATM   10  O   UNL     1     -37.481  42.187 -56.293  1.00  0.00    -0.273 OA
HETATM   11  N   UNL     1     -37.890  41.478 -54.189  1.00  0.00    -0.312 N 
HETATM   12  H   UNL     1     -38.866  41.362 -54.436  1.00  0.00     0.170 HD
ENDROOT
BRANCH   7  13
HETATM   13  C   UNL     1     -34.267  40.209 -54.145  1.00  0.00    -0.046 A 
HETATM   14  C   UNL     1     -32.871  40.293 -54.319  1.00  0.00     0.047 A 
HETATM   15  C   UNL     1     -32.197  39.196 -54.815  1.00  0.00     0.105 A 
HETATM   16  C   UNL     1     -32.848  38.032 -55.137  1.00  0.00     0.105 A 
HETATM   17  O   UNL     1     -30.860  39.127 -55.048  1.00  0.00    -0.323 OA
HETATM   18  O   UNL     1     -32.002  37.077 -55.608  1.00  0.00    -0.323 OA
HETATM   19  C   UNL     1     -34.210  37.902 -54.990  1.00  0.00     0.040 A 
HETATM   20  C   UNL     1     -30.745  37.783 -55.558  1.00  0.00     0.352 A 
HETATM   21  C   UNL     1     -34.925  39.005 -54.502  1.00  0.00     0.011 A 
ENDBRANCH   7  13
BRANCH   1  22
HETATM   22  C   UNL     1     -34.856  40.045 -50.551  1.00  0.00    -0.005 A 
HETATM   23  C   UNL     1     -34.950  38.943 -49.686  1.00  0.00     0.014 A 
HETATM   24  C   UNL     1     -33.859  38.547 -48.910  1.00  0.00     0.001 A 
HETATM   25  C   UNL     1     -32.660  39.252 -48.988  1.00  0.00     0.000 A 
HETATM   26  C   UNL     1     -32.557  40.357 -49.832  1.00  0.00     0.001 A 
HETATM   27  C   UNL     1     -33.652  40.756 -50.605  1.00  0.00     0.014 A 
ENDBRANCH   1  22
TORSDOF 2
ENDMDL
