MODEL 1
REMARK VINA RESULT:      -8.7      0.000      0.000
REMARK  8 active torsions:
REMARK  status: ('A' for Active; 'I' for Inactive)
REMARK    1  A    between atoms: C_4  and  S_5 
REMARK    2  A    between atoms: S_5  and  C_6 
REMARK    3  A    between atoms: C_6  and  C_7 
REMARK       I    between atoms: C_7  and  N_8 
REMARK    4  A    between atoms: N_8  and  C_9 
REMARK    5  A    between atoms: C_10  and  O_11 
REMARK    6  A    between atoms: C_22  and  C_23 
REMARK    7  A    between atoms: C_29  and  C_30 
REMARK       I    between atoms: C_30  and  N_31 
REMARK    8  A    between atoms: N_31  and  C_32 
ROOT
HETATM    1  C   UNL     1     -42.516  55.235 -56.761  1.00  0.00     0.069 C 
HETATM    2  C   UNL     1     -42.118  56.001 -55.525  1.00  0.00     0.019 C 
HETATM    3  N   UNL     1     -42.519  57.331 -55.483  1.00  0.00    -0.353 N 
HETATM    4  C   UNL     1     -41.961  58.273 -54.632  1.00  0.00     0.088 C 
HETATM    5  C   UNL     1     -41.292  57.857 -53.531  1.00  0.00     0.069 C 
HETATM    6  C   UNL     1     -40.650  58.745 -52.617  1.00  0.00     0.099 C 
HETATM    7  N   UNL     1     -40.086  59.413 -51.855  1.00  0.00    -0.192 NA
HETATM    8  C   UNL     1     -41.119  56.361 -53.267  1.00  0.00     0.106 C 
HETATM    9  C   UNL     1     -41.398  55.492 -54.494  1.00  0.00     0.046 C 
HETATM   10  H   UNL     1     -42.928  57.715 -56.331  1.00  0.00     0.166 HD
ENDROOT
BRANCH   4  11
HETATM   11  S   UNL     1     -42.020  59.976 -55.070  1.00  0.00    -0.102 SA
BRANCH  11  12
HETATM   12  C   UNL     1     -42.835  59.758 -56.681  1.00  0.00     0.184 C 
BRANCH  12  13
HETATM   13  C   UNL     1     -41.922  60.060 -57.853  1.00  0.00     0.231 C 
HETATM   14  N   UNL     1     -42.037  59.306 -58.992  1.00  0.00    -0.324 N 
HETATM   15  H   UNL     1     -41.171  59.226 -59.518  1.00  0.00     0.169 HD
HETATM   16  O   UNL     1     -40.975  60.841 -57.747  1.00  0.00    -0.272 OA
BRANCH  14  17
HETATM   17  C   UNL     1     -43.130  58.581 -59.499  1.00  0.00     0.070 A 
HETATM   18  C   UNL     1     -44.261  59.298 -59.930  1.00  0.00     0.095 A 
HETATM   19  C   UNL     1     -45.391  58.608 -60.380  1.00  0.00     0.041 A 
HETATM   20  C   UNL     1     -45.392  57.211 -60.407  1.00  0.00     0.026 A 
HETATM   21  C   UNL     1     -44.273  56.508 -59.972  1.00  0.00     0.036 A 
HETATM   22 CL   UNL     1     -44.288  54.787 -59.974  1.00  0.00    -0.084 Cl
HETATM   23  C   UNL     1     -43.145  57.184 -59.513  1.00  0.00     0.056 A 
BRANCH  18  24
HETATM   24  O   UNL     1     -44.171  60.668 -59.875  1.00  0.00    -0.354 OA
HETATM   25  C   UNL     1     -45.222  61.323 -59.170  1.00  0.00     0.210 C 
ENDBRANCH  18  24
ENDBRANCH  14  17
ENDBRANCH  12  13
ENDBRANCH  11  12
ENDBRANCH   4  11
BRANCH   8  26
HETATM   26  C   UNL     1     -41.936  55.937 -52.042  1.00  0.00    -0.044 A 
HETATM   27  C   UNL     1     -41.365  55.198 -50.991  1.00  0.00     0.008 A 
HETATM   28  C   UNL     1     -42.131  54.822 -49.888  1.00  0.00     0.001 A 
HETATM   29  C   UNL     1     -43.481  55.162 -49.824  1.00  0.00     0.000 A 
HETATM   30  C   UNL     1     -44.066  55.875 -50.867  1.00  0.00     0.001 A 
HETATM   31  C   UNL     1     -43.303  56.260 -51.969  1.00  0.00     0.008 A 
ENDBRANCH   8  26
BRANCH   9  32
HETATM   32  C   UNL     1     -40.661  54.191 -54.647  1.00  0.00     0.255 C 
HETATM   33  N   UNL     1     -41.168  53.150 -53.901  1.00  0.00    -0.323 N 
HETATM   34  H   UNL     1     -42.059  53.281 -53.443  1.00  0.00     0.169 HD
HETATM   35  O   UNL     1     -39.641  54.155 -55.328  1.00  0.00    -0.268 OA
BRANCH  33  36
HETATM   36  C   UNL     1     -40.554  51.901 -53.649  1.00  0.00     0.035 A 
HETATM   37  C   UNL     1     -40.434  50.880 -54.592  1.00  0.00     0.029 A 
HETATM   38  C   UNL     1     -39.774  49.689 -54.271  1.00  0.00     0.002 A 
HETATM   39  C   UNL     1     -39.221  49.513 -53.006  1.00  0.00     0.000 A 
HETATM   40  C   UNL     1     -39.338  50.522 -52.055  1.00  0.00     0.002 A 
HETATM   41  C   UNL     1     -40.007  51.708 -52.373  1.00  0.00     0.029 A 
ENDBRANCH  33  36
ENDBRANCH   9  32
TORSDOF 8
ENDMDL
MODEL 2
REMARK VINA RESULT:      -8.5      2.766      9.268
REMARK  8 active torsions:
REMARK  status: ('A' for Active; 'I' for Inactive)
REMARK    1  A    between atoms: C_4  and  S_5 
REMARK    2  A    between atoms: S_5  and  C_6 
REMARK    3  A    between atoms: C_6  and  C_7 
REMARK       I    between atoms: C_7  and  N_8 
REMARK    4  A    between atoms: N_8  and  C_9 
REMARK    5  A    between atoms: C_10  and  O_11 
REMARK    6  A    between atoms: C_22  and  C_23 
REMARK    7  A    between atoms: C_29  and  C_30 
REMARK       I    between atoms: C_30  and  N_31 
REMARK    8  A    between atoms: N_31  and  C_32 
ROOT
HETATM    1  C   UNL     1     -42.670  56.383 -59.467  1.00  0.00     0.069 C 
HETATM    2  C   UNL     1     -42.807  57.467 -58.427  1.00  0.00     0.019 C 
HETATM    3  N   UNL     1     -42.180  57.222 -57.212  1.00  0.00    -0.353 N 
HETATM    4  C   UNL     1     -42.481  57.903 -56.042  1.00  0.00     0.088 C 
HETATM    5  C   UNL     1     -43.102  59.104 -56.117  1.00  0.00     0.069 C 
HETATM    6  C   UNL     1     -43.489  59.862 -54.972  1.00  0.00     0.099 C 
HETATM    7  N   UNL     1     -43.852  60.512 -54.082  1.00  0.00    -0.192 NA
HETATM    8  C   UNL     1     -43.506  59.667 -57.480  1.00  0.00     0.106 C 
HETATM    9  C   UNL     1     -43.502  58.620 -58.594  1.00  0.00     0.046 C 
HETATM   10  H   UNL     1     -41.794  56.291 -57.073  1.00  0.00     0.166 HD
ENDROOT
BRANCH   4  11
HETATM   11  S   UNL     1     -42.169  57.136 -54.490  1.00  0.00    -0.102 SA
BRANCH  11  12
HETATM   12  C   UNL     1     -41.341  55.654 -55.143  1.00  0.00     0.184 C 
BRANCH  12  13
HETATM   13  C   UNL     1     -42.275  54.468 -55.289  1.00  0.00     0.231 C 
HETATM   14  N   UNL     1     -42.047  53.350 -54.530  1.00  0.00    -0.324 N 
HETATM   15  H   UNL     1     -42.366  52.489 -54.965  1.00  0.00     0.169 HD
HETATM   16  O   UNL     1     -43.119  54.420 -56.186  1.00  0.00    -0.272 OA
BRANCH  14  17
HETATM   17  C   UNL     1     -41.387  53.204 -53.297  1.00  0.00     0.070 A 
HETATM   18  C   UNL     1     -40.329  52.281 -53.215  1.00  0.00     0.095 A 
HETATM   19  C   UNL     1     -39.691  52.062 -51.991  1.00  0.00     0.041 A 
HETATM   20  C   UNL     1     -40.101  52.762 -50.853  1.00  0.00     0.026 A 
HETATM   21  C   UNL     1     -41.154  53.668 -50.940  1.00  0.00     0.036 A 
HETATM   22 CL   UNL     1     -41.681  54.505 -49.531  1.00  0.00    -0.084 Cl
HETATM   23  C   UNL     1     -41.803  53.888 -52.152  1.00  0.00     0.056 A 
BRANCH  18  24
HETATM   24  O   UNL     1     -39.987  51.641 -54.382  1.00  0.00    -0.354 OA
HETATM   25  C   UNL     1     -39.825  50.229 -54.282  1.00  0.00     0.210 C 
ENDBRANCH  18  24
ENDBRANCH  14  17
ENDBRANCH  12  13
ENDBRANCH  11  12
ENDBRANCH   4  11
BRANCH   8  26
HETATM   26  C   UNL     1     -42.660  60.899 -57.820  1.00  0.00    -0.044 A 
HETATM   27  C   UNL     1     -41.319  60.786 -58.225  1.00  0.00     0.008 A 
HETATM   28  C   UNL     1     -40.569  61.923 -58.527  1.00  0.00     0.001 A 
HETATM   29  C   UNL     1     -41.141  63.189 -58.414  1.00  0.00     0.000 A 
HETATM   30  C   UNL     1     -42.463  63.318 -57.994  1.00  0.00     0.001 A 
HETATM   31  C   UNL     1     -43.218  62.184 -57.697  1.00  0.00     0.008 A 
ENDBRANCH   8  26
BRANCH   9  32
HETATM   32  C   UNL     1     -44.465  58.772 -59.738  1.00  0.00     0.255 C 
HETATM   33  N   UNL     1     -45.750  58.351 -59.470  1.00  0.00    -0.323 N 
HETATM   34  H   UNL     1     -45.989  58.126 -58.514  1.00  0.00     0.169 HD
HETATM   35  O   UNL     1     -44.051  59.160 -60.825  1.00  0.00    -0.268 OA
BRANCH  33  36
HETATM   36  C   UNL     1     -46.792  58.142 -60.402  1.00  0.00     0.035 A 
HETATM   37  C   UNL     1     -47.568  59.161 -60.957  1.00  0.00     0.029 A 
HETATM   38  C   UNL     1     -48.553  58.869 -61.906  1.00  0.00     0.002 A 
HETATM   39  C   UNL     1     -48.767  57.556 -62.314  1.00  0.00     0.000 A 
HETATM   40  C   UNL     1     -48.003  56.530 -61.765  1.00  0.00     0.002 A 
HETATM   41  C   UNL     1     -47.025  56.821 -60.809  1.00  0.00     0.029 A 
ENDBRANCH  33  36
ENDBRANCH   9  32
TORSDOF 8
ENDMDL
MODEL 3
REMARK VINA RESULT:      -8.4      3.451      6.734
REMARK  8 active torsions:
REMARK  status: ('A' for Active; 'I' for Inactive)
REMARK    1  A    between atoms: C_4  and  S_5 
REMARK    2  A    between atoms: S_5  and  C_6 
REMARK    3  A    between atoms: C_6  and  C_7 
REMARK       I    between atoms: C_7  and  N_8 
REMARK    4  A    between atoms: N_8  and  C_9 
REMARK    5  A    between atoms: C_10  and  O_11 
REMARK    6  A    between atoms: C_22  and  C_23 
REMARK    7  A    between atoms: C_29  and  C_30 
REMARK       I    between atoms: C_30  and  N_31 
REMARK    8  A    between atoms: N_31  and  C_32 
ROOT
HETATM    1  C   UNL     1     -40.366  58.302 -53.589  1.00  0.00     0.069 C 
HETATM    2  C   UNL     1     -41.597  58.192 -54.453  1.00  0.00     0.019 C 
HETATM    3  N   UNL     1     -42.355  59.349 -54.575  1.00  0.00    -0.353 N 
HETATM    4  C   UNL     1     -43.672  59.361 -55.010  1.00  0.00     0.088 C 
HETATM    5  C   UNL     1     -44.145  58.308 -55.718  1.00  0.00     0.069 C 
HETATM    6  C   UNL     1     -45.492  58.208 -56.176  1.00  0.00     0.099 C 
HETATM    7  N   UNL     1     -46.580  58.056 -56.550  1.00  0.00    -0.192 NA
HETATM    8  C   UNL     1     -43.241  57.103 -55.983  1.00  0.00     0.106 C 
HETATM    9  C   UNL     1     -42.006  57.061 -55.081  1.00  0.00     0.046 C 
HETATM   10  H   UNL     1     -42.100  60.132 -53.977  1.00  0.00     0.166 HD
ENDROOT
BRANCH   4  11
HETATM   11  S   UNL     1     -44.732  60.679 -54.525  1.00  0.00    -0.102 SA
BRANCH  11  12
HETATM   12  C   UNL     1     -43.496  61.609 -53.568  1.00  0.00     0.184 C 
BRANCH  12  13
HETATM   13  C   UNL     1     -43.994  62.016 -52.194  1.00  0.00     0.231 C 
HETATM   14  N   UNL     1     -43.781  61.171 -51.136  1.00  0.00    -0.324 N 
HETATM   15  H   UNL     1     -44.484  61.245 -50.406  1.00  0.00     0.169 HD
HETATM   16  O   UNL     1     -44.728  62.994 -52.038  1.00  0.00    -0.272 OA
BRANCH  14  17
HETATM   17  C   UNL     1     -42.799  60.184 -50.941  1.00  0.00     0.070 A 
HETATM   18  C   UNL     1     -43.183  58.834 -51.042  1.00  0.00     0.095 A 
HETATM   19  C   UNL     1     -42.248  57.826 -50.793  1.00  0.00     0.041 A 
HETATM   20  C   UNL     1     -40.935  58.158 -50.448  1.00  0.00     0.026 A 
HETATM   21  C   UNL     1     -40.565  59.495 -50.341  1.00  0.00     0.036 A 
HETATM   22 CL   UNL     1     -38.956  59.903 -49.884  1.00  0.00    -0.084 Cl
HETATM   23  C   UNL     1     -41.488  60.509 -50.579  1.00  0.00     0.056 A 
BRANCH  18  24
HETATM   24  O   UNL     1     -44.491  58.598 -51.392  1.00  0.00    -0.354 OA
HETATM   25  C   UNL     1     -44.720  57.402 -52.132  1.00  0.00     0.210 C 
ENDBRANCH  18  24
ENDBRANCH  14  17
ENDBRANCH  12  13
ENDBRANCH  11  12
ENDBRANCH   4  11
BRANCH   8  26
HETATM   26  C   UNL     1     -42.890  57.017 -57.473  1.00  0.00    -0.044 A 
HETATM   27  C   UNL     1     -43.204  55.883 -58.242  1.00  0.00     0.008 A 
HETATM   28  C   UNL     1     -42.872  55.828 -59.596  1.00  0.00     0.001 A 
HETATM   29  C   UNL     1     -42.207  56.894 -60.197  1.00  0.00     0.000 A 
HETATM   30  C   UNL     1     -41.870  58.015 -59.443  1.00  0.00     0.001 A 
HETATM   31  C   UNL     1     -42.206  58.078 -58.091  1.00  0.00     0.008 A 
ENDBRANCH   8  26
BRANCH   9  32
HETATM   32  C   UNL     1     -41.425  55.727 -54.707  1.00  0.00     0.255 C 
HETATM   33  N   UNL     1     -41.698  55.319 -53.419  1.00  0.00    -0.323 N 
HETATM   34  H   UNL     1     -42.376  55.846 -52.886  1.00  0.00     0.169 HD
HETATM   35  O   UNL     1     -40.697  55.144 -55.503  1.00  0.00    -0.268 OA
BRANCH  33  36
HETATM   36  C   UNL     1     -41.095  54.252 -52.715  1.00  0.00     0.035 A 
HETATM   37  C   UNL     1     -40.633  53.077 -53.310  1.00  0.00     0.029 A 
HETATM   38  C   UNL     1     -40.009  52.088 -52.543  1.00  0.00     0.002 A 
HETATM   39  C   UNL     1     -39.834  52.269 -51.173  1.00  0.00     0.000 A 
HETATM   40  C   UNL     1     -40.294  53.434 -50.567  1.00  0.00     0.002 A 
HETATM   41  C   UNL     1     -40.927  54.418 -51.333  1.00  0.00     0.029 A 
ENDBRANCH  33  36
ENDBRANCH   9  32
TORSDOF 8
ENDMDL
MODEL 4
REMARK VINA RESULT:      -8.3      3.003      9.227
REMARK  8 active torsions:
REMARK  status: ('A' for Active; 'I' for Inactive)
REMARK    1  A    between atoms: C_4  and  S_5 
REMARK    2  A    between atoms: S_5  and  C_6 
REMARK    3  A    between atoms: C_6  and  C_7 
REMARK       I    between atoms: C_7  and  N_8 
REMARK    4  A    between atoms: N_8  and  C_9 
REMARK    5  A    between atoms: C_10  and  O_11 
REMARK    6  A    between atoms: C_22  and  C_23 
REMARK    7  A    between atoms: C_29  and  C_30 
REMARK       I    between atoms: C_30  and  N_31 
REMARK    8  A    between atoms: N_31  and  C_32 
ROOT
HETATM    1  C   UNL     1     -45.010  59.159 -54.112  1.00  0.00     0.069 C 
HETATM    2  C   UNL     1     -44.097  58.102 -54.682  1.00  0.00     0.019 C 
HETATM    3  N   UNL     1     -44.371  56.796 -54.298  1.00  0.00    -0.353 N 
HETATM    4  C   UNL     1     -43.462  55.755 -54.415  1.00  0.00     0.088 C 
HETATM    5  C   UNL     1     -42.423  55.878 -55.275  1.00  0.00     0.069 C 
HETATM    6  C   UNL     1     -41.415  54.882 -55.439  1.00  0.00     0.099 C 
HETATM    7  N   UNL     1     -40.551  54.124 -55.596  1.00  0.00    -0.192 NA
HETATM    8  C   UNL     1     -42.240  57.174 -56.066  1.00  0.00     0.106 C 
HETATM    9  C   UNL     1     -43.046  58.346 -55.504  1.00  0.00     0.046 C 
HETATM   10  H   UNL     1     -45.071  56.667 -53.571  1.00  0.00     0.166 HD
ENDROOT
BRANCH   4  11
HETATM   11  S   UNL     1     -43.602  54.360 -53.353  1.00  0.00    -0.102 SA
BRANCH  11  12
HETATM   12  C   UNL     1     -43.411  55.261 -51.785  1.00  0.00     0.184 C 
BRANCH  12  13
HETATM   13  C   UNL     1     -42.102  56.022 -51.693  1.00  0.00     0.231 C 
HETATM   14  N   UNL     1     -40.993  55.373 -51.214  1.00  0.00    -0.324 N 
HETATM   15  H   UNL     1     -40.326  55.989 -50.757  1.00  0.00     0.169 HD
HETATM   16  O   UNL     1     -42.050  57.240 -51.874  1.00  0.00    -0.272 OA
BRANCH  14  17
HETATM   17  C   UNL     1     -40.675  54.004 -51.193  1.00  0.00     0.070 A 
HETATM   18  C   UNL     1     -40.743  53.324 -49.964  1.00  0.00     0.095 A 
HETATM   19  C   UNL     1     -40.374  51.978 -49.892  1.00  0.00     0.041 A 
HETATM   20  C   UNL     1     -39.942  51.310 -51.041  1.00  0.00     0.026 A 
HETATM   21  C   UNL     1     -39.869  51.991 -52.253  1.00  0.00     0.036 A 
HETATM   22 CL   UNL     1     -39.306  51.175 -53.660  1.00  0.00    -0.084 Cl
HETATM   23  C   UNL     1     -40.227  53.334 -52.335  1.00  0.00     0.056 A 
BRANCH  18  24
HETATM   24  O   UNL     1     -41.183  54.056 -48.887  1.00  0.00    -0.354 OA
HETATM   25  C   UNL     1     -40.469  53.848 -47.672  1.00  0.00     0.210 C 
ENDBRANCH  18  24
ENDBRANCH  14  17
ENDBRANCH  12  13
ENDBRANCH  11  12
ENDBRANCH   4  11
BRANCH   8  26
HETATM   26  C   UNL     1     -42.503  56.933 -57.556  1.00  0.00    -0.044 A 
HETATM   27  C   UNL     1     -43.346  55.900 -58.000  1.00  0.00     0.008 A 
HETATM   28  C   UNL     1     -43.568  55.699 -59.363  1.00  0.00     0.001 A 
HETATM   29  C   UNL     1     -42.940  56.515 -60.301  1.00  0.00     0.000 A 
HETATM   30  C   UNL     1     -42.085  57.529 -59.878  1.00  0.00     0.001 A 
HETATM   31  C   UNL     1     -41.865  57.738 -58.516  1.00  0.00     0.008 A 
ENDBRANCH   8  26
BRANCH   9  32
HETATM   32  C   UNL     1     -42.510  59.741 -55.665  1.00  0.00     0.255 C 
HETATM   33  N   UNL     1     -42.924  60.390 -56.807  1.00  0.00    -0.323 N 
HETATM   34  H   UNL     1     -43.657  59.964 -57.359  1.00  0.00     0.169 HD
HETATM   35  O   UNL     1     -41.698  60.170 -54.852  1.00  0.00    -0.268 OA
BRANCH  33  36
HETATM   36  C   UNL     1     -42.402  61.588 -57.346  1.00  0.00     0.035 A 
HETATM   37  C   UNL     1     -42.943  62.855 -57.118  1.00  0.00     0.029 A 
HETATM   38  C   UNL     1     -42.337  63.995 -57.657  1.00  0.00     0.002 A 
HETATM   39  C   UNL     1     -41.181  63.879 -58.424  1.00  0.00     0.000 A 
HETATM   40  C   UNL     1     -40.635  62.621 -58.663  1.00  0.00     0.002 A 
HETATM   41  C   UNL     1     -41.247  61.481 -58.132  1.00  0.00     0.029 A 
ENDBRANCH  33  36
ENDBRANCH   9  32
TORSDOF 8
ENDMDL
MODEL 5
REMARK VINA RESULT:      -8.3      3.691      6.534
REMARK  8 active torsions:
REMARK  status: ('A' for Active; 'I' for Inactive)
REMARK    1  A    between atoms: C_4  and  S_5 
REMARK    2  A    between atoms: S_5  and  C_6 
REMARK    3  A    between atoms: C_6  and  C_7 
REMARK       I    between atoms: C_7  and  N_8 
REMARK    4  A    between atoms: N_8  and  C_9 
REMARK    5  A    between atoms: C_10  and  O_11 
REMARK    6  A    between atoms: C_22  and  C_23 
REMARK    7  A    between atoms: C_29  and  C_30 
REMARK       I    between atoms: C_30  and  N_31 
REMARK    8  A    between atoms: N_31  and  C_32 
ROOT
HETATM    1  C   UNL     1     -40.657  59.156 -53.480  1.00  0.00     0.069 C 
HETATM    2  C   UNL     1     -41.769  59.178 -54.499  1.00  0.00     0.019 C 
HETATM    3  N   UNL     1     -42.122  60.431 -54.981  1.00  0.00    -0.353 N 
HETATM    4  C   UNL     1     -43.321  60.695 -55.627  1.00  0.00     0.088 C 
HETATM    5  C   UNL     1     -44.017  59.670 -56.174  1.00  0.00     0.069 C 
HETATM    6  C   UNL     1     -45.277  59.833 -56.823  1.00  0.00     0.099 C 
HETATM    7  N   UNL     1     -46.315  59.897 -57.337  1.00  0.00    -0.192 NA
HETATM    8  C   UNL     1     -43.501  58.238 -56.031  1.00  0.00     0.106 C 
HETATM    9  C   UNL     1     -42.436  58.084 -54.943  1.00  0.00     0.046 C 
HETATM   10  H   UNL     1     -41.703  61.236 -54.521  1.00  0.00     0.166 HD
ENDROOT
BRANCH   4  11
HETATM   11  S   UNL     1     -43.973  62.328 -55.606  1.00  0.00    -0.102 SA
BRANCH  11  12
HETATM   12  C   UNL     1     -42.891  62.978 -54.297  1.00  0.00     0.184 C 
BRANCH  12  13
HETATM   13  C   UNL     1     -43.660  63.561 -53.127  1.00  0.00     0.231 C 
HETATM   14  N   UNL     1     -44.217  62.706 -52.210  1.00  0.00    -0.324 N 
HETATM   15  H   UNL     1     -45.049  63.077 -51.760  1.00  0.00     0.169 HD
HETATM   16  O   UNL     1     -43.940  64.759 -53.073  1.00  0.00    -0.272 OA
BRANCH  14  17
HETATM   17  C   UNL     1     -43.863  61.393 -51.856  1.00  0.00     0.070 A 
HETATM   18  C   UNL     1     -44.733  60.349 -52.220  1.00  0.00     0.095 A 
HETATM   19  C   UNL     1     -44.446  59.038 -51.830  1.00  0.00     0.041 A 
HETATM   20  C   UNL     1     -43.296  58.765 -51.085  1.00  0.00     0.026 A 
HETATM   21  C   UNL     1     -42.444  59.804 -50.721  1.00  0.00     0.036 A 
HETATM   22 CL   UNL     1     -41.045  59.471 -49.775  1.00  0.00    -0.084 Cl
HETATM   23  C   UNL     1     -42.723  61.115 -51.096  1.00  0.00     0.056 A 
BRANCH  18  24
HETATM   24  O   UNL     1     -45.837  60.706 -52.957  1.00  0.00    -0.354 OA
HETATM   25  C   UNL     1     -47.026  60.934 -52.206  1.00  0.00     0.210 C 
ENDBRANCH  18  24
ENDBRANCH  14  17
ENDBRANCH  12  13
ENDBRANCH  11  12
ENDBRANCH   4  11
BRANCH   8  26
HETATM   26  C   UNL     1     -43.043  57.698 -57.390  1.00  0.00    -0.044 A 
HETATM   27  C   UNL     1     -42.215  58.447 -58.243  1.00  0.00     0.008 A 
HETATM   28  C   UNL     1     -41.814  57.933 -59.477  1.00  0.00     0.001 A 
HETATM   29  C   UNL     1     -42.246  56.673 -59.883  1.00  0.00     0.000 A 
HETATM   30  C   UNL     1     -43.084  55.927 -59.059  1.00  0.00     0.001 A 
HETATM   31  C   UNL     1     -43.483  56.434 -57.821  1.00  0.00     0.008 A 
ENDBRANCH   8  26
BRANCH   9  32
HETATM   32  C   UNL     1     -42.330  56.775 -54.211  1.00  0.00     0.255 C 
HETATM   33  N   UNL     1     -41.087  56.184 -54.263  1.00  0.00    -0.323 N 
HETATM   34  H   UNL     1     -40.318  56.723 -54.639  1.00  0.00     0.169 HD
HETATM   35  O   UNL     1     -43.336  56.284 -53.708  1.00  0.00    -0.268 OA
BRANCH  33  36
HETATM   36  C   UNL     1     -40.753  54.862 -53.892  1.00  0.00     0.035 A 
HETATM   37  C   UNL     1     -40.797  54.377 -52.583  1.00  0.00     0.029 A 
HETATM   38  C   UNL     1     -40.490  53.040 -52.309  1.00  0.00     0.002 A 
HETATM   39  C   UNL     1     -40.143  52.174 -53.342  1.00  0.00     0.000 A 
HETATM   40  C   UNL     1     -40.090  52.646 -54.650  1.00  0.00     0.002 A 
HETATM   41  C   UNL     1     -40.387  53.985 -54.922  1.00  0.00     0.029 A 
ENDBRANCH  33  36
ENDBRANCH   9  32
TORSDOF 8
ENDMDL
MODEL 6
REMARK VINA RESULT:      -8.3      3.084      8.982
REMARK  8 active torsions:
REMARK  status: ('A' for Active; 'I' for Inactive)
REMARK    1  A    between atoms: C_4  and  S_5 
REMARK    2  A    between atoms: S_5  and  C_6 
REMARK    3  A    between atoms: C_6  and  C_7 
REMARK       I    between atoms: C_7  and  N_8 
REMARK    4  A    between atoms: N_8  and  C_9 
REMARK    5  A    between atoms: C_10  and  O_11 
REMARK    6  A    between atoms: C_22  and  C_23 
REMARK    7  A    between atoms: C_29  and  C_30 
REMARK       I    between atoms: C_30  and  N_31 
REMARK    8  A    between atoms: N_31  and  C_32 
ROOT
HETATM    1  C   UNL     1     -44.886  61.705 -57.589  1.00  0.00     0.069 C 
HETATM    2  C   UNL     1     -44.550  60.237 -57.501  1.00  0.00     0.019 C 
HETATM    3  N   UNL     1     -44.937  59.598 -56.330  1.00  0.00    -0.353 N 
HETATM    4  C   UNL     1     -44.417  58.382 -55.912  1.00  0.00     0.088 C 
HETATM    5  C   UNL     1     -43.816  57.574 -56.818  1.00  0.00     0.069 C 
HETATM    6  C   UNL     1     -43.217  56.323 -56.480  1.00  0.00     0.099 C 
HETATM    7  N   UNL     1     -42.689  55.313 -56.265  1.00  0.00    -0.192 NA
HETATM    8  C   UNL     1     -43.676  58.030 -58.270  1.00  0.00     0.106 C 
HETATM    9  C   UNL     1     -43.896  59.532 -58.457  1.00  0.00     0.046 C 
HETATM   10  H   UNL     1     -45.292  60.187 -55.580  1.00  0.00     0.166 HD
ENDROOT
BRANCH   4  11
HETATM   11  S   UNL     1     -44.432  57.977 -54.201  1.00  0.00    -0.102 SA
BRANCH  11  12
HETATM   12  C   UNL     1     -43.383  59.354 -53.643  1.00  0.00     0.184 C 
BRANCH  12  13
HETATM   13  C   UNL     1     -41.989  59.317 -54.238  1.00  0.00     0.231 C 
HETATM   14  N   UNL     1     -41.004  58.633 -53.574  1.00  0.00    -0.324 N 
HETATM   15  H   UNL     1     -40.071  59.002 -53.734  1.00  0.00     0.169 HD
HETATM   16  O   UNL     1     -41.681  60.021 -55.202  1.00  0.00    -0.272 OA
BRANCH  14  17
HETATM   17  C   UNL     1     -41.091  57.564 -52.665  1.00  0.00     0.070 A 
HETATM   18  C   UNL     1     -40.949  57.844 -51.293  1.00  0.00     0.095 A 
HETATM   19  C   UNL     1     -40.967  56.800 -50.365  1.00  0.00     0.041 A 
HETATM   20  C   UNL     1     -41.129  55.481 -50.799  1.00  0.00     0.026 A 
HETATM   21  C   UNL     1     -41.260  55.210 -52.158  1.00  0.00     0.036 A 
HETATM   22 CL   UNL     1     -41.427  53.583 -52.693  1.00  0.00    -0.084 Cl
HETATM   23  C   UNL     1     -41.236  56.242 -53.093  1.00  0.00     0.056 A 
BRANCH  18  24
HETATM   24  O   UNL     1     -40.800  59.168 -50.955  1.00  0.00    -0.354 OA
HETATM   25  C   UNL     1     -39.510  59.535 -50.473  1.00  0.00     0.210 C 
ENDBRANCH  18  24
ENDBRANCH  14  17
ENDBRANCH  12  13
ENDBRANCH  11  12
ENDBRANCH   4  11
BRANCH   8  26
HETATM   26  C   UNL     1     -44.567  57.183 -59.185  1.00  0.00    -0.044 A 
HETATM   27  C   UNL     1     -44.026  56.249 -60.086  1.00  0.00     0.008 A 
HETATM   28  C   UNL     1     -44.858  55.491 -60.910  1.00  0.00     0.001 A 
HETATM   29  C   UNL     1     -46.239  55.665 -60.859  1.00  0.00     0.000 A 
HETATM   30  C   UNL     1     -46.789  56.601 -59.987  1.00  0.00     0.001 A 
HETATM   31  C   UNL     1     -45.962  57.357 -59.156  1.00  0.00     0.008 A 
ENDBRANCH   8  26
BRANCH   9  32
HETATM   32  C   UNL     1     -43.166  60.241 -59.564  1.00  0.00     0.255 C 
HETATM   33  N   UNL     1     -41.912  60.701 -59.226  1.00  0.00    -0.323 N 
HETATM   34  H   UNL     1     -41.517  60.405 -58.344  1.00  0.00     0.169 HD
HETATM   35  O   UNL     1     -43.739  60.440 -60.630  1.00  0.00    -0.268 OA
BRANCH  33  36
HETATM   36  C   UNL     1     -41.106  61.601 -59.960  1.00  0.00     0.035 A 
HETATM   37  C   UNL     1     -41.188  61.783 -61.342  1.00  0.00     0.029 A 
HETATM   38  C   UNL     1     -40.379  62.728 -61.984  1.00  0.00     0.002 A 
HETATM   39  C   UNL     1     -39.487  63.503 -61.248  1.00  0.00     0.000 A 
HETATM   40  C   UNL     1     -39.393  63.328 -59.871  1.00  0.00     0.002 A 
HETATM   41  C   UNL     1     -40.194  62.376 -59.231  1.00  0.00     0.029 A 
ENDBRANCH  33  36
ENDBRANCH   9  32
TORSDOF 8
ENDMDL
MODEL 7
REMARK VINA RESULT:      -8.1      3.220      9.712
REMARK  8 active torsions:
REMARK  status: ('A' for Active; 'I' for Inactive)
REMARK    1  A    between atoms: C_4  and  S_5 
REMARK    2  A    between atoms: S_5  and  C_6 
REMARK    3  A    between atoms: C_6  and  C_7 
REMARK       I    between atoms: C_7  and  N_8 
REMARK    4  A    between atoms: N_8  and  C_9 
REMARK    5  A    between atoms: C_10  and  O_11 
REMARK    6  A    between atoms: C_22  and  C_23 
REMARK    7  A    between atoms: C_29  and  C_30 
REMARK       I    between atoms: C_30  and  N_31 
REMARK    8  A    between atoms: N_31  and  C_32 
ROOT
HETATM    1  C   UNL     1     -42.251  60.632 -56.375  1.00  0.00     0.069 C 
HETATM    2  C   UNL     1     -42.889  59.706 -57.380  1.00  0.00     0.019 C 
HETATM    3  N   UNL     1     -43.140  58.414 -56.937  1.00  0.00    -0.353 N 
HETATM    4  C   UNL     1     -43.376  57.344 -57.787  1.00  0.00     0.088 C 
HETATM    5  C   UNL     1     -43.773  57.585 -59.059  1.00  0.00     0.069 C 
HETATM    6  C   UNL     1     -44.004  56.555 -60.020  1.00  0.00     0.099 C 
HETATM    7  N   UNL     1     -44.179  55.767 -60.852  1.00  0.00    -0.192 NA
HETATM    8  C   UNL     1     -43.908  59.026 -59.554  1.00  0.00     0.106 C 
HETATM    9  C   UNL     1     -43.202  60.043 -58.656  1.00  0.00     0.046 C 
HETATM   10  H   UNL     1     -42.762  58.157 -56.028  1.00  0.00     0.166 HD
ENDROOT
BRANCH   4  11
HETATM   11  S   UNL     1     -43.030  55.710 -57.237  1.00  0.00    -0.102 SA
BRANCH  11  12
HETATM   12  C   UNL     1     -42.485  56.156 -55.560  1.00  0.00     0.184 C 
BRANCH  12  13
HETATM   13  C   UNL     1     -43.581  56.013 -54.522  1.00  0.00     0.231 C 
HETATM   14  N   UNL     1     -43.524  54.965 -53.640  1.00  0.00    -0.324 N 
HETATM   15  H   UNL     1     -44.435  54.656 -53.313  1.00  0.00     0.169 HD
HETATM   16  O   UNL     1     -44.600  56.705 -54.562  1.00  0.00    -0.272 OA
BRANCH  14  17
HETATM   17  C   UNL     1     -42.425  54.218 -53.182  1.00  0.00     0.070 A 
HETATM   18  C   UNL     1     -41.846  54.574 -51.950  1.00  0.00     0.095 A 
HETATM   19  C   UNL     1     -40.713  53.895 -51.492  1.00  0.00     0.041 A 
HETATM   20  C   UNL     1     -40.160  52.863 -52.256  1.00  0.00     0.026 A 
HETATM   21  C   UNL     1     -40.732  52.522 -53.477  1.00  0.00     0.036 A 
HETATM   22 CL   UNL     1     -40.031  51.273 -54.432  1.00  0.00    -0.084 Cl
HETATM   23  C   UNL     1     -41.856  53.197 -53.948  1.00  0.00     0.056 A 
BRANCH  18  24
HETATM   24  O   UNL     1     -42.457  55.595 -51.263  1.00  0.00    -0.354 OA
HETATM   25  C   UNL     1     -41.590  56.408 -50.476  1.00  0.00     0.210 C 
ENDBRANCH  18  24
ENDBRANCH  14  17
ENDBRANCH  12  13
ENDBRANCH  11  12
ENDBRANCH   4  11
BRANCH   8  26
HETATM   26  C   UNL     1     -45.381  59.371 -59.798  1.00  0.00    -0.044 A 
HETATM   27  C   UNL     1     -45.842  59.793 -61.056  1.00  0.00     0.008 A 
HETATM   28  C   UNL     1     -47.188  60.105 -61.253  1.00  0.00     0.001 A 
HETATM   29  C   UNL     1     -48.088  60.016 -60.193  1.00  0.00     0.000 A 
HETATM   30  C   UNL     1     -47.643  59.620 -58.935  1.00  0.00     0.001 A 
HETATM   31  C   UNL     1     -46.299  59.301 -58.736  1.00  0.00     0.008 A 
ENDBRANCH   8  26
BRANCH   9  32
HETATM   32  C   UNL     1     -42.644  61.294 -59.274  1.00  0.00     0.255 C 
HETATM   33  N   UNL     1     -41.381  61.160 -59.808  1.00  0.00    -0.323 N 
HETATM   34  H   UNL     1     -40.993  60.230 -59.888  1.00  0.00     0.169 HD
HETATM   35  O   UNL     1     -43.280  62.340 -59.193  1.00  0.00    -0.268 OA
BRANCH  33  36
HETATM   36  C   UNL     1     -40.515  62.197 -60.225  1.00  0.00     0.035 A 
HETATM   37  C   UNL     1     -40.423  62.666 -61.536  1.00  0.00     0.029 A 
HETATM   38  C   UNL     1     -39.568  63.727 -61.854  1.00  0.00     0.002 A 
HETATM   39  C   UNL     1     -38.803  64.333 -60.861  1.00  0.00     0.000 A 
HETATM   40  C   UNL     1     -38.883  63.872 -59.551  1.00  0.00     0.002 A 
HETATM   41  C   UNL     1     -39.729  62.805 -59.236  1.00  0.00     0.029 A 
ENDBRANCH  33  36
ENDBRANCH   9  32
TORSDOF 8
ENDMDL
MODEL 8
REMARK VINA RESULT:      -7.9      3.516      5.019
REMARK  8 active torsions:
REMARK  status: ('A' for Active; 'I' for Inactive)
REMARK    1  A    between atoms: C_4  and  S_5 
REMARK    2  A    between atoms: S_5  and  C_6 
REMARK    3  A    between atoms: C_6  and  C_7 
REMARK       I    between atoms: C_7  and  N_8 
REMARK    4  A    between atoms: N_8  and  C_9 
REMARK    5  A    between atoms: C_10  and  O_11 
REMARK    6  A    between atoms: C_22  and  C_23 
REMARK    7  A    between atoms: C_29  and  C_30 
REMARK       I    between atoms: C_30  and  N_31 
REMARK    8  A    between atoms: N_31  and  C_32 
ROOT
HETATM    1  C   UNL     1     -42.878  55.049 -56.837  1.00  0.00     0.069 C 
HETATM    2  C   UNL     1     -42.318  55.868 -55.700  1.00  0.00     0.019 C 
HETATM    3  N   UNL     1     -42.653  57.216 -55.704  1.00  0.00    -0.353 N 
HETATM    4  C   UNL     1     -41.967  58.178 -54.979  1.00  0.00     0.088 C 
HETATM    5  C   UNL     1     -41.205  57.796 -53.927  1.00  0.00     0.069 C 
HETATM    6  C   UNL     1     -40.431  58.704 -53.144  1.00  0.00     0.099 C 
HETATM    7  N   UNL     1     -39.761  59.387 -52.488  1.00  0.00    -0.192 NA
HETATM    8  C   UNL     1     -41.071  56.311 -53.585  1.00  0.00     0.106 C 
HETATM    9  C   UNL     1     -41.516  55.386 -54.718  1.00  0.00     0.046 C 
HETATM   10  H   UNL     1     -43.131  57.569 -56.530  1.00  0.00     0.166 HD
ENDROOT
BRANCH   4  11
HETATM   11  S   UNL     1     -41.997  59.852 -55.518  1.00  0.00    -0.102 SA
BRANCH  11  12
HETATM   12  C   UNL     1     -43.610  60.283 -54.797  1.00  0.00     0.184 C 
BRANCH  12  13
HETATM   13  C   UNL     1     -43.833  61.780 -54.695  1.00  0.00     0.231 C 
HETATM   14  N   UNL     1     -44.281  62.302 -53.509  1.00  0.00    -0.324 N 
HETATM   15  H   UNL     1     -44.828  63.152 -53.618  1.00  0.00     0.169 HD
HETATM   16  O   UNL     1     -43.788  62.508 -55.689  1.00  0.00    -0.272 OA
BRANCH  14  17
HETATM   17  C   UNL     1     -44.166  61.813 -52.197  1.00  0.00     0.070 A 
HETATM   18  C   UNL     1     -45.204  62.093 -51.289  1.00  0.00     0.095 A 
HETATM   19  C   UNL     1     -45.095  61.678 -49.959  1.00  0.00     0.041 A 
HETATM   20  C   UNL     1     -43.959  60.983 -49.534  1.00  0.00     0.026 A 
HETATM   21  C   UNL     1     -42.933  60.717 -50.435  1.00  0.00     0.036 A 
HETATM   22 CL   UNL     1     -41.520  59.890 -49.902  1.00  0.00    -0.084 Cl
HETATM   23  C   UNL     1     -43.026  61.133 -51.760  1.00  0.00     0.056 A 
BRANCH  18  24
HETATM   24  O   UNL     1     -46.285  62.776 -51.793  1.00  0.00    -0.354 OA
HETATM   25  C   UNL     1     -47.219  63.243 -50.824  1.00  0.00     0.210 C 
ENDBRANCH  18  24
ENDBRANCH  14  17
ENDBRANCH  12  13
ENDBRANCH  11  12
ENDBRANCH   4  11
BRANCH   8  26
HETATM   26  C   UNL     1     -41.773  56.004 -52.258  1.00  0.00    -0.044 A 
HETATM   27  C   UNL     1     -41.069  55.510 -51.146  1.00  0.00     0.008 A 
HETATM   28  C   UNL     1     -41.731  55.235 -49.949  1.00  0.00     0.001 A 
HETATM   29  C   UNL     1     -43.106  55.434 -49.849  1.00  0.00     0.000 A 
HETATM   30  C   UNL     1     -43.821  55.902 -50.948  1.00  0.00     0.001 A 
HETATM   31  C   UNL     1     -43.162  56.185 -52.145  1.00  0.00     0.008 A 
ENDBRANCH   8  26
BRANCH   9  32
HETATM   32  C   UNL     1     -40.857  54.042 -54.861  1.00  0.00     0.255 C 
HETATM   33  N   UNL     1     -41.229  53.114 -53.913  1.00  0.00    -0.323 N 
HETATM   34  H   UNL     1     -42.006  53.337 -53.306  1.00  0.00     0.169 HD
HETATM   35  O   UNL     1     -39.997  53.883 -55.720  1.00  0.00    -0.268 OA
BRANCH  33  36
HETATM   36  C   UNL     1     -40.609  51.873 -53.643  1.00  0.00     0.035 A 
HETATM   37  C   UNL     1     -40.495  50.833 -54.567  1.00  0.00     0.029 A 
HETATM   38  C   UNL     1     -39.828  49.651 -54.229  1.00  0.00     0.002 A 
HETATM   39  C   UNL     1     -39.261  49.501 -52.967  1.00  0.00     0.000 A 
HETATM   40  C   UNL     1     -39.371  50.530 -52.035  1.00  0.00     0.002 A 
HETATM   41  C   UNL     1     -40.048  51.706 -52.370  1.00  0.00     0.029 A 
ENDBRANCH  33  36
ENDBRANCH   9  32
TORSDOF 8
ENDMDL
MODEL 9
REMARK VINA RESULT:      -7.8      5.712      9.029
REMARK  8 active torsions:
REMARK  status: ('A' for Active; 'I' for Inactive)
REMARK    1  A    between atoms: C_4  and  S_5 
REMARK    2  A    between atoms: S_5  and  C_6 
REMARK    3  A    between atoms: C_6  and  C_7 
REMARK       I    between atoms: C_7  and  N_8 
REMARK    4  A    between atoms: N_8  and  C_9 
REMARK    5  A    between atoms: C_10  and  O_11 
REMARK    6  A    between atoms: C_22  and  C_23 
REMARK    7  A    between atoms: C_29  and  C_30 
REMARK       I    between atoms: C_30  and  N_31 
REMARK    8  A    between atoms: N_31  and  C_32 
ROOT
HETATM    1  C   UNL     1     -45.510  60.029 -54.215  1.00  0.00     0.069 C 
HETATM    2  C   UNL     1     -44.283  59.531 -53.492  1.00  0.00     0.019 C 
HETATM    3  N   UNL     1     -44.224  59.817 -52.135  1.00  0.00    -0.353 N 
HETATM    4  C   UNL     1     -43.055  59.768 -51.391  1.00  0.00     0.088 C 
HETATM    5  C   UNL     1     -42.004  59.052 -51.856  1.00  0.00     0.069 C 
HETATM    6  C   UNL     1     -40.747  58.971 -51.186  1.00  0.00     0.099 C 
HETATM    7  N   UNL     1     -39.695  58.889 -50.703  1.00  0.00    -0.192 NA
HETATM    8  C   UNL     1     -42.103  58.350 -53.212  1.00  0.00     0.106 C 
HETATM    9  C   UNL     1     -43.259  58.859 -54.074  1.00  0.00     0.046 C 
HETATM   10  H   UNL     1     -44.935  60.444 -51.765  1.00  0.00     0.166 HD
ENDROOT
BRANCH   4  11
HETATM   11  S   UNL     1     -42.917  60.740 -49.931  1.00  0.00    -0.102 SA
BRANCH  11  12
HETATM   12  C   UNL     1     -44.668  61.218 -49.822  1.00  0.00     0.184 C 
BRANCH  12  13
HETATM   13  C   UNL     1     -45.548  60.122 -49.252  1.00  0.00     0.231 C 
HETATM   14  N   UNL     1     -45.745  60.070 -47.896  1.00  0.00    -0.324 N 
HETATM   15  H   UNL     1     -45.922  59.133 -47.545  1.00  0.00     0.169 HD
HETATM   16  O   UNL     1     -45.944  59.186 -49.949  1.00  0.00    -0.272 OA
BRANCH  14  17
HETATM   17  C   UNL     1     -45.670  61.084 -46.925  1.00  0.00     0.070 A 
HETATM   18  C   UNL     1     -46.497  62.212 -47.076  1.00  0.00     0.095 A 
HETATM   19  C   UNL     1     -46.405  63.268 -46.165  1.00  0.00     0.041 A 
HETATM   20  C   UNL     1     -45.497  63.200 -45.106  1.00  0.00     0.026 A 
HETATM   21  C   UNL     1     -44.676  62.085 -44.967  1.00  0.00     0.036 A 
HETATM   22 CL   UNL     1     -43.535  62.017 -43.680  1.00  0.00    -0.084 Cl
HETATM   23  C   UNL     1     -44.752  61.030 -45.873  1.00  0.00     0.056 A 
BRANCH  18  24
HETATM   24  O   UNL     1     -47.364  62.192 -48.142  1.00  0.00    -0.354 OA
HETATM   25  C   UNL     1     -47.863  63.464 -48.549  1.00  0.00     0.210 C 
ENDBRANCH  18  24
ENDBRANCH  14  17
ENDBRANCH  12  13
ENDBRANCH  11  12
ENDBRANCH   4  11
BRANCH   8  26
HETATM   26  C   UNL     1     -42.126  56.829 -53.026  1.00  0.00    -0.044 A 
HETATM   27  C   UNL     1     -43.126  56.192 -52.271  1.00  0.00     0.008 A 
HETATM   28  C   UNL     1     -43.124  54.805 -52.115  1.00  0.00     0.001 A 
HETATM   29  C   UNL     1     -42.116  54.038 -52.694  1.00  0.00     0.000 A 
HETATM   30  C   UNL     1     -41.106  54.657 -53.426  1.00  0.00     0.001 A 
HETATM   31  C   UNL     1     -41.108  56.042 -53.591  1.00  0.00     0.008 A 
ENDBRANCH   8  26
BRANCH   9  32
HETATM   32  C   UNL     1     -43.116  58.830 -55.570  1.00  0.00     0.255 C 
HETATM   33  N   UNL     1     -43.826  57.830 -56.199  1.00  0.00    -0.323 N 
HETATM   34  H   UNL     1     -44.493  57.303 -55.652  1.00  0.00     0.169 HD
HETATM   35  O   UNL     1     -42.340  59.609 -56.115  1.00  0.00    -0.268 OA
BRANCH  33  36
HETATM   36  C   UNL     1     -43.697  57.404 -57.540  1.00  0.00     0.035 A 
HETATM   37  C   UNL     1     -42.986  56.272 -57.941  1.00  0.00     0.029 A 
HETATM   38  C   UNL     1     -42.944  55.898 -59.289  1.00  0.00     0.002 A 
HETATM   39  C   UNL     1     -43.619  56.650 -60.247  1.00  0.00     0.000 A 
HETATM   40  C   UNL     1     -44.327  57.784 -59.860  1.00  0.00     0.002 A 
HETATM   41  C   UNL     1     -44.360  58.163 -58.514  1.00  0.00     0.029 A 
ENDBRANCH  33  36
ENDBRANCH   9  32
TORSDOF 8
ENDMDL
MODEL 10
REMARK VINA RESULT:      -7.8      4.119      7.337
REMARK  8 active torsions:
REMARK  status: ('A' for Active; 'I' for Inactive)
REMARK    1  A    between atoms: C_4  and  S_5 
REMARK    2  A    between atoms: S_5  and  C_6 
REMARK    3  A    between atoms: C_6  and  C_7 
REMARK       I    between atoms: C_7  and  N_8 
REMARK    4  A    between atoms: N_8  and  C_9 
REMARK    5  A    between atoms: C_10  and  O_11 
REMARK    6  A    between atoms: C_22  and  C_23 
REMARK    7  A    between atoms: C_29  and  C_30 
REMARK       I    between atoms: C_30  and  N_31 
REMARK    8  A    between atoms: N_31  and  C_32 
ROOT
HETATM    1  C   UNL     1     -41.740  59.908 -53.954  1.00  0.00     0.069 C 
HETATM    2  C   UNL     1     -42.769  59.418 -54.943  1.00  0.00     0.019 C 
HETATM    3  N   UNL     1     -43.585  60.394 -55.500  1.00  0.00    -0.353 N 
HETATM    4  C   UNL     1     -44.789  60.119 -56.130  1.00  0.00     0.088 C 
HETATM    5  C   UNL     1     -45.026  58.866 -56.586  1.00  0.00     0.069 C 
HETATM    6  C   UNL     1     -46.247  58.474 -57.212  1.00  0.00     0.099 C 
HETATM    7  N   UNL     1     -47.225  58.087 -57.702  1.00  0.00    -0.192 NA
HETATM    8  C   UNL     1     -43.989  57.765 -56.359  1.00  0.00     0.106 C 
HETATM    9  C   UNL     1     -42.952  58.120 -55.292  1.00  0.00     0.046 C 
HETATM   10  H   UNL     1     -43.516  61.330 -55.108  1.00  0.00     0.166 HD
ENDROOT
BRANCH   4  11
HETATM   11  S   UNL     1     -46.030  61.363 -56.205  1.00  0.00    -0.102 SA
BRANCH  11  12
HETATM   12  C   UNL     1     -45.620  62.173 -54.629  1.00  0.00     0.184 C 
BRANCH  12  13
HETATM   13  C   UNL     1     -46.671  61.953 -53.558  1.00  0.00     0.231 C 
HETATM   14  N   UNL     1     -46.288  61.414 -52.357  1.00  0.00    -0.324 N 
HETATM   15  H   UNL     1     -47.022  60.884 -51.895  1.00  0.00     0.169 HD
HETATM   16  O   UNL     1     -47.872  62.085 -53.797  1.00  0.00    -0.272 OA
BRANCH  14  17
HETATM   17  C   UNL     1     -45.039  61.418 -51.713  1.00  0.00     0.070 A 
HETATM   18  C   UNL     1     -44.379  60.189 -51.532  1.00  0.00     0.095 A 
HETATM   19  C   UNL     1     -43.166  60.146 -50.839  1.00  0.00     0.041 A 
HETATM   20  C   UNL     1     -42.608  61.323 -50.332  1.00  0.00     0.026 A 
HETATM   21  C   UNL     1     -43.270  62.535 -50.507  1.00  0.00     0.036 A 
HETATM   22 CL   UNL     1     -42.599  63.979 -49.854  1.00  0.00    -0.084 Cl
HETATM   23  C   UNL     1     -44.484  62.589 -51.188  1.00  0.00     0.056 A 
BRANCH  18  24
HETATM   24  O   UNL     1     -44.996  59.083 -52.067  1.00  0.00    -0.354 OA
HETATM   25  C   UNL     1     -45.382  58.083 -51.128  1.00  0.00     0.210 C 
ENDBRANCH  18  24
ENDBRANCH  14  17
ENDBRANCH  12  13
ENDBRANCH  11  12
ENDBRANCH   4  11
BRANCH   8  26
HETATM   26  C   UNL     1     -43.352  57.349 -57.690  1.00  0.00    -0.044 A 
HETATM   27  C   UNL     1     -43.557  56.072 -58.240  1.00  0.00     0.008 A 
HETATM   28  C   UNL     1     -42.964  55.716 -59.452  1.00  0.00     0.001 A 
HETATM   29  C   UNL     1     -42.145  56.621 -60.122  1.00  0.00     0.000 A 
HETATM   30  C   UNL     1     -41.915  57.883 -59.580  1.00  0.00     0.001 A 
HETATM   31  C   UNL     1     -42.511  58.246 -58.371  1.00  0.00     0.008 A 
ENDBRANCH   8  26
BRANCH   9  32
HETATM   32  C   UNL     1     -42.342  57.016 -54.476  1.00  0.00     0.255 C 
HETATM   33  N   UNL     1     -42.989  56.751 -53.288  1.00  0.00    -0.323 N 
HETATM   34  H   UNL     1     -43.886  57.189 -53.126  1.00  0.00     0.169 HD
HETATM   35  O   UNL     1     -41.297  56.496 -54.853  1.00  0.00    -0.268 OA
BRANCH  33  36
HETATM   36  C   UNL     1     -42.518  55.958 -52.217  1.00  0.00     0.035 A 
HETATM   37  C   UNL     1     -42.637  54.569 -52.155  1.00  0.00     0.029 A 
HETATM   38  C   UNL     1     -42.105  53.857 -51.074  1.00  0.00     0.002 A 
HETATM   39  C   UNL     1     -41.443  54.528 -50.050  1.00  0.00     0.000 A 
HETATM   40  C   UNL     1     -41.321  55.914 -50.098  1.00  0.00     0.002 A 
HETATM   41  C   UNL     1     -41.863  56.626 -51.173  1.00  0.00     0.029 A 
ENDBRANCH  33  36
ENDBRANCH   9  32
TORSDOF 8
ENDMDL
