MODEL 1
REMARK VINA RESULT:      -9.0      0.000      0.000
REMARK  8 active torsions:
REMARK  status: ('A' for Active; 'I' for Inactive)
REMARK    1  A    between atoms: C_6  and  N_7 
REMARK    2  A    between atoms: C_6  and  C_26 
REMARK       I    between atoms: N_7  and  C_8 
REMARK    3  A    between atoms: N_7  and  C_23 
REMARK    4  A    between atoms: C_8  and  C_9 
REMARK    5  A    between atoms: C_9  and  N_10 
REMARK    6  A    between atoms: C_14  and  C_15 
REMARK       I    between atoms: C_26  and  N_27 
REMARK    7  A    between atoms: N_27  and  C_28 
REMARK    8  A    between atoms: C_31  and  N_32 
ROOT
HETATM    1  C   UNL     1     -46.766  61.453 -52.021  1.00  0.00     0.269 C 
HETATM    2  N   UNL     1     -45.451  60.769 -51.740  1.00  0.00    -0.075 N 
HETATM    3  H   UNL     1     -44.979  61.354 -51.031  1.00  0.00     0.279 HD
HETATM    4  C   UNL     1     -45.668  59.398 -51.155  1.00  0.00     0.237 C 
HETATM    5  C   UNL     1     -44.340  58.698 -50.870  1.00  0.00     0.069 C 
HETATM    6  C   UNL     1     -43.332  58.720 -52.045  1.00  0.00     0.120 C 
HETATM    7  C   UNL     1     -43.231  60.162 -52.597  1.00  0.00     0.069 C 
HETATM    8  C   UNL     1     -44.583  60.752 -52.973  1.00  0.00     0.237 C 
ENDROOT
BRANCH   6   9
HETATM    9  N   UNL     1     -41.994  58.142 -51.616  1.00  0.00    -0.328 N 
HETATM   10  C   UNL     1     -41.653  56.812 -51.326  1.00  0.00     0.239 C 
HETATM   11  O   UNL     1     -40.620  56.562 -50.688  1.00  0.00    -0.271 OA
BRANCH  10  12
HETATM   12  C   UNL     1     -42.541  55.634 -51.734  1.00  0.00     0.228 C 
BRANCH  12  13
HETATM   13  N   UNL     1     -41.960  54.781 -52.769  1.00  0.00    -0.347 N 
HETATM   14  C   UNL     1     -42.591  54.347 -53.939  1.00  0.00     0.171 C 
HETATM   15  S   UNL     1     -44.196  54.422 -54.341  1.00  0.00    -0.041 SA
HETATM   16  N   UNL     1     -41.635  53.750 -54.740  1.00  0.00    -0.357 N 
HETATM   17  C   UNL     1     -40.361  53.624 -54.058  1.00  0.00     0.135 C 
HETATM   18  H   UNL     1     -41.847  53.342 -55.643  1.00  0.00     0.162 HD
HETATM   19  C   UNL     1     -40.513  54.682 -52.947  1.00  0.00     0.155 C 
BRANCH  17  20
HETATM   20  C   UNL     1     -40.119  52.218 -53.515  1.00  0.00    -0.034 A 
HETATM   21  C   UNL     1     -40.146  51.075 -54.333  1.00  0.00     0.009 A 
HETATM   22  C   UNL     1     -39.888  49.805 -53.809  1.00  0.00     0.001 A 
HETATM   23  C   UNL     1     -39.591  49.652 -52.458  1.00  0.00     0.000 A 
HETATM   24  C   UNL     1     -39.539  50.771 -51.633  1.00  0.00     0.001 A 
HETATM   25  C   UNL     1     -39.788  52.041 -52.158  1.00  0.00     0.009 A 
ENDBRANCH  17  20
ENDBRANCH  12  13
ENDBRANCH  10  12
BRANCH   9  26
HETATM   26  C   UNL     1     -40.840  59.054 -51.583  1.00  0.00     0.088 A 
HETATM   27  C   UNL     1     -40.678  59.975 -50.392  1.00  0.00     0.027 A 
HETATM   28  C   UNL     1     -39.629  58.954 -50.690  1.00  0.00     0.027 A 
ENDBRANCH   9  26
ENDBRANCH   6   9
BRANCH   6  29
HETATM   29  C   UNL     1     -43.892  57.921 -53.278  1.00  0.00     0.251 C 
HETATM   30  N   UNL     1     -43.163  58.119 -54.441  1.00  0.00    -0.325 N 
HETATM   31  H   UNL     1     -42.211  58.457 -54.336  1.00  0.00     0.169 HD
HETATM   32  O   UNL     1     -44.994  57.382 -53.212  1.00  0.00    -0.270 OA
BRANCH  30  33
HETATM   33  C   UNL     1     -43.616  57.954 -55.766  1.00  0.00     0.034 A 
HETATM   34  C   UNL     1     -44.603  58.735 -56.355  1.00  0.00     0.032 A 
HETATM   35  C   UNL     1     -44.932  58.566 -57.708  1.00  0.00     0.031 A 
HETATM   36  C   UNL     1     -44.289  57.626 -58.527  1.00  0.00     0.030 A 
HETATM   37  C   UNL     1     -43.328  56.822 -57.903  1.00  0.00     0.031 A 
HETATM   38  C   UNL     1     -42.990  56.983 -56.549  1.00  0.00     0.032 A 
BRANCH  36  39
HETATM   39  N   UNL     1     -44.656  57.496 -59.863  1.00  0.00    -0.377 N 
HETATM   40  C   UNL     1     -44.081  56.369 -60.638  1.00  0.00     0.149 C 
HETATM   41  C   UNL     1     -45.037  55.164 -60.603  1.00  0.00     0.187 C 
HETATM   42  O   UNL     1     -46.343  55.507 -61.094  1.00  0.00    -0.388 OA
HETATM   43  C   UNL     1     -46.913  56.575 -60.320  1.00  0.00     0.187 C 
HETATM   44  C   UNL     1     -46.018  57.825 -60.332  1.00  0.00     0.149 C 
ENDBRANCH  36  39
ENDBRANCH  30  33
ENDBRANCH   6  29
TORSDOF 8
ENDMDL
MODEL 2
REMARK VINA RESULT:      -8.9      2.383      6.140
REMARK  8 active torsions:
REMARK  status: ('A' for Active; 'I' for Inactive)
REMARK    1  A    between atoms: C_6  and  N_7 
REMARK    2  A    between atoms: C_6  and  C_26 
REMARK       I    between atoms: N_7  and  C_8 
REMARK    3  A    between atoms: N_7  and  C_23 
REMARK    4  A    between atoms: C_8  and  C_9 
REMARK    5  A    between atoms: C_9  and  N_10 
REMARK    6  A    between atoms: C_14  and  C_15 
REMARK       I    between atoms: C_26  and  N_27 
REMARK    7  A    between atoms: N_27  and  C_28 
REMARK    8  A    between atoms: C_31  and  N_32 
ROOT
HETATM    1  C   UNL     1     -44.171  58.360 -57.477  1.00  0.00     0.269 C 
HETATM    2  N   UNL     1     -43.756  57.869 -56.112  1.00  0.00    -0.075 N 
HETATM    3  H   UNL     1     -43.607  56.851 -56.216  1.00  0.00     0.279 HD
HETATM    4  C   UNL     1     -42.453  58.495 -55.686  1.00  0.00     0.237 C 
HETATM    5  C   UNL     1     -42.027  58.004 -54.303  1.00  0.00     0.069 C 
HETATM    6  C   UNL     1     -43.133  58.072 -53.223  1.00  0.00     0.120 C 
HETATM    7  C   UNL     1     -44.431  57.450 -53.790  1.00  0.00     0.069 C 
HETATM    8  C   UNL     1     -44.863  58.073 -55.110  1.00  0.00     0.237 C 
ENDROOT
BRANCH   6   9
HETATM    9  N   UNL     1     -42.664  57.422 -51.932  1.00  0.00    -0.328 N 
HETATM   10  C   UNL     1     -42.847  56.105 -51.484  1.00  0.00     0.239 C 
HETATM   11  O   UNL     1     -42.686  55.830 -50.286  1.00  0.00    -0.271 OA
BRANCH  10  12
HETATM   12  C   UNL     1     -43.290  54.978 -52.420  1.00  0.00     0.228 C 
BRANCH  12  13
HETATM   13  N   UNL     1     -42.196  54.366 -53.174  1.00  0.00    -0.347 N 
HETATM   14  C   UNL     1     -42.160  54.145 -54.554  1.00  0.00     0.171 C 
HETATM   15  S   UNL     1     -43.397  54.234 -55.652  1.00  0.00    -0.041 SA
HETATM   16  N   UNL     1     -40.876  53.754 -54.888  1.00  0.00    -0.357 N 
HETATM   17  C   UNL     1     -40.051  53.548 -53.712  1.00  0.00     0.135 C 
HETATM   18  H   UNL     1     -40.597  53.522 -55.833  1.00  0.00     0.162 HD
HETATM   19  C   UNL     1     -40.829  54.361 -52.658  1.00  0.00     0.155 C 
BRANCH  17  20
HETATM   20  C   UNL     1     -39.910  52.073 -53.342  1.00  0.00    -0.034 A 
HETATM   21  C   UNL     1     -39.959  51.045 -54.300  1.00  0.00     0.009 A 
HETATM   22  C   UNL     1     -39.792  49.706 -53.931  1.00  0.00     0.001 A 
HETATM   23  C   UNL     1     -39.568  49.369 -52.600  1.00  0.00     0.000 A 
HETATM   24  C   UNL     1     -39.496  50.372 -51.638  1.00  0.00     0.001 A 
HETATM   25  C   UNL     1     -39.653  51.710 -52.006  1.00  0.00     0.009 A 
ENDBRANCH  17  20
ENDBRANCH  12  13
ENDBRANCH  10  12
BRANCH   9  26
HETATM   26  C   UNL     1     -41.807  58.221 -51.041  1.00  0.00     0.088 A 
HETATM   27  C   UNL     1     -40.343  57.853 -50.922  1.00  0.00     0.027 A 
HETATM   28  C   UNL     1     -40.733  59.195 -51.449  1.00  0.00     0.027 A 
ENDBRANCH   9  26
ENDBRANCH   6   9
BRANCH   6  29
HETATM   29  C   UNL     1     -43.558  59.561 -52.950  1.00  0.00     0.251 C 
HETATM   30  N   UNL     1     -44.597  59.681 -52.039  1.00  0.00    -0.325 N 
HETATM   31  H   UNL     1     -44.755  58.895 -51.415  1.00  0.00     0.169 HD
HETATM   32  O   UNL     1     -43.137  60.462 -53.671  1.00  0.00    -0.270 OA
BRANCH  30  33
HETATM   33  C   UNL     1     -45.500  60.757 -51.917  1.00  0.00     0.034 A 
HETATM   34  C   UNL     1     -46.609  60.941 -52.735  1.00  0.00     0.032 A 
HETATM   35  C   UNL     1     -47.510  61.987 -52.489  1.00  0.00     0.031 A 
HETATM   36  C   UNL     1     -47.352  62.880 -51.419  1.00  0.00     0.030 A 
HETATM   37  C   UNL     1     -46.206  62.702 -50.633  1.00  0.00     0.031 A 
HETATM   38  C   UNL     1     -45.298  61.657 -50.870  1.00  0.00     0.032 A 
BRANCH  36  39
HETATM   39  N   UNL     1     -48.273  63.903 -51.221  1.00  0.00    -0.377 N 
HETATM   40  C   UNL     1     -49.424  63.996 -52.153  1.00  0.00     0.149 C 
HETATM   41  C   UNL     1     -50.634  63.244 -51.573  1.00  0.00     0.187 C 
HETATM   42  O   UNL     1     -50.992  63.737 -50.272  1.00  0.00    -0.388 OA
HETATM   43  C   UNL     1     -49.887  63.614 -49.360  1.00  0.00     0.187 C 
HETATM   44  C   UNL     1     -48.647  64.366 -49.868  1.00  0.00     0.149 C 
ENDBRANCH  36  39
ENDBRANCH  30  33
ENDBRANCH   6  29
TORSDOF 8
ENDMDL
MODEL 3
REMARK VINA RESULT:      -8.8      1.719      2.135
REMARK  8 active torsions:
REMARK  status: ('A' for Active; 'I' for Inactive)
REMARK    1  A    between atoms: C_6  and  N_7 
REMARK    2  A    between atoms: C_6  and  C_26 
REMARK       I    between atoms: N_7  and  C_8 
REMARK    3  A    between atoms: N_7  and  C_23 
REMARK    4  A    between atoms: C_8  and  C_9 
REMARK    5  A    between atoms: C_9  and  N_10 
REMARK    6  A    between atoms: C_14  and  C_15 
REMARK       I    between atoms: C_26  and  N_27 
REMARK    7  A    between atoms: N_27  and  C_28 
REMARK    8  A    between atoms: C_31  and  N_32 
ROOT
HETATM    1  C   UNL     1     -46.634  61.292 -51.749  1.00  0.00     0.269 C 
HETATM    2  N   UNL     1     -45.484  60.440 -51.270  1.00  0.00    -0.075 N 
HETATM    3  H   UNL     1     -45.295  60.748 -50.302  1.00  0.00     0.279 HD
HETATM    4  C   UNL     1     -45.869  58.984 -51.236  1.00  0.00     0.237 C 
HETATM    5  C   UNL     1     -44.708  58.114 -50.754  1.00  0.00     0.069 C 
HETATM    6  C   UNL     1     -43.359  58.384 -51.461  1.00  0.00     0.120 C 
HETATM    7  C   UNL     1     -43.097  59.909 -51.483  1.00  0.00     0.069 C 
HETATM    8  C   UNL     1     -44.246  60.703 -52.089  1.00  0.00     0.237 C 
ENDROOT
BRANCH   6   9
HETATM    9  N   UNL     1     -42.241  57.588 -50.810  1.00  0.00    -0.328 N 
HETATM   10  C   UNL     1     -42.071  56.198 -50.731  1.00  0.00     0.239 C 
HETATM   11  O   UNL     1     -41.289  55.716 -49.899  1.00  0.00    -0.271 OA
BRANCH  10  12
HETATM   12  C   UNL     1     -42.857  55.227 -51.616  1.00  0.00     0.228 C 
BRANCH  12  13
HETATM   13  N   UNL     1     -42.049  54.573 -52.645  1.00  0.00    -0.347 N 
HETATM   14  C   UNL     1     -42.430  54.326 -53.967  1.00  0.00     0.171 C 
HETATM   15  S   UNL     1     -43.936  54.430 -54.650  1.00  0.00    -0.041 SA
HETATM   16  N   UNL     1     -41.312  53.894 -54.657  1.00  0.00    -0.357 N 
HETATM   17  C   UNL     1     -40.180  53.686 -53.775  1.00  0.00     0.135 C 
HETATM   18  H   UNL     1     -41.332  53.638 -55.637  1.00  0.00     0.162 HD
HETATM   19  C   UNL     1     -40.591  54.539 -52.558  1.00  0.00     0.155 C 
BRANCH  17  20
HETATM   20  C   UNL     1     -39.966  52.215 -53.427  1.00  0.00    -0.034 A 
HETATM   21  C   UNL     1     -39.629  51.785 -52.132  1.00  0.00     0.009 A 
HETATM   22  C   UNL     1     -39.473  50.427 -51.839  1.00  0.00     0.001 A 
HETATM   23  C   UNL     1     -39.657  49.471 -52.833  1.00  0.00     0.000 A 
HETATM   24  C   UNL     1     -40.011  49.872 -54.118  1.00  0.00     0.001 A 
HETATM   25  C   UNL     1     -40.175  51.227 -54.409  1.00  0.00     0.009 A 
ENDBRANCH  17  20
ENDBRANCH  12  13
ENDBRANCH  10  12
BRANCH   9  26
HETATM   26  C   UNL     1     -41.103  58.341 -50.258  1.00  0.00     0.088 A 
HETATM   27  C   UNL     1     -39.879  58.544 -51.126  1.00  0.00     0.027 A 
HETATM   28  C   UNL     1     -40.657  59.727 -50.648  1.00  0.00     0.027 A 
ENDBRANCH   9  26
ENDBRANCH   6   9
BRANCH   6  29
HETATM   29  C   UNL     1     -43.449  58.032 -52.991  1.00  0.00     0.251 C 
HETATM   30  N   UNL     1     -42.352  58.464 -53.723  1.00  0.00    -0.325 N 
HETATM   31  H   UNL     1     -41.498  58.648 -53.205  1.00  0.00     0.169 HD
HETATM   32  O   UNL     1     -44.506  57.625 -53.467  1.00  0.00    -0.270 OA
BRANCH  30  33
HETATM   33  C   UNL     1     -42.305  58.729 -55.107  1.00  0.00     0.034 A 
HETATM   34  C   UNL     1     -42.067  59.985 -55.652  1.00  0.00     0.032 A 
HETATM   35  C   UNL     1     -41.945  60.148 -57.039  1.00  0.00     0.031 A 
HETATM   36  C   UNL     1     -42.043  59.073 -57.935  1.00  0.00     0.030 A 
HETATM   37  C   UNL     1     -42.324  57.824 -57.367  1.00  0.00     0.031 A 
HETATM   38  C   UNL     1     -42.447  57.649 -55.979  1.00  0.00     0.032 A 
BRANCH  36  39
HETATM   39  N   UNL     1     -41.917  59.289 -59.303  1.00  0.00    -0.377 N 
HETATM   40  C   UNL     1     -42.479  58.272 -60.225  1.00  0.00     0.149 C 
HETATM   41  C   UNL     1     -43.911  58.661 -60.631  1.00  0.00     0.187 C 
HETATM   42  O   UNL     1     -43.957  59.968 -61.226  1.00  0.00    -0.388 OA
HETATM   43  C   UNL     1     -43.446  60.958 -60.318  1.00  0.00     0.187 C 
HETATM   44  C   UNL     1     -42.004  60.643 -59.889  1.00  0.00     0.149 C 
ENDBRANCH  36  39
ENDBRANCH  30  33
ENDBRANCH   6  29
TORSDOF 8
ENDMDL
MODEL 4
REMARK VINA RESULT:      -8.3      2.503      6.905
REMARK  8 active torsions:
REMARK  status: ('A' for Active; 'I' for Inactive)
REMARK    1  A    between atoms: C_6  and  N_7 
REMARK    2  A    between atoms: C_6  and  C_26 
REMARK       I    between atoms: N_7  and  C_8 
REMARK    3  A    between atoms: N_7  and  C_23 
REMARK    4  A    between atoms: C_8  and  C_9 
REMARK    5  A    between atoms: C_9  and  N_10 
REMARK    6  A    between atoms: C_14  and  C_15 
REMARK       I    between atoms: C_26  and  N_27 
REMARK    7  A    between atoms: N_27  and  C_28 
REMARK    8  A    between atoms: C_31  and  N_32 
ROOT
HETATM    1  C   UNL     1     -46.654  61.363 -58.845  1.00  0.00     0.269 C 
HETATM    2  N   UNL     1     -45.888  60.074 -58.672  1.00  0.00    -0.075 N 
HETATM    3  H   UNL     1     -46.151  59.485 -59.479  1.00  0.00     0.279 HD
HETATM    4  C   UNL     1     -44.402  60.317 -58.727  1.00  0.00     0.237 C 
HETATM    5  C   UNL     1     -43.620  59.016 -58.551  1.00  0.00     0.069 C 
HETATM    6  C   UNL     1     -44.065  58.152 -57.346  1.00  0.00     0.120 C 
HETATM    7  C   UNL     1     -45.606  58.016 -57.364  1.00  0.00     0.069 C 
HETATM    8  C   UNL     1     -46.322  59.358 -57.418  1.00  0.00     0.237 C 
ENDROOT
BRANCH   6   9
HETATM    9  N   UNL     1     -43.340  56.816 -57.346  1.00  0.00    -0.328 N 
HETATM   10  C   UNL     1     -43.006  55.987 -56.265  1.00  0.00     0.239 C 
HETATM   11  O   UNL     1     -42.144  55.107 -56.403  1.00  0.00    -0.271 OA
BRANCH  10  12
HETATM   12  C   UNL     1     -43.638  56.155 -54.881  1.00  0.00     0.228 C 
BRANCH  12  13
HETATM   13  N   UNL     1     -42.802  55.672 -53.783  1.00  0.00    -0.347 N 
HETATM   14  C   UNL     1     -41.817  56.399 -53.107  1.00  0.00     0.171 C 
HETATM   15  S   UNL     1     -41.134  57.851 -53.518  1.00  0.00    -0.041 SA
HETATM   16  N   UNL     1     -41.422  55.659 -52.008  1.00  0.00    -0.357 N 
HETATM   17  C   UNL     1     -42.020  54.337 -52.004  1.00  0.00     0.135 C 
HETATM   18  H   UNL     1     -40.706  55.968 -51.362  1.00  0.00     0.162 HD
HETATM   19  C   UNL     1     -43.224  54.553 -52.944  1.00  0.00     0.155 C 
BRANCH  17  20
HETATM   20  C   UNL     1     -41.063  53.256 -52.500  1.00  0.00    -0.034 A 
HETATM   21  C   UNL     1     -40.172  52.584 -51.645  1.00  0.00     0.009 A 
HETATM   22  C   UNL     1     -39.332  51.575 -52.125  1.00  0.00     0.001 A 
HETATM   23  C   UNL     1     -39.370  51.212 -53.467  1.00  0.00     0.000 A 
HETATM   24  C   UNL     1     -40.258  51.849 -54.329  1.00  0.00     0.001 A 
HETATM   25  C   UNL     1     -41.104  52.851 -53.848  1.00  0.00     0.009 A 
ENDBRANCH  17  20
ENDBRANCH  12  13
ENDBRANCH  10  12
BRANCH   9  26
HETATM   26  C   UNL     1     -43.013  56.222 -58.652  1.00  0.00     0.088 A 
HETATM   27  C   UNL     1     -43.934  55.161 -59.217  1.00  0.00     0.027 A 
HETATM   28  C   UNL     1     -43.734  56.443 -59.957  1.00  0.00     0.027 A 
ENDBRANCH   9  26
ENDBRANCH   6   9
BRANCH   6  29
HETATM   29  C   UNL     1     -43.804  58.904 -55.991  1.00  0.00     0.251 C 
HETATM   30  N   UNL     1     -44.774  58.660 -55.029  1.00  0.00    -0.325 N 
HETATM   31  H   UNL     1     -45.336  57.822 -55.144  1.00  0.00     0.169 HD
HETATM   32  O   UNL     1     -42.947  59.781 -55.929  1.00  0.00    -0.270 OA
BRANCH  30  33
HETATM   33  C   UNL     1     -45.106  59.480 -53.930  1.00  0.00     0.034 A 
HETATM   34  C   UNL     1     -45.661  60.748 -54.044  1.00  0.00     0.032 A 
HETATM   35  C   UNL     1     -46.047  61.462 -52.900  1.00  0.00     0.031 A 
HETATM   36  C   UNL     1     -45.908  60.941 -51.605  1.00  0.00     0.030 A 
HETATM   37  C   UNL     1     -45.308  59.679 -51.512  1.00  0.00     0.031 A 
HETATM   38  C   UNL     1     -44.919  58.955 -52.651  1.00  0.00     0.032 A 
BRANCH  36  39
HETATM   39  N   UNL     1     -46.304  61.692 -50.504  1.00  0.00    -0.377 N 
HETATM   40  C   UNL     1     -45.706  61.367 -49.186  1.00  0.00     0.149 C 
HETATM   41  C   UNL     1     -44.475  62.255 -48.931  1.00  0.00     0.187 C 
HETATM   42  O   UNL     1     -44.803  63.652 -49.011  1.00  0.00    -0.388 OA
HETATM   43  C   UNL     1     -45.350  63.973 -50.301  1.00  0.00     0.187 C 
HETATM   44  C   UNL     1     -46.601  63.136 -50.611  1.00  0.00     0.149 C 
ENDBRANCH  36  39
ENDBRANCH  30  33
ENDBRANCH   6  29
TORSDOF 8
ENDMDL
MODEL 5
REMARK VINA RESULT:      -8.2      3.615      6.214
REMARK  8 active torsions:
REMARK  status: ('A' for Active; 'I' for Inactive)
REMARK    1  A    between atoms: C_6  and  N_7 
REMARK    2  A    between atoms: C_6  and  C_26 
REMARK       I    between atoms: N_7  and  C_8 
REMARK    3  A    between atoms: N_7  and  C_23 
REMARK    4  A    between atoms: C_8  and  C_9 
REMARK    5  A    between atoms: C_9  and  N_10 
REMARK    6  A    between atoms: C_14  and  C_15 
REMARK       I    between atoms: C_26  and  N_27 
REMARK    7  A    between atoms: N_27  and  C_28 
REMARK    8  A    between atoms: C_31  and  N_32 
ROOT
HETATM    1  C   UNL     1     -41.622  62.004 -60.335  1.00  0.00     0.269 C 
HETATM    2  N   UNL     1     -41.748  60.570 -59.882  1.00  0.00    -0.075 N 
HETATM    3  H   UNL     1     -40.943  60.075 -60.301  1.00  0.00     0.279 HD
HETATM    4  C   UNL     1     -41.638  60.465 -58.383  1.00  0.00     0.237 C 
HETATM    5  C   UNL     1     -41.767  59.015 -57.918  1.00  0.00     0.069 C 
HETATM    6  C   UNL     1     -42.976  58.250 -58.509  1.00  0.00     0.120 C 
HETATM    7  C   UNL     1     -43.015  58.474 -60.039  1.00  0.00     0.069 C 
HETATM    8  C   UNL     1     -43.008  59.946 -60.427  1.00  0.00     0.237 C 
ENDROOT
BRANCH   6   9
HETATM    9  N   UNL     1     -42.930  56.784 -58.113  1.00  0.00    -0.328 N 
HETATM   10  C   UNL     1     -42.898  56.210 -56.833  1.00  0.00     0.239 C 
HETATM   11  O   UNL     1     -42.540  55.031 -56.691  1.00  0.00    -0.271 OA
BRANCH  10  12
HETATM   12  C   UNL     1     -43.251  57.004 -55.573  1.00  0.00     0.228 C 
BRANCH  12  13
HETATM   13  N   UNL     1     -42.750  56.409 -54.335  1.00  0.00    -0.347 N 
HETATM   14  C   UNL     1     -41.886  57.010 -53.415  1.00  0.00     0.171 C 
HETATM   15  S   UNL     1     -40.984  58.390 -53.586  1.00  0.00    -0.041 SA
HETATM   16  N   UNL     1     -41.836  56.206 -52.291  1.00  0.00    -0.357 N 
HETATM   17  C   UNL     1     -42.545  54.957 -52.489  1.00  0.00     0.135 C 
HETATM   18  H   UNL     1     -41.266  56.422 -51.482  1.00  0.00     0.162 HD
HETATM   19  C   UNL     1     -43.466  55.322 -53.671  1.00  0.00     0.155 C 
BRANCH  17  20
HETATM   20  C   UNL     1     -41.610  53.791 -52.800  1.00  0.00    -0.034 A 
HETATM   21  C   UNL     1     -41.523  53.210 -54.078  1.00  0.00     0.009 A 
HETATM   22  C   UNL     1     -40.631  52.165 -54.337  1.00  0.00     0.001 A 
HETATM   23  C   UNL     1     -39.804  51.684 -53.327  1.00  0.00     0.000 A 
HETATM   24  C   UNL     1     -39.859  52.256 -52.060  1.00  0.00     0.001 A 
HETATM   25  C   UNL     1     -40.743  53.306 -51.802  1.00  0.00     0.009 A 
ENDBRANCH  17  20
ENDBRANCH  12  13
ENDBRANCH  10  12
BRANCH   9  26
HETATM   26  C   UNL     1     -43.031  55.786 -59.190  1.00  0.00     0.088 A 
HETATM   27  C   UNL     1     -44.238  54.871 -59.219  1.00  0.00     0.027 A 
HETATM   28  C   UNL     1     -43.984  55.804 -60.358  1.00  0.00     0.027 A 
ENDBRANCH   9  26
ENDBRANCH   6   9
BRANCH   6  29
HETATM   29  C   UNL     1     -44.331  58.892 -58.035  1.00  0.00     0.251 C 
HETATM   30  N   UNL     1     -45.436  58.424 -58.730  1.00  0.00    -0.325 N 
HETATM   31  H   UNL     1     -45.336  57.533 -59.207  1.00  0.00     0.169 HD
HETATM   32  O   UNL     1     -44.321  59.866 -57.287  1.00  0.00    -0.270 OA
BRANCH  30  33
HETATM   33  C   UNL     1     -46.675  59.077 -58.895  1.00  0.00     0.034 A 
HETATM   34  C   UNL     1     -47.534  59.394 -57.849  1.00  0.00     0.032 A 
HETATM   35  C   UNL     1     -48.706  60.126 -58.087  1.00  0.00     0.031 A 
HETATM   36  C   UNL     1     -49.063  60.580 -59.366  1.00  0.00     0.030 A 
HETATM   37  C   UNL     1     -48.206  60.214 -60.410  1.00  0.00     0.031 A 
HETATM   38  C   UNL     1     -47.028  59.481 -60.182  1.00  0.00     0.032 A 
BRANCH  36  39
HETATM   39  N   UNL     1     -50.239  61.300 -59.548  1.00  0.00    -0.377 N 
HETATM   40  C   UNL     1     -50.855  61.300 -60.898  1.00  0.00     0.149 C 
HETATM   41  C   UNL     1     -51.913  60.187 -60.995  1.00  0.00     0.187 C 
HETATM   42  O   UNL     1     -52.918  60.319 -59.977  1.00  0.00    -0.388 OA
HETATM   43  C   UNL     1     -52.324  60.283 -58.668  1.00  0.00     0.187 C 
HETATM   44  C   UNL     1     -51.271  61.388 -58.493  1.00  0.00     0.149 C 
ENDBRANCH  36  39
ENDBRANCH  30  33
ENDBRANCH   6  29
TORSDOF 8
ENDMDL
MODEL 6
REMARK VINA RESULT:      -8.2      2.872      8.156
REMARK  8 active torsions:
REMARK  status: ('A' for Active; 'I' for Inactive)
REMARK    1  A    between atoms: C_6  and  N_7 
REMARK    2  A    between atoms: C_6  and  C_26 
REMARK       I    between atoms: N_7  and  C_8 
REMARK    3  A    between atoms: N_7  and  C_23 
REMARK    4  A    between atoms: C_8  and  C_9 
REMARK    5  A    between atoms: C_9  and  N_10 
REMARK    6  A    between atoms: C_14  and  C_15 
REMARK       I    between atoms: C_26  and  N_27 
REMARK    7  A    between atoms: N_27  and  C_28 
REMARK    8  A    between atoms: C_31  and  N_32 
ROOT
HETATM    1  C   UNL     1     -45.095  55.085 -61.133  1.00  0.00     0.269 C 
HETATM    2  N   UNL     1     -44.547  56.441 -60.763  1.00  0.00    -0.075 N 
HETATM    3  H   UNL     1     -44.164  56.834 -61.638  1.00  0.00     0.279 HD
HETATM    4  C   UNL     1     -45.644  57.352 -60.276  1.00  0.00     0.237 C 
HETATM    5  C   UNL     1     -45.095  58.728 -59.897  1.00  0.00     0.069 C 
HETATM    6  C   UNL     1     -43.855  58.698 -58.972  1.00  0.00     0.120 C 
HETATM    7  C   UNL     1     -42.825  57.694 -59.541  1.00  0.00     0.069 C 
HETATM    8  C   UNL     1     -43.411  56.309 -59.780  1.00  0.00     0.237 C 
ENDROOT
BRANCH   6   9
HETATM    9  N   UNL     1     -43.294  60.097 -58.780  1.00  0.00    -0.328 N 
HETATM   10  C   UNL     1     -43.872  61.206 -58.145  1.00  0.00     0.239 C 
HETATM   11  O   UNL     1     -43.426  62.343 -58.357  1.00  0.00    -0.271 OA
BRANCH  10  12
HETATM   12  C   UNL     1     -45.083  61.078 -57.219  1.00  0.00     0.228 C 
BRANCH  12  13
HETATM   13  N   UNL     1     -44.754  61.151 -55.796  1.00  0.00    -0.347 N 
HETATM   14  C   UNL     1     -44.371  62.295 -55.090  1.00  0.00     0.171 C 
HETATM   15  S   UNL     1     -43.913  63.774 -55.681  1.00  0.00    -0.041 SA
HETATM   16  N   UNL     1     -44.366  61.981 -53.743  1.00  0.00    -0.357 N 
HETATM   17  C   UNL     1     -44.593  60.567 -53.518  1.00  0.00     0.135 C 
HETATM   18  H   UNL     1     -44.108  62.645 -53.022  1.00  0.00     0.162 HD
HETATM   19  C   UNL     1     -45.253  60.156 -54.849  1.00  0.00     0.155 C 
BRANCH  17  20
HETATM   20  C   UNL     1     -43.304  59.801 -53.230  1.00  0.00    -0.034 A 
HETATM   21  C   UNL     1     -42.134  59.976 -53.990  1.00  0.00     0.009 A 
HETATM   22  C   UNL     1     -40.960  59.283 -53.679  1.00  0.00     0.001 A 
HETATM   23  C   UNL     1     -40.930  58.407 -52.599  1.00  0.00     0.000 A 
HETATM   24  C   UNL     1     -42.070  58.232 -51.820  1.00  0.00     0.001 A 
HETATM   25  C   UNL     1     -43.241  58.931 -52.125  1.00  0.00     0.009 A 
ENDBRANCH  17  20
ENDBRANCH  12  13
ENDBRANCH  10  12
BRANCH   9  26
HETATM   26  C   UNL     1     -41.910  60.339 -59.218  1.00  0.00     0.088 A 
HETATM   27  C   UNL     1     -41.657  60.660 -60.676  1.00  0.00     0.027 A 
HETATM   28  C   UNL     1     -41.303  61.657 -59.622  1.00  0.00     0.027 A 
ENDBRANCH   9  26
ENDBRANCH   6   9
BRANCH   6  29
HETATM   29  C   UNL     1     -44.213  58.066 -57.577  1.00  0.00     0.251 C 
HETATM   30  N   UNL     1     -43.108  57.866 -56.763  1.00  0.00    -0.325 N 
HETATM   31  H   UNL     1     -42.276  58.411 -56.972  1.00  0.00     0.169 HD
HETATM   32  O   UNL     1     -45.334  57.607 -57.379  1.00  0.00    -0.270 OA
BRANCH  30  33
HETATM   33  C   UNL     1     -42.990  56.944 -55.702  1.00  0.00     0.034 A 
HETATM   34  C   UNL     1     -44.014  56.649 -54.809  1.00  0.00     0.032 A 
HETATM   35  C   UNL     1     -43.845  55.652 -53.837  1.00  0.00     0.031 A 
HETATM   36  C   UNL     1     -42.664  54.905 -53.722  1.00  0.00     0.030 A 
HETATM   37  C   UNL     1     -41.632  55.247 -54.605  1.00  0.00     0.031 A 
HETATM   38  C   UNL     1     -41.790  56.243 -55.583  1.00  0.00     0.032 A 
BRANCH  36  39
HETATM   39  N   UNL     1     -42.548  53.929 -52.738  1.00  0.00    -0.377 N 
HETATM   40  C   UNL     1     -41.186  53.466 -52.372  1.00  0.00     0.149 C 
HETATM   41  C   UNL     1     -40.661  54.270 -51.169  1.00  0.00     0.187 C 
HETATM   42  O   UNL     1     -41.549  54.182 -50.043  1.00  0.00    -0.388 OA
HETATM   43  C   UNL     1     -42.858  54.664 -50.389  1.00  0.00     0.187 C 
HETATM   44  C   UNL     1     -43.455  53.885 -51.572  1.00  0.00     0.149 C 
ENDBRANCH  36  39
ENDBRANCH  30  33
ENDBRANCH   6  29
TORSDOF 8
ENDMDL
MODEL 7
REMARK VINA RESULT:      -8.2      2.664      6.846
REMARK  8 active torsions:
REMARK  status: ('A' for Active; 'I' for Inactive)
REMARK    1  A    between atoms: C_6  and  N_7 
REMARK    2  A    between atoms: C_6  and  C_26 
REMARK       I    between atoms: N_7  and  C_8 
REMARK    3  A    between atoms: N_7  and  C_23 
REMARK    4  A    between atoms: C_8  and  C_9 
REMARK    5  A    between atoms: C_9  and  N_10 
REMARK    6  A    between atoms: C_14  and  C_15 
REMARK       I    between atoms: C_26  and  N_27 
REMARK    7  A    between atoms: N_27  and  C_28 
REMARK    8  A    between atoms: C_31  and  N_32 
ROOT
HETATM    1  C   UNL     1     -42.244  62.028 -60.338  1.00  0.00     0.269 C 
HETATM    2  N   UNL     1     -42.196  60.593 -59.874  1.00  0.00    -0.075 N 
HETATM    3  H   UNL     1     -41.465  60.140 -60.447  1.00  0.00     0.279 HD
HETATM    4  C   UNL     1     -41.784  60.506 -58.428  1.00  0.00     0.237 C 
HETATM    5  C   UNL     1     -41.735  59.055 -57.950  1.00  0.00     0.069 C 
HETATM    6  C   UNL     1     -42.992  58.219 -58.289  1.00  0.00     0.120 C 
HETATM    7  C   UNL     1     -43.349  58.428 -59.781  1.00  0.00     0.069 C 
HETATM    8  C   UNL     1     -43.502  59.895 -60.158  1.00  0.00     0.237 C 
ENDROOT
BRANCH   6   9
HETATM    9  N   UNL     1     -42.786  56.762 -57.915  1.00  0.00    -0.328 N 
HETATM   10  C   UNL     1     -42.572  56.191 -56.651  1.00  0.00     0.239 C 
HETATM   11  O   UNL     1     -42.106  55.045 -56.560  1.00  0.00    -0.271 OA
BRANCH  10  12
HETATM   12  C   UNL     1     -42.852  56.952 -55.354  1.00  0.00     0.228 C 
BRANCH  12  13
HETATM   13  N   UNL     1     -42.399  56.260 -54.148  1.00  0.00    -0.347 N 
HETATM   14  C   UNL     1     -41.548  56.774 -53.166  1.00  0.00     0.171 C 
HETATM   15  S   UNL     1     -40.612  58.141 -53.214  1.00  0.00    -0.041 SA
HETATM   16  N   UNL     1     -41.547  55.892 -52.100  1.00  0.00    -0.357 N 
HETATM   17  C   UNL     1     -42.277  54.676 -52.406  1.00  0.00     0.135 C 
HETATM   18  H   UNL     1     -40.995  56.036 -51.264  1.00  0.00     0.162 HD
HETATM   19  C   UNL     1     -43.156  55.146 -53.582  1.00  0.00     0.155 C 
BRANCH  17  20
HETATM   20  C   UNL     1     -41.359  53.514 -52.774  1.00  0.00    -0.034 A 
HETATM   21  C   UNL     1     -41.422  52.864 -54.019  1.00  0.00     0.009 A 
HETATM   22  C   UNL     1     -40.544  51.824 -54.337  1.00  0.00     0.001 A 
HETATM   23  C   UNL     1     -39.581  51.416 -53.420  1.00  0.00     0.000 A 
HETATM   24  C   UNL     1     -39.486  52.057 -52.188  1.00  0.00     0.001 A 
HETATM   25  C   UNL     1     -40.357  53.102 -51.873  1.00  0.00     0.009 A 
ENDBRANCH  17  20
ENDBRANCH  12  13
ENDBRANCH  10  12
BRANCH   9  26
HETATM   26  C   UNL     1     -42.920  55.760 -58.986  1.00  0.00     0.088 A 
HETATM   27  C   UNL     1     -44.184  54.927 -59.044  1.00  0.00     0.027 A 
HETATM   28  C   UNL     1     -43.833  55.828 -60.183  1.00  0.00     0.027 A 
ENDBRANCH   9  26
ENDBRANCH   6   9
BRANCH   6  29
HETATM   29  C   UNL     1     -44.259  58.789 -57.552  1.00  0.00     0.251 C 
HETATM   30  N   UNL     1     -43.959  59.768 -56.616  1.00  0.00    -0.325 N 
HETATM   31  H   UNL     1     -43.067  60.243 -56.717  1.00  0.00     0.169 HD
HETATM   32  O   UNL     1     -45.344  58.225 -57.669  1.00  0.00    -0.270 OA
BRANCH  30  33
HETATM   33  C   UNL     1     -44.736  60.143 -55.500  1.00  0.00     0.034 A 
HETATM   34  C   UNL     1     -44.750  59.454 -54.294  1.00  0.00     0.032 A 
HETATM   35  C   UNL     1     -45.480  59.945 -53.202  1.00  0.00     0.031 A 
HETATM   36  C   UNL     1     -46.212  61.139 -53.262  1.00  0.00     0.030 A 
HETATM   37  C   UNL     1     -46.218  61.795 -54.499  1.00  0.00     0.031 A 
HETATM   38  C   UNL     1     -45.489  61.313 -55.600  1.00  0.00     0.032 A 
BRANCH  36  39
HETATM   39  N   UNL     1     -46.923  61.580 -52.151  1.00  0.00    -0.377 N 
HETATM   40  C   UNL     1     -46.235  61.575 -50.836  1.00  0.00     0.149 C 
HETATM   41  C   UNL     1     -45.604  62.953 -50.565  1.00  0.00     0.187 C 
HETATM   42  O   UNL     1     -46.581  64.005 -50.625  1.00  0.00    -0.388 OA
HETATM   43  C   UNL     1     -47.221  64.031 -51.911  1.00  0.00     0.187 C 
HETATM   44  C   UNL     1     -47.896  62.689 -52.236  1.00  0.00     0.149 C 
ENDBRANCH  36  39
ENDBRANCH  30  33
ENDBRANCH   6  29
TORSDOF 8
ENDMDL
MODEL 8
REMARK VINA RESULT:      -8.1      4.385      6.635
REMARK  8 active torsions:
REMARK  status: ('A' for Active; 'I' for Inactive)
REMARK    1  A    between atoms: C_6  and  N_7 
REMARK    2  A    between atoms: C_6  and  C_26 
REMARK       I    between atoms: N_7  and  C_8 
REMARK    3  A    between atoms: N_7  and  C_23 
REMARK    4  A    between atoms: C_8  and  C_9 
REMARK    5  A    between atoms: C_9  and  N_10 
REMARK    6  A    between atoms: C_14  and  C_15 
REMARK       I    between atoms: C_26  and  N_27 
REMARK    7  A    between atoms: N_27  and  C_28 
REMARK    8  A    between atoms: C_31  and  N_32 
ROOT
HETATM    1  C   UNL     1     -45.088  54.652 -61.011  1.00  0.00     0.269 C 
HETATM    2  N   UNL     1     -45.097  55.407 -59.704  1.00  0.00    -0.075 N 
HETATM    3  H   UNL     1     -45.550  54.776 -59.022  1.00  0.00     0.279 HD
HETATM    4  C   UNL     1     -43.693  55.684 -59.231  1.00  0.00     0.237 C 
HETATM    5  C   UNL     1     -43.694  56.450 -57.909  1.00  0.00     0.069 C 
HETATM    6  C   UNL     1     -44.617  57.692 -57.880  1.00  0.00     0.120 C 
HETATM    7  C   UNL     1     -46.007  57.301 -58.435  1.00  0.00     0.069 C 
HETATM    8  C   UNL     1     -45.939  56.652 -59.811  1.00  0.00     0.237 C 
ENDROOT
BRANCH   6   9
HETATM    9  N   UNL     1     -44.669  58.291 -56.485  1.00  0.00    -0.328 N 
HETATM   10  C   UNL     1     -43.910  57.966 -55.350  1.00  0.00     0.239 C 
HETATM   11  O   UNL     1     -44.295  58.319 -54.226  1.00  0.00    -0.271 OA
BRANCH  10  12
HETATM   12  C   UNL     1     -42.625  57.139 -55.436  1.00  0.00     0.228 C 
BRANCH  12  13
HETATM   13  N   UNL     1     -42.294  56.425 -54.204  1.00  0.00    -0.347 N 
HETATM   14  C   UNL     1     -41.547  56.923 -53.132  1.00  0.00     0.171 C 
HETATM   15  S   UNL     1     -40.615  58.290 -53.062  1.00  0.00    -0.041 SA
HETATM   16  N   UNL     1     -41.651  56.021 -52.088  1.00  0.00    -0.357 N 
HETATM   17  C   UNL     1     -42.344  54.811 -52.487  1.00  0.00     0.135 C 
HETATM   18  H   UNL     1     -41.186  56.151 -51.197  1.00  0.00     0.162 HD
HETATM   19  C   UNL     1     -43.102  55.301 -53.737  1.00  0.00     0.155 C 
BRANCH  17  20
HETATM   20  C   UNL     1     -41.391  53.655 -52.781  1.00  0.00    -0.034 A 
HETATM   21  C   UNL     1     -41.218  53.128 -54.073  1.00  0.00     0.009 A 
HETATM   22  C   UNL     1     -40.311  52.091 -54.315  1.00  0.00     0.001 A 
HETATM   23  C   UNL     1     -39.555  51.566 -53.272  1.00  0.00     0.000 A 
HETATM   24  C   UNL     1     -39.695  52.085 -51.988  1.00  0.00     0.001 A 
HETATM   25  C   UNL     1     -40.593  53.127 -51.748  1.00  0.00     0.009 A 
ENDBRANCH  17  20
ENDBRANCH  12  13
ENDBRANCH  10  12
BRANCH   9  26
HETATM   26  C   UNL     1     -45.556  59.446 -56.275  1.00  0.00     0.088 A 
HETATM   27  C   UNL     1     -44.940  60.769 -55.872  1.00  0.00     0.027 A 
HETATM   28  C   UNL     1     -45.691  60.660 -57.158  1.00  0.00     0.027 A 
ENDBRANCH   9  26
ENDBRANCH   6   9
BRANCH   6  29
HETATM   29  C   UNL     1     -44.130  58.774 -58.912  1.00  0.00     0.251 C 
HETATM   30  N   UNL     1     -42.850  59.243 -58.658  1.00  0.00    -0.325 N 
HETATM   31  H   UNL     1     -42.249  58.655 -58.086  1.00  0.00     0.169 HD
HETATM   32  O   UNL     1     -44.929  59.278 -59.697  1.00  0.00    -0.270 OA
BRANCH  30  33
HETATM   33  C   UNL     1     -42.301  60.478 -59.061  1.00  0.00     0.034 A 
HETATM   34  C   UNL     1     -41.927  61.488 -58.184  1.00  0.00     0.032 A 
HETATM   35  C   UNL     1     -41.304  62.651 -58.661  1.00  0.00     0.031 A 
HETATM   36  C   UNL     1     -41.018  62.848 -60.019  1.00  0.00     0.030 A 
HETATM   37  C   UNL     1     -41.440  61.836 -60.890  1.00  0.00     0.031 A 
HETATM   38  C   UNL     1     -42.065  60.667 -60.423  1.00  0.00     0.032 A 
BRANCH  36  39
HETATM   39  N   UNL     1     -40.400  64.021 -60.440  1.00  0.00    -0.377 N 
HETATM   40  C   UNL     1     -39.600  64.782 -59.449  1.00  0.00     0.149 C 
HETATM   41  C   UNL     1     -38.121  64.366 -59.534  1.00  0.00     0.187 C 
HETATM   42  O   UNL     1     -37.594  64.544 -60.859  1.00  0.00    -0.388 OA
HETATM   43  C   UNL     1     -38.349  63.778 -61.813  1.00  0.00     0.187 C 
HETATM   44  C   UNL     1     -39.837  64.162 -61.799  1.00  0.00     0.149 C 
ENDBRANCH  36  39
ENDBRANCH  30  33
ENDBRANCH   6  29
TORSDOF 8
ENDMDL
MODEL 9
REMARK VINA RESULT:      -8.0      3.095      5.119
REMARK  8 active torsions:
REMARK  status: ('A' for Active; 'I' for Inactive)
REMARK    1  A    between atoms: C_6  and  N_7 
REMARK    2  A    between atoms: C_6  and  C_26 
REMARK       I    between atoms: N_7  and  C_8 
REMARK    3  A    between atoms: N_7  and  C_23 
REMARK    4  A    between atoms: C_8  and  C_9 
REMARK    5  A    between atoms: C_9  and  N_10 
REMARK    6  A    between atoms: C_14  and  C_15 
REMARK       I    between atoms: C_26  and  N_27 
REMARK    7  A    between atoms: N_27  and  C_28 
REMARK    8  A    between atoms: C_31  and  N_32 
ROOT
HETATM    1  C   UNL     1     -41.737  57.659 -60.156  1.00  0.00     0.269 C 
HETATM    2  N   UNL     1     -42.216  57.713 -58.726  1.00  0.00    -0.075 N 
HETATM    3  H   UNL     1     -41.678  56.987 -58.225  1.00  0.00     0.279 HD
HETATM    4  C   UNL     1     -41.903  59.048 -58.102  1.00  0.00     0.237 C 
HETATM    5  C   UNL     1     -42.388  59.112 -56.654  1.00  0.00     0.069 C 
HETATM    6  C   UNL     1     -43.851  58.653 -56.440  1.00  0.00     0.120 C 
HETATM    7  C   UNL     1     -44.067  57.304 -57.167  1.00  0.00     0.069 C 
HETATM    8  C   UNL     1     -43.676  57.349 -58.637  1.00  0.00     0.237 C 
ENDROOT
BRANCH   6   9
HETATM    9  N   UNL     1     -44.187  58.603 -54.960  1.00  0.00    -0.328 N 
HETATM   10  C   UNL     1     -44.237  57.497 -54.097  1.00  0.00     0.239 C 
HETATM   11  O   UNL     1     -44.835  57.583 -53.014  1.00  0.00    -0.271 OA
BRANCH  10  12
HETATM   12  C   UNL     1     -43.612  56.149 -54.461  1.00  0.00     0.228 C 
BRANCH  12  13
HETATM   13  N   UNL     1     -42.681  55.635 -53.458  1.00  0.00    -0.347 N 
HETATM   14  C   UNL     1     -41.584  56.314 -52.917  1.00  0.00     0.171 C 
HETATM   15  S   UNL     1     -40.875  57.719 -53.435  1.00  0.00    -0.041 SA
HETATM   16  N   UNL     1     -41.104  55.568 -51.856  1.00  0.00    -0.357 N 
HETATM   17  C   UNL     1     -41.769  54.283 -51.755  1.00  0.00     0.135 C 
HETATM   18  H   UNL     1     -40.301  55.845 -51.305  1.00  0.00     0.162 HD
HETATM   19  C   UNL     1     -43.061  54.554 -52.552  1.00  0.00     0.155 C 
BRANCH  17  20
HETATM   20  C   UNL     1     -40.938  53.141 -52.336  1.00  0.00    -0.034 A 
HETATM   21  C   UNL     1     -40.106  52.331 -51.543  1.00  0.00     0.009 A 
HETATM   22  C   UNL     1     -39.384  51.273 -52.102  1.00  0.00     0.001 A 
HETATM   23  C   UNL     1     -39.483  50.999 -53.463  1.00  0.00     0.000 A 
HETATM   24  C   UNL     1     -40.316  51.774 -54.263  1.00  0.00     0.001 A 
HETATM   25  C   UNL     1     -41.045  52.826 -53.704  1.00  0.00     0.009 A 
ENDBRANCH  17  20
ENDBRANCH  12  13
ENDBRANCH  10  12
BRANCH   9  26
HETATM   26  C   UNL     1     -44.400  59.885 -54.268  1.00  0.00     0.088 A 
HETATM   27  C   UNL     1     -43.374  60.339 -53.252  1.00  0.00     0.027 A 
HETATM   28  C   UNL     1     -43.631  61.164 -54.471  1.00  0.00     0.027 A 
ENDBRANCH   9  26
ENDBRANCH   6   9
BRANCH   6  29
HETATM   29  C   UNL     1     -44.852  59.607 -57.187  1.00  0.00     0.251 C 
HETATM   30  N   UNL     1     -46.119  59.066 -57.343  1.00  0.00    -0.325 N 
HETATM   31  H   UNL     1     -46.376  58.309 -56.715  1.00  0.00     0.169 HD
HETATM   32  O   UNL     1     -44.435  60.614 -57.754  1.00  0.00    -0.270 OA
BRANCH  30  33
HETATM   33  C   UNL     1     -47.079  59.413 -58.316  1.00  0.00     0.034 A 
HETATM   34  C   UNL     1     -48.131  60.293 -58.093  1.00  0.00     0.032 A 
HETATM   35  C   UNL     1     -48.989  60.656 -59.141  1.00  0.00     0.031 A 
HETATM   36  C   UNL     1     -48.829  60.172 -60.448  1.00  0.00     0.030 A 
HETATM   37  C   UNL     1     -47.788  59.256 -60.640  1.00  0.00     0.031 A 
HETATM   38  C   UNL     1     -46.922  58.885 -59.598  1.00  0.00     0.032 A 
BRANCH  36  39
HETATM   39  N   UNL     1     -49.710  60.563 -61.450  1.00  0.00    -0.377 N 
HETATM   40  C   UNL     1     -49.693  59.807 -62.727  1.00  0.00     0.149 C 
HETATM   41  C   UNL     1     -50.750  58.689 -62.692  1.00  0.00     0.187 C 
HETATM   42  O   UNL     1     -52.063  59.207 -62.425  1.00  0.00    -0.388 OA
HETATM   43  C   UNL     1     -52.087  59.908 -61.170  1.00  0.00     0.187 C 
HETATM   44  C   UNL     1     -51.069  61.059 -61.145  1.00  0.00     0.149 C 
ENDBRANCH  36  39
ENDBRANCH  30  33
ENDBRANCH   6  29
TORSDOF 8
ENDMDL
MODEL 10
REMARK VINA RESULT:      -8.0      3.180      9.421
REMARK  8 active torsions:
REMARK  status: ('A' for Active; 'I' for Inactive)
REMARK    1  A    between atoms: C_6  and  N_7 
REMARK    2  A    between atoms: C_6  and  C_26 
REMARK       I    between atoms: N_7  and  C_8 
REMARK    3  A    between atoms: N_7  and  C_23 
REMARK    4  A    between atoms: C_8  and  C_9 
REMARK    5  A    between atoms: C_9  and  N_10 
REMARK    6  A    between atoms: C_14  and  C_15 
REMARK       I    between atoms: C_26  and  N_27 
REMARK    7  A    between atoms: N_27  and  C_28 
REMARK    8  A    between atoms: C_31  and  N_32 
ROOT
HETATM    1  C   UNL     1     -42.929  61.448 -55.044  1.00  0.00     0.269 C 
HETATM    2  N   UNL     1     -43.621  60.532 -56.022  1.00  0.00    -0.075 N 
HETATM    3  H   UNL     1     -44.326  61.117 -56.500  1.00  0.00     0.279 HD
HETATM    4  C   UNL     1     -42.654  60.017 -57.057  1.00  0.00     0.237 C 
HETATM    5  C   UNL     1     -43.348  59.086 -58.051  1.00  0.00     0.069 C 
HETATM    6  C   UNL     1     -44.214  57.978 -57.404  1.00  0.00     0.120 C 
HETATM    7  C   UNL     1     -45.124  58.614 -56.326  1.00  0.00     0.069 C 
HETATM    8  C   UNL     1     -44.351  59.429 -55.298  1.00  0.00     0.237 C 
ENDROOT
BRANCH   6   9
HETATM    9  N   UNL     1     -44.981  57.208 -58.465  1.00  0.00    -0.328 N 
HETATM   10  C   UNL     1     -46.275  57.429 -58.961  1.00  0.00     0.239 C 
HETATM   11  O   UNL     1     -46.863  56.529 -59.579  1.00  0.00    -0.271 OA
BRANCH  10  12
HETATM   12  C   UNL     1     -47.025  58.742 -58.729  1.00  0.00     0.228 C 
BRANCH  12  13
HETATM   13  N   UNL     1     -46.559  59.849 -59.563  1.00  0.00    -0.347 N 
HETATM   14  C   UNL     1     -46.972  60.138 -60.867  1.00  0.00     0.171 C 
HETATM   15  S   UNL     1     -47.849  59.197 -61.911  1.00  0.00    -0.041 SA
HETATM   16  N   UNL     1     -46.461  61.377 -61.210  1.00  0.00    -0.357 N 
HETATM   17  C   UNL     1     -45.553  61.884 -60.198  1.00  0.00     0.135 C 
HETATM   18  H   UNL     1     -46.611  61.806 -62.115  1.00  0.00     0.162 HD
HETATM   19  C   UNL     1     -45.980  61.053 -58.972  1.00  0.00     0.155 C 
BRANCH  17  20
HETATM   20  C   UNL     1     -44.086  61.687 -60.571  1.00  0.00    -0.034 A 
HETATM   21  C   UNL     1     -43.674  60.798 -61.579  1.00  0.00     0.009 A 
HETATM   22  C   UNL     1     -42.324  60.666 -61.918  1.00  0.00     0.001 A 
HETATM   23  C   UNL     1     -41.360  61.425 -61.261  1.00  0.00     0.000 A 
HETATM   24  C   UNL     1     -41.746  62.325 -60.274  1.00  0.00     0.001 A 
HETATM   25  C   UNL     1     -43.095  62.464 -59.940  1.00  0.00     0.009 A 
ENDBRANCH  17  20
ENDBRANCH  12  13
ENDBRANCH  10  12
BRANCH   9  26
HETATM   26  C   UNL     1     -44.269  56.130 -59.170  1.00  0.00     0.088 A 
HETATM   27  C   UNL     1     -44.017  56.279 -60.656  1.00  0.00     0.027 A 
HETATM   28  C   UNL     1     -42.863  56.175 -59.712  1.00  0.00     0.027 A 
ENDBRANCH   9  26
ENDBRANCH   6   9
BRANCH   6  29
HETATM   29  C   UNL     1     -43.325  56.993 -56.561  1.00  0.00     0.251 C 
HETATM   30  N   UNL     1     -44.059  56.163 -55.726  1.00  0.00    -0.325 N 
HETATM   31  H   UNL     1     -45.039  56.029 -55.957  1.00  0.00     0.169 HD
HETATM   32  O   UNL     1     -42.107  57.148 -56.518  1.00  0.00    -0.270 OA
BRANCH  30  33
HETATM   33  C   UNL     1     -43.607  55.524 -54.553  1.00  0.00     0.034 A 
HETATM   34  C   UNL     1     -42.981  54.284 -54.534  1.00  0.00     0.032 A 
HETATM   35  C   UNL     1     -42.480  53.758 -53.334  1.00  0.00     0.031 A 
HETATM   36  C   UNL     1     -42.571  54.446 -52.115  1.00  0.00     0.030 A 
HETATM   37  C   UNL     1     -43.243  55.674 -52.150  1.00  0.00     0.031 A 
HETATM   38  C   UNL     1     -43.748  56.210 -53.347  1.00  0.00     0.032 A 
BRANCH  36  39
HETATM   39  N   UNL     1     -42.060  53.877 -50.953  1.00  0.00    -0.377 N 
HETATM   40  C   UNL     1     -40.984  52.865 -51.085  1.00  0.00     0.149 C 
HETATM   41  C   UNL     1     -39.606  53.540 -50.965  1.00  0.00     0.187 C 
HETATM   42  O   UNL     1     -39.476  54.263 -49.730  1.00  0.00    -0.388 OA
HETATM   43  C   UNL     1     -40.498  55.268 -49.618  1.00  0.00     0.187 C 
HETATM   44  C   UNL     1     -41.905  54.657 -49.706  1.00  0.00     0.149 C 
ENDBRANCH  36  39
ENDBRANCH  30  33
ENDBRANCH   6  29
TORSDOF 8
ENDMDL
