MODEL 1
REMARK VINA RESULT:      -8.4      0.000      0.000
REMARK  6 active torsions:
REMARK  status: ('A' for Active; 'I' for Inactive)
REMARK    1  A    between atoms: O_2  and  C_3 
REMARK    2  A    between atoms: C_6  and  N_7 
REMARK       I    between atoms: N_7  and  C_8 
REMARK    3  A    between atoms: C_8  and  C_9 
REMARK    4  A    between atoms: C_12  and  N_13 
REMARK       I    between atoms: N_13  and  C_14 
REMARK    5  A    between atoms: C_14  and  C_15 
REMARK       I    between atoms: N_18  and  C_19 
REMARK    6  A    between atoms: C_19  and  C_20 
ROOT
HETATM    1  C   UNL     1     -45.432  62.650 -46.886  1.00  0.00     0.032 A 
HETATM    2  C   UNL     1     -44.761  63.322 -47.913  1.00  0.00     0.019 A 
HETATM    3  C   UNL     1     -44.461  62.662 -49.111  1.00  0.00     0.030 A 
HETATM    4  C   UNL     1     -44.817  61.325 -49.297  1.00  0.00     0.034 A 
HETATM    5  C   UNL     1     -45.496  60.659 -48.268  1.00  0.00     0.030 A 
HETATM    6  C   UNL     1     -45.796  61.312 -47.068  1.00  0.00     0.019 A 
ENDROOT
BRANCH   4   7
HETATM    7  N   UNL     1     -44.500  60.578 -50.451  1.00  0.00    -0.327 N 
HETATM    8  C   UNL     1     -43.258  60.085 -50.818  1.00  0.00     0.226 C 
HETATM    9  O   UNL     1     -42.198  60.312 -50.244  1.00  0.00    -0.273 OA
HETATM   10  H   UNL     1     -45.274  60.380 -51.072  1.00  0.00     0.169 HD
BRANCH   8  11
HETATM   11  C   UNL     1     -43.314  59.208 -52.076  1.00  0.00     0.081 C 
HETATM   12  C   UNL     1     -42.045  58.357 -52.237  1.00  0.00     0.034 C 
HETATM   13  C   UNL     1     -41.994  57.185 -51.256  1.00  0.00     0.127 C 
HETATM   14  N   UNL     1     -43.222  56.388 -51.306  1.00  0.00    -0.347 N 
HETATM   15  C   UNL     1     -43.242  55.048 -50.865  1.00  0.00     0.260 C 
HETATM   16  C   UNL     1     -44.450  57.150 -51.112  1.00  0.00     0.127 C 
HETATM   17  O   UNL     1     -44.241  54.587 -50.312  1.00  0.00    -0.267 OA
HETATM   18  C   UNL     1     -44.555  58.307 -52.103  1.00  0.00     0.034 C 
BRANCH  15  19
HETATM   19  C   UNL     1     -42.071  54.227 -51.145  1.00  0.00     0.072 A 
HETATM   20  S   UNL     1     -41.735  53.773 -52.763  1.00  0.00    -0.097 SA
HETATM   21  C   UNL     1     -40.320  52.929 -52.304  1.00  0.00     0.050 A 
HETATM   22  C   UNL     1     -40.086  53.009 -50.950  1.00  0.00     0.009 A 
HETATM   23  C   UNL     1     -41.088  53.772 -50.282  1.00  0.00     0.025 A 
ENDBRANCH  15  19
ENDBRANCH   8  11
ENDBRANCH   4   7
BRANCH   1  24
HETATM   24  C   UNL     1     -45.683  63.295 -45.565  1.00  0.00     0.256 C 
HETATM   25  N   UNL     1     -44.554  63.522 -44.800  1.00  0.00    -0.323 N 
HETATM   26  H   UNL     1     -43.658  63.444 -45.263  1.00  0.00     0.169 HD
HETATM   27  O   UNL     1     -46.837  63.579 -45.267  1.00  0.00    -0.267 OA
BRANCH  25  28
HETATM   28  C   UNL     1     -44.508  63.850 -43.430  1.00  0.00     0.035 A 
HETATM   29  C   UNL     1     -45.565  64.444 -42.738  1.00  0.00     0.032 A 
HETATM   30  C   UNL     1     -45.486  64.659 -41.356  1.00  0.00     0.039 A 
HETATM   31  C   UNL     1     -44.345  64.281 -40.649  1.00  0.00     0.068 A 
HETATM   32  C   UNL     1     -43.274  63.718 -41.343  1.00  0.00     0.039 A 
HETATM   33  C   UNL     1     -43.356  63.497 -42.721  1.00  0.00     0.032 A 
BRANCH  31  34
HETATM   34  O   UNL     1     -44.157  64.414 -39.302  1.00  0.00    -0.356 OA
HETATM   35  C   UNL     1     -44.757  63.418 -38.481  1.00  0.00     0.210 C 
ENDBRANCH  31  34
ENDBRANCH  25  28
ENDBRANCH   1  24
TORSDOF 6
ENDMDL
MODEL 2
REMARK VINA RESULT:      -8.2      1.764      2.025
REMARK  6 active torsions:
REMARK  status: ('A' for Active; 'I' for Inactive)
REMARK    1  A    between atoms: O_2  and  C_3 
REMARK    2  A    between atoms: C_6  and  N_7 
REMARK       I    between atoms: N_7  and  C_8 
REMARK    3  A    between atoms: C_8  and  C_9 
REMARK    4  A    between atoms: C_12  and  N_13 
REMARK       I    between atoms: N_13  and  C_14 
REMARK    5  A    between atoms: C_14  and  C_15 
REMARK       I    between atoms: N_18  and  C_19 
REMARK    6  A    between atoms: C_19  and  C_20 
ROOT
HETATM    1  C   UNL     1     -45.074  62.383 -47.762  1.00  0.00     0.032 A 
HETATM    2  C   UNL     1     -44.357  63.338 -48.490  1.00  0.00     0.019 A 
HETATM    3  C   UNL     1     -43.817  63.016 -49.740  1.00  0.00     0.030 A 
HETATM    4  C   UNL     1     -43.977  61.737 -50.277  1.00  0.00     0.034 A 
HETATM    5  C   UNL     1     -44.702  60.785 -49.548  1.00  0.00     0.030 A 
HETATM    6  C   UNL     1     -45.241  61.102 -48.296  1.00  0.00     0.019 A 
ENDROOT
BRANCH   4   7
HETATM    7  N   UNL     1     -43.414  61.321 -51.502  1.00  0.00    -0.327 N 
HETATM    8  C   UNL     1     -42.296  60.525 -51.686  1.00  0.00     0.226 C 
HETATM    9  O   UNL     1     -41.540  60.135 -50.802  1.00  0.00    -0.273 OA
HETATM   10  H   UNL     1     -43.893  61.639 -52.335  1.00  0.00     0.169 HD
BRANCH   8  11
HETATM   11  C   UNL     1     -42.051  60.173 -53.159  1.00  0.00     0.081 C 
HETATM   12  C   UNL     1     -40.934  59.130 -53.321  1.00  0.00     0.034 C 
HETATM   13  C   UNL     1     -41.378  57.724 -52.916  1.00  0.00     0.127 C 
HETATM   14  N   UNL     1     -42.618  57.336 -53.592  1.00  0.00    -0.347 N 
HETATM   15  C   UNL     1     -42.972  55.979 -53.748  1.00  0.00     0.260 C 
HETATM   16  C   UNL     1     -43.721  58.276 -53.427  1.00  0.00     0.127 C 
HETATM   17  O   UNL     1     -44.152  55.632 -53.700  1.00  0.00    -0.267 OA
HETATM   18  C   UNL     1     -43.326  59.685 -53.860  1.00  0.00     0.034 C 
BRANCH  15  19
HETATM   19  C   UNL     1     -41.901  55.030 -54.027  1.00  0.00     0.072 A 
HETATM   20  S   UNL     1     -41.496  53.856 -52.845  1.00  0.00    -0.097 SA
HETATM   21  C   UNL     1     -40.286  53.172 -53.842  1.00  0.00     0.050 A 
HETATM   22  C   UNL     1     -40.204  53.803 -55.062  1.00  0.00     0.009 A 
HETATM   23  C   UNL     1     -41.147  54.866 -55.176  1.00  0.00     0.025 A 
ENDBRANCH  15  19
ENDBRANCH   8  11
ENDBRANCH   4   7
BRANCH   1  24
HETATM   24  C   UNL     1     -45.581  62.666 -46.388  1.00  0.00     0.256 C 
HETATM   25  N   UNL     1     -44.823  63.562 -45.657  1.00  0.00    -0.323 N 
HETATM   26  H   UNL     1     -44.137  64.108 -46.162  1.00  0.00     0.169 HD
HETATM   27  O   UNL     1     -46.608  62.109 -46.022  1.00  0.00    -0.267 OA
BRANCH  25  28
HETATM   28  C   UNL     1     -44.895  63.803 -44.270  1.00  0.00     0.035 A 
HETATM   29  C   UNL     1     -45.867  64.606 -43.671  1.00  0.00     0.032 A 
HETATM   30  C   UNL     1     -45.936  64.728 -42.277  1.00  0.00     0.039 A 
HETATM   31  C   UNL     1     -45.030  64.046 -41.465  1.00  0.00     0.068 A 
HETATM   32  C   UNL     1     -44.037  63.269 -42.062  1.00  0.00     0.039 A 
HETATM   33  C   UNL     1     -43.973  63.142 -43.454  1.00  0.00     0.032 A 
BRANCH  31  34
HETATM   34  O   UNL     1     -45.010  64.062 -40.099  1.00  0.00    -0.356 OA
HETATM   35  C   UNL     1     -46.017  63.300 -39.444  1.00  0.00     0.210 C 
ENDBRANCH  31  34
ENDBRANCH  25  28
ENDBRANCH   1  24
TORSDOF 6
ENDMDL
MODEL 3
REMARK VINA RESULT:      -8.1      5.872     11.733
REMARK  6 active torsions:
REMARK  status: ('A' for Active; 'I' for Inactive)
REMARK    1  A    between atoms: O_2  and  C_3 
REMARK    2  A    between atoms: C_6  and  N_7 
REMARK       I    between atoms: N_7  and  C_8 
REMARK    3  A    between atoms: C_8  and  C_9 
REMARK    4  A    between atoms: C_12  and  N_13 
REMARK       I    between atoms: N_13  and  C_14 
REMARK    5  A    between atoms: C_14  and  C_15 
REMARK       I    between atoms: N_18  and  C_19 
REMARK    6  A    between atoms: C_19  and  C_20 
ROOT
HETATM    1  C   UNL     1     -43.126  57.055 -51.475  1.00  0.00     0.032 A 
HETATM    2  C   UNL     1     -42.253  58.091 -51.824  1.00  0.00     0.019 A 
HETATM    3  C   UNL     1     -42.741  59.387 -52.033  1.00  0.00     0.030 A 
HETATM    4  C   UNL     1     -44.103  59.664 -51.905  1.00  0.00     0.034 A 
HETATM    5  C   UNL     1     -44.973  58.625 -51.549  1.00  0.00     0.030 A 
HETATM    6  C   UNL     1     -44.491  57.328 -51.341  1.00  0.00     0.019 A 
ENDROOT
BRANCH   4   7
HETATM    7  N   UNL     1     -44.676  60.930 -52.155  1.00  0.00    -0.327 N 
HETATM    8  C   UNL     1     -44.931  61.933 -51.235  1.00  0.00     0.226 C 
HETATM    9  O   UNL     1     -44.795  61.843 -50.020  1.00  0.00    -0.273 OA
HETATM   10  H   UNL     1     -44.920  61.118 -53.120  1.00  0.00     0.169 HD
BRANCH   8  11
HETATM   11  C   UNL     1     -45.445  63.223 -51.888  1.00  0.00     0.081 C 
HETATM   12  C   UNL     1     -46.513  62.937 -52.956  1.00  0.00     0.034 C 
HETATM   13  C   UNL     1     -47.861  62.543 -52.349  1.00  0.00     0.127 C 
HETATM   14  N   UNL     1     -48.305  63.516 -51.349  1.00  0.00    -0.347 N 
HETATM   15  C   UNL     1     -49.666  63.633 -50.997  1.00  0.00     0.260 C 
HETATM   16  C   UNL     1     -47.339  63.784 -50.290  1.00  0.00     0.127 C 
HETATM   17  O   UNL     1     -49.991  63.905 -49.841  1.00  0.00    -0.267 OA
HETATM   18  C   UNL     1     -45.991  64.220 -50.858  1.00  0.00     0.034 C 
BRANCH  15  19
HETATM   19  C   UNL     1     -50.653  63.481 -52.058  1.00  0.00     0.072 A 
HETATM   20  S   UNL     1     -50.501  64.423 -53.483  1.00  0.00    -0.097 SA
HETATM   21  C   UNL     1     -51.891  63.712 -54.182  1.00  0.00     0.050 A 
HETATM   22  C   UNL     1     -52.450  62.757 -53.365  1.00  0.00     0.009 A 
HETATM   23  C   UNL     1     -51.727  62.611 -52.144  1.00  0.00     0.025 A 
ENDBRANCH  15  19
ENDBRANCH   8  11
ENDBRANCH   4   7
BRANCH   1  24
HETATM   24  C   UNL     1     -42.653  55.648 -51.337  1.00  0.00     0.256 C 
HETATM   25  N   UNL     1     -41.389  55.403 -51.842  1.00  0.00    -0.323 N 
HETATM   26  H   UNL     1     -40.812  56.207 -52.055  1.00  0.00     0.169 HD
HETATM   27  O   UNL     1     -43.392  54.837 -50.793  1.00  0.00    -0.267 OA
BRANCH  25  28
HETATM   28  C   UNL     1     -40.806  54.146 -52.100  1.00  0.00     0.035 A 
HETATM   29  C   UNL     1     -40.239  53.336 -51.114  1.00  0.00     0.032 A 
HETATM   30  C   UNL     1     -39.760  52.057 -51.426  1.00  0.00     0.039 A 
HETATM   31  C   UNL     1     -39.842  51.574 -52.731  1.00  0.00     0.068 A 
HETATM   32  C   UNL     1     -40.377  52.393 -53.724  1.00  0.00     0.039 A 
HETATM   33  C   UNL     1     -40.863  53.667 -53.412  1.00  0.00     0.032 A 
BRANCH  31  34
HETATM   34  O   UNL     1     -39.436  50.339 -53.155  1.00  0.00    -0.356 OA
HETATM   35  C   UNL     1     -39.833  49.962 -54.468  1.00  0.00     0.210 C 
ENDBRANCH  31  34
ENDBRANCH  25  28
ENDBRANCH   1  24
TORSDOF 6
ENDMDL
MODEL 4
REMARK VINA RESULT:      -7.9      7.774     11.584
REMARK  6 active torsions:
REMARK  status: ('A' for Active; 'I' for Inactive)
REMARK    1  A    between atoms: O_2  and  C_3 
REMARK    2  A    between atoms: C_6  and  N_7 
REMARK       I    between atoms: N_7  and  C_8 
REMARK    3  A    between atoms: C_8  and  C_9 
REMARK    4  A    between atoms: C_12  and  N_13 
REMARK       I    between atoms: N_13  and  C_14 
REMARK    5  A    between atoms: C_14  and  C_15 
REMARK       I    between atoms: N_18  and  C_19 
REMARK    6  A    between atoms: C_19  and  C_20 
ROOT
HETATM    1  C   UNL     1     -43.261  59.336 -56.278  1.00  0.00     0.032 A 
HETATM    2  C   UNL     1     -44.503  58.773 -55.964  1.00  0.00     0.019 A 
HETATM    3  C   UNL     1     -44.606  57.803 -54.960  1.00  0.00     0.030 A 
HETATM    4  C   UNL     1     -43.475  57.374 -54.264  1.00  0.00     0.034 A 
HETATM    5  C   UNL     1     -42.234  57.946 -54.577  1.00  0.00     0.030 A 
HETATM    6  C   UNL     1     -42.125  58.914 -55.581  1.00  0.00     0.019 A 
ENDROOT
BRANCH   4   7
HETATM    7  N   UNL     1     -43.490  56.361 -53.282  1.00  0.00    -0.327 N 
HETATM    8  C   UNL     1     -43.433  56.523 -51.907  1.00  0.00     0.226 C 
HETATM    9  O   UNL     1     -43.250  57.583 -51.317  1.00  0.00    -0.273 OA
HETATM   10  H   UNL     1     -43.556  55.413 -53.630  1.00  0.00     0.169 HD
BRANCH   8  11
HETATM   11  C   UNL     1     -43.600  55.202 -51.145  1.00  0.00     0.081 C 
HETATM   12  C   UNL     1     -43.424  53.984 -52.065  1.00  0.00     0.034 C 
HETATM   13  C   UNL     1     -41.963  53.740 -52.445  1.00  0.00     0.127 C 
HETATM   14  N   UNL     1     -41.102  53.685 -51.261  1.00  0.00    -0.347 N 
HETATM   15  C   UNL     1     -39.850  53.036 -51.298  1.00  0.00     0.260 C 
HETATM   16  C   UNL     1     -41.202  54.844 -50.382  1.00  0.00     0.127 C 
HETATM   17  O   UNL     1     -38.901  53.471 -50.645  1.00  0.00    -0.267 OA
HETATM   18  C   UNL     1     -42.644  55.095 -49.949  1.00  0.00     0.034 C 
BRANCH  15  19
HETATM   19  C   UNL     1     -39.747  51.810 -52.080  1.00  0.00     0.072 A 
HETATM   20  S   UNL     1     -39.603  50.309 -51.266  1.00  0.00    -0.097 SA
HETATM   21  C   UNL     1     -39.567  49.437 -52.738  1.00  0.00     0.050 A 
HETATM   22  C   UNL     1     -39.690  50.264 -53.831  1.00  0.00     0.009 A 
HETATM   23  C   UNL     1     -39.810  51.633 -53.452  1.00  0.00     0.025 A 
ENDBRANCH  15  19
ENDBRANCH   8  11
ENDBRANCH   4   7
BRANCH   1  24
HETATM   24  C   UNL     1     -43.104  60.302 -57.403  1.00  0.00     0.256 C 
HETATM   25  N   UNL     1     -41.870  60.277 -58.027  1.00  0.00    -0.323 N 
HETATM   26  H   UNL     1     -41.269  59.488 -57.833  1.00  0.00     0.169 HD
HETATM   27  O   UNL     1     -44.055  61.018 -57.691  1.00  0.00    -0.267 OA
BRANCH  25  28
HETATM   28  C   UNL     1     -41.348  61.242 -58.913  1.00  0.00     0.035 A 
HETATM   29  C   UNL     1     -40.452  62.242 -58.531  1.00  0.00     0.032 A 
HETATM   30  C   UNL     1     -39.901  63.112 -59.482  1.00  0.00     0.039 A 
HETATM   31  C   UNL     1     -40.242  62.989 -60.828  1.00  0.00     0.068 A 
HETATM   32  C   UNL     1     -41.162  62.013 -61.208  1.00  0.00     0.039 A 
HETATM   33  C   UNL     1     -41.707  61.140 -60.260  1.00  0.00     0.032 A 
BRANCH  31  34
HETATM   34  O   UNL     1     -39.755  63.756 -61.850  1.00  0.00    -0.356 OA
HETATM   35  C   UNL     1     -39.293  63.054 -62.998  1.00  0.00     0.210 C 
ENDBRANCH  31  34
ENDBRANCH  25  28
ENDBRANCH   1  24
TORSDOF 6
ENDMDL
MODEL 5
REMARK VINA RESULT:      -7.7      6.150      8.598
REMARK  6 active torsions:
REMARK  status: ('A' for Active; 'I' for Inactive)
REMARK    1  A    between atoms: O_2  and  C_3 
REMARK    2  A    between atoms: C_6  and  N_7 
REMARK       I    between atoms: N_7  and  C_8 
REMARK    3  A    between atoms: C_8  and  C_9 
REMARK    4  A    between atoms: C_12  and  N_13 
REMARK       I    between atoms: N_13  and  C_14 
REMARK    5  A    between atoms: C_14  and  C_15 
REMARK       I    between atoms: N_18  and  C_19 
REMARK    6  A    between atoms: C_19  and  C_20 
ROOT
HETATM    1  C   UNL     1     -46.648  61.036 -52.492  1.00  0.00     0.032 A 
HETATM    2  C   UNL     1     -45.860  60.374 -53.440  1.00  0.00     0.019 A 
HETATM    3  C   UNL     1     -44.821  59.530 -53.031  1.00  0.00     0.030 A 
HETATM    4  C   UNL     1     -44.548  59.341 -51.675  1.00  0.00     0.034 A 
HETATM    5  C   UNL     1     -45.344  60.000 -50.729  1.00  0.00     0.030 A 
HETATM    6  C   UNL     1     -46.382  60.847 -51.132  1.00  0.00     0.019 A 
ENDROOT
BRANCH   4   7
HETATM    7  N   UNL     1     -43.484  58.552 -51.188  1.00  0.00    -0.327 N 
HETATM    8  C   UNL     1     -43.473  57.180 -50.997  1.00  0.00     0.226 C 
HETATM    9  O   UNL     1     -44.437  56.431 -51.123  1.00  0.00    -0.273 OA
HETATM   10  H   UNL     1     -42.635  59.054 -50.960  1.00  0.00     0.169 HD
BRANCH   8  11
HETATM   11  C   UNL     1     -42.099  56.649 -50.571  1.00  0.00     0.081 C 
HETATM   12  C   UNL     1     -42.069  55.114 -50.518  1.00  0.00     0.034 C 
HETATM   13  C   UNL     1     -42.038  54.477 -51.908  1.00  0.00     0.127 C 
HETATM   14  N   UNL     1     -40.963  55.036 -52.730  1.00  0.00    -0.347 N 
HETATM   15  C   UNL     1     -40.443  54.327 -53.834  1.00  0.00     0.260 C 
HETATM   16  C   UNL     1     -40.979  56.490 -52.847  1.00  0.00     0.127 C 
HETATM   17  O   UNL     1     -40.070  54.927 -54.843  1.00  0.00    -0.267 OA
HETATM   18  C   UNL     1     -40.971  57.161 -51.476  1.00  0.00     0.034 C 
BRANCH  15  19
HETATM   19  C   UNL     1     -40.309  52.882 -53.706  1.00  0.00     0.072 A 
HETATM   20  S   UNL     1     -39.663  52.227 -52.260  1.00  0.00    -0.097 SA
HETATM   21  C   UNL     1     -39.844  50.623 -52.826  1.00  0.00     0.050 A 
HETATM   22  C   UNL     1     -40.409  50.577 -54.079  1.00  0.00     0.009 A 
HETATM   23  C   UNL     1     -40.693  51.881 -54.583  1.00  0.00     0.025 A 
ENDBRANCH  15  19
ENDBRANCH   8  11
ENDBRANCH   4   7
BRANCH   1  24
HETATM   24  C   UNL     1     -47.700  62.013 -52.895  1.00  0.00     0.256 C 
HETATM   25  N   UNL     1     -48.999  61.557 -52.774  1.00  0.00    -0.323 N 
HETATM   26  H   UNL     1     -49.146  60.714 -52.234  1.00  0.00     0.169 HD
HETATM   27  O   UNL     1     -47.346  63.120 -53.282  1.00  0.00    -0.267 OA
BRANCH  25  28
HETATM   28  C   UNL     1     -50.158  62.138 -53.328  1.00  0.00     0.035 A 
HETATM   29  C   UNL     1     -50.427  62.180 -54.697  1.00  0.00     0.032 A 
HETATM   30  C   UNL     1     -51.641  62.692 -55.174  1.00  0.00     0.039 A 
HETATM   31  C   UNL     1     -52.602  63.168 -54.282  1.00  0.00     0.068 A 
HETATM   32  C   UNL     1     -52.323  63.158 -52.916  1.00  0.00     0.039 A 
HETATM   33  C   UNL     1     -51.113  62.641 -52.440  1.00  0.00     0.032 A 
BRANCH  31  34
HETATM   34  O   UNL     1     -53.830  63.665 -54.619  1.00  0.00    -0.356 OA
HETATM   35  C   UNL     1     -54.770  62.728 -55.131  1.00  0.00     0.210 C 
ENDBRANCH  31  34
ENDBRANCH  25  28
ENDBRANCH   1  24
TORSDOF 6
ENDMDL
MODEL 6
REMARK VINA RESULT:      -7.5      4.259      6.244
REMARK  6 active torsions:
REMARK  status: ('A' for Active; 'I' for Inactive)
REMARK    1  A    between atoms: O_2  and  C_3 
REMARK    2  A    between atoms: C_6  and  N_7 
REMARK       I    between atoms: N_7  and  C_8 
REMARK    3  A    between atoms: C_8  and  C_9 
REMARK    4  A    between atoms: C_12  and  N_13 
REMARK       I    between atoms: N_13  and  C_14 
REMARK    5  A    between atoms: C_14  and  C_15 
REMARK       I    between atoms: N_18  and  C_19 
REMARK    6  A    between atoms: C_19  and  C_20 
ROOT
HETATM    1  C   UNL     1     -44.514  59.492 -50.586  1.00  0.00     0.032 A 
HETATM    2  C   UNL     1     -45.278  58.419 -51.056  1.00  0.00     0.019 A 
HETATM    3  C   UNL     1     -44.697  57.440 -51.871  1.00  0.00     0.030 A 
HETATM    4  C   UNL     1     -43.353  57.523 -52.236  1.00  0.00     0.034 A 
HETATM    5  C   UNL     1     -42.589  58.596 -51.758  1.00  0.00     0.030 A 
HETATM    6  C   UNL     1     -43.165  59.578 -50.945  1.00  0.00     0.019 A 
ENDROOT
BRANCH   4   7
HETATM    7  N   UNL     1     -42.712  56.609 -53.100  1.00  0.00    -0.327 N 
HETATM    8  C   UNL     1     -42.687  55.228 -52.992  1.00  0.00     0.226 C 
HETATM    9  O   UNL     1     -43.134  54.574 -52.057  1.00  0.00    -0.273 OA
HETATM   10  H   UNL     1     -42.224  57.018 -53.887  1.00  0.00     0.169 HD
BRANCH   8  11
HETATM   11  C   UNL     1     -41.999  54.551 -54.185  1.00  0.00     0.081 C 
HETATM   12  C   UNL     1     -43.016  54.007 -55.200  1.00  0.00     0.034 C 
HETATM   13  C   UNL     1     -43.669  55.113 -56.029  1.00  0.00     0.127 C 
HETATM   14  N   UNL     1     -42.667  55.988 -56.643  1.00  0.00    -0.347 N 
HETATM   15  C   UNL     1     -42.973  56.763 -57.781  1.00  0.00     0.260 C 
HETATM   16  C   UNL     1     -41.707  56.564 -55.709  1.00  0.00     0.127 C 
HETATM   17  O   UNL     1     -42.475  57.880 -57.929  1.00  0.00    -0.267 OA
HETATM   18  C   UNL     1     -41.005  55.484 -54.890  1.00  0.00     0.034 C 
BRANCH  15  19
HETATM   19  C   UNL     1     -43.842  56.169 -58.789  1.00  0.00     0.072 A 
HETATM   20  S   UNL     1     -45.302  56.963 -59.207  1.00  0.00    -0.097 SA
HETATM   21  C   UNL     1     -45.700  55.768 -60.364  1.00  0.00     0.050 A 
HETATM   22  C   UNL     1     -44.732  54.794 -60.455  1.00  0.00     0.009 A 
HETATM   23  C   UNL     1     -43.651  55.033 -59.557  1.00  0.00     0.025 A 
ENDBRANCH  15  19
ENDBRANCH   8  11
ENDBRANCH   4   7
BRANCH   1  24
HETATM   24  C   UNL     1     -45.124  60.598 -49.794  1.00  0.00     0.256 C 
HETATM   25  N   UNL     1     -44.346  61.071 -48.753  1.00  0.00    -0.323 N 
HETATM   26  H   UNL     1     -43.371  60.801 -48.744  1.00  0.00     0.169 HD
HETATM   27  O   UNL     1     -46.233  61.003 -50.120  1.00  0.00    -0.267 OA
BRANCH  25  28
HETATM   28  C   UNL     1     -44.763  61.896 -47.689  1.00  0.00     0.035 A 
HETATM   29  C   UNL     1     -45.088  61.419 -46.418  1.00  0.00     0.032 A 
HETATM   30  C   UNL     1     -45.407  62.305 -45.380  1.00  0.00     0.039 A 
HETATM   31  C   UNL     1     -45.403  63.681 -45.603  1.00  0.00     0.068 A 
HETATM   32  C   UNL     1     -45.112  64.159 -46.880  1.00  0.00     0.039 A 
HETATM   33  C   UNL     1     -44.787  63.276 -47.915  1.00  0.00     0.032 A 
BRANCH  31  34
HETATM   34  O   UNL     1     -45.670  64.644 -44.671  1.00  0.00    -0.356 OA
HETATM   35  C   UNL     1     -45.355  64.319 -43.322  1.00  0.00     0.210 C 
ENDBRANCH  31  34
ENDBRANCH  25  28
ENDBRANCH   1  24
TORSDOF 6
ENDMDL
MODEL 7
REMARK VINA RESULT:      -7.5      7.674     12.397
REMARK  6 active torsions:
REMARK  status: ('A' for Active; 'I' for Inactive)
REMARK    1  A    between atoms: O_2  and  C_3 
REMARK    2  A    between atoms: C_6  and  N_7 
REMARK       I    between atoms: N_7  and  C_8 
REMARK    3  A    between atoms: C_8  and  C_9 
REMARK    4  A    between atoms: C_12  and  N_13 
REMARK       I    between atoms: N_13  and  C_14 
REMARK    5  A    between atoms: C_14  and  C_15 
REMARK       I    between atoms: N_18  and  C_19 
REMARK    6  A    between atoms: C_19  and  C_20 
ROOT
HETATM    1  C   UNL     1     -44.033  56.809 -54.470  1.00  0.00     0.032 A 
HETATM    2  C   UNL     1     -44.006  57.275 -55.789  1.00  0.00     0.019 A 
HETATM    3  C   UNL     1     -44.566  58.517 -56.112  1.00  0.00     0.030 A 
HETATM    4  C   UNL     1     -45.166  59.305 -55.130  1.00  0.00     0.034 A 
HETATM    5  C   UNL     1     -45.185  58.838 -53.808  1.00  0.00     0.030 A 
HETATM    6  C   UNL     1     -44.630  57.597 -53.480  1.00  0.00     0.019 A 
ENDROOT
BRANCH   4   7
HETATM    7  N   UNL     1     -45.801  60.539 -55.388  1.00  0.00    -0.327 N 
HETATM    8  C   UNL     1     -45.373  61.800 -55.006  1.00  0.00     0.226 C 
HETATM    9  O   UNL     1     -44.415  62.043 -54.279  1.00  0.00    -0.273 OA
HETATM   10  H   UNL     1     -46.662  60.487 -55.918  1.00  0.00     0.169 HD
BRANCH   8  11
HETATM   11  C   UNL     1     -46.252  62.923 -55.571  1.00  0.00     0.081 C 
HETATM   12  C   UNL     1     -47.730  62.511 -55.647  1.00  0.00     0.034 C 
HETATM   13  C   UNL     1     -48.405  62.486 -54.275  1.00  0.00     0.127 C 
HETATM   14  N   UNL     1     -48.204  63.746 -53.555  1.00  0.00    -0.347 N 
HETATM   15  C   UNL     1     -49.074  64.141 -52.517  1.00  0.00     0.260 C 
HETATM   16  C   UNL     1     -46.810  64.153 -53.419  1.00  0.00     0.127 C 
HETATM   17  O   UNL     1     -48.644  64.758 -51.542  1.00  0.00    -0.267 OA
HETATM   18  C   UNL     1     -46.113  64.227 -54.775  1.00  0.00     0.034 C 
BRANCH  15  19
HETATM   19  C   UNL     1     -50.493  63.847 -52.676  1.00  0.00     0.072 A 
HETATM   20  S   UNL     1     -51.341  64.516 -54.007  1.00  0.00    -0.097 SA
HETATM   21  C   UNL     1     -52.801  63.752 -53.547  1.00  0.00     0.050 A 
HETATM   22  C   UNL     1     -52.647  62.980 -52.418  1.00  0.00     0.009 A 
HETATM   23  C   UNL     1     -51.310  63.021 -51.923  1.00  0.00     0.025 A 
ENDBRANCH  15  19
ENDBRANCH   8  11
ENDBRANCH   4   7
BRANCH   1  24
HETATM   24  C   UNL     1     -43.530  55.452 -54.110  1.00  0.00     0.256 C 
HETATM   25  N   UNL     1     -42.272  55.427 -53.537  1.00  0.00    -0.323 N 
HETATM   26  H   UNL     1     -41.894  56.307 -53.211  1.00  0.00     0.169 HD
HETATM   27  O   UNL     1     -44.252  54.488 -54.332  1.00  0.00    -0.267 OA
BRANCH  25  28
HETATM   28  C   UNL     1     -41.444  54.301 -53.356  1.00  0.00     0.035 A 
HETATM   29  C   UNL     1     -40.944  53.897 -52.117  1.00  0.00     0.032 A 
HETATM   30  C   UNL     1     -40.201  52.714 -51.996  1.00  0.00     0.039 A 
HETATM   31  C   UNL     1     -39.951  51.922 -53.116  1.00  0.00     0.068 A 
HETATM   32  C   UNL     1     -40.421  52.341 -54.360  1.00  0.00     0.039 A 
HETATM   33  C   UNL     1     -41.168  53.518 -54.481  1.00  0.00     0.032 A 
BRANCH  31  34
HETATM   34  O   UNL     1     -39.266  50.740 -53.123  1.00  0.00    -0.356 OA
HETATM   35  C   UNL     1     -39.417  49.932 -54.284  1.00  0.00     0.210 C 
ENDBRANCH  31  34
ENDBRANCH  25  28
ENDBRANCH   1  24
TORSDOF 6
ENDMDL
MODEL 8
REMARK VINA RESULT:      -7.3      7.918     14.019
REMARK  6 active torsions:
REMARK  status: ('A' for Active; 'I' for Inactive)
REMARK    1  A    between atoms: O_2  and  C_3 
REMARK    2  A    between atoms: C_6  and  N_7 
REMARK       I    between atoms: N_7  and  C_8 
REMARK    3  A    between atoms: C_8  and  C_9 
REMARK    4  A    between atoms: C_12  and  N_13 
REMARK       I    between atoms: N_13  and  C_14 
REMARK    5  A    between atoms: C_14  and  C_15 
REMARK       I    between atoms: N_18  and  C_19 
REMARK    6  A    between atoms: C_19  and  C_20 
ROOT
HETATM    1  C   UNL     1     -45.583  56.334 -59.979  1.00  0.00     0.032 A 
HETATM    2  C   UNL     1     -44.824  55.160 -60.014  1.00  0.00     0.019 A 
HETATM    3  C   UNL     1     -43.848  54.919 -59.040  1.00  0.00     0.030 A 
HETATM    4  C   UNL     1     -43.608  55.849 -58.027  1.00  0.00     0.034 A 
HETATM    5  C   UNL     1     -44.376  57.021 -57.991  1.00  0.00     0.030 A 
HETATM    6  C   UNL     1     -45.352  57.267 -58.963  1.00  0.00     0.019 A 
ENDROOT
BRANCH   4   7
HETATM    7  N   UNL     1     -42.604  55.704 -57.046  1.00  0.00    -0.327 N 
HETATM    8  C   UNL     1     -42.547  54.759 -56.035  1.00  0.00     0.226 C 
HETATM    9  O   UNL     1     -43.426  53.950 -55.759  1.00  0.00    -0.273 OA
HETATM   10  H   UNL     1     -41.841  56.367 -57.099  1.00  0.00     0.169 HD
BRANCH   8  11
HETATM   11  C   UNL     1     -41.242  54.826 -55.231  1.00  0.00     0.081 C 
HETATM   12  C   UNL     1     -40.852  56.273 -54.891  1.00  0.00     0.034 C 
HETATM   13  C   UNL     1     -41.723  56.873 -53.787  1.00  0.00     0.127 C 
HETATM   14  N   UNL     1     -41.769  56.006 -52.608  1.00  0.00    -0.347 N 
HETATM   15  C   UNL     1     -42.102  56.519 -51.336  1.00  0.00     0.260 C 
HETATM   16  C   UNL     1     -42.179  54.633 -52.877  1.00  0.00     0.127 C 
HETATM   17  O   UNL     1     -42.742  55.837 -50.535  1.00  0.00    -0.267 OA
HETATM   18  C   UNL     1     -41.305  53.987 -53.948  1.00  0.00     0.034 C 
BRANCH  15  19
HETATM   19  C   UNL     1     -41.610  57.848 -50.994  1.00  0.00     0.072 A 
HETATM   20  S   UNL     1     -42.694  59.174 -51.023  1.00  0.00    -0.097 SA
HETATM   21  C   UNL     1     -41.477  60.267 -50.522  1.00  0.00     0.050 A 
HETATM   22  C   UNL     1     -40.273  59.637 -50.310  1.00  0.00     0.009 A 
HETATM   23  C   UNL     1     -40.351  58.237 -50.567  1.00  0.00     0.025 A 
ENDBRANCH  15  19
ENDBRANCH   8  11
ENDBRANCH   4   7
BRANCH   1  24
HETATM   24  C   UNL     1     -46.565  56.662 -61.053  1.00  0.00     0.256 C 
HETATM   25  N   UNL     1     -46.991  57.978 -61.075  1.00  0.00    -0.323 N 
HETATM   26  H   UNL     1     -46.461  58.645 -60.529  1.00  0.00     0.169 HD
HETATM   27  O   UNL     1     -46.904  55.771 -61.821  1.00  0.00    -0.267 OA
BRANCH  25  28
HETATM   28  C   UNL     1     -48.095  58.501 -61.777  1.00  0.00     0.035 A 
HETATM   29  C   UNL     1     -48.551  57.994 -62.995  1.00  0.00     0.032 A 
HETATM   30  C   UNL     1     -49.711  58.504 -63.594  1.00  0.00     0.039 A 
HETATM   31  C   UNL     1     -50.428  59.529 -62.979  1.00  0.00     0.068 A 
HETATM   32  C   UNL     1     -49.956  60.061 -61.779  1.00  0.00     0.039 A 
HETATM   33  C   UNL     1     -48.802  59.547 -61.177  1.00  0.00     0.032 A 
BRANCH  31  34
HETATM   34  O   UNL     1     -51.583  60.091 -63.447  1.00  0.00    -0.356 OA
HETATM   35  C   UNL     1     -52.742  59.914 -62.640  1.00  0.00     0.210 C 
ENDBRANCH  31  34
ENDBRANCH  25  28
ENDBRANCH   1  24
TORSDOF 6
ENDMDL
MODEL 9
REMARK VINA RESULT:      -7.3      7.804     12.327
REMARK  6 active torsions:
REMARK  status: ('A' for Active; 'I' for Inactive)
REMARK    1  A    between atoms: O_2  and  C_3 
REMARK    2  A    between atoms: C_6  and  N_7 
REMARK       I    between atoms: N_7  and  C_8 
REMARK    3  A    between atoms: C_8  and  C_9 
REMARK    4  A    between atoms: C_12  and  N_13 
REMARK       I    between atoms: N_13  and  C_14 
REMARK    5  A    between atoms: C_14  and  C_15 
REMARK       I    between atoms: N_18  and  C_19 
REMARK    6  A    between atoms: C_19  and  C_20 
ROOT
HETATM    1  C   UNL     1     -42.816  58.779 -53.821  1.00  0.00     0.032 A 
HETATM    2  C   UNL     1     -44.170  58.459 -53.672  1.00  0.00     0.019 A 
HETATM    3  C   UNL     1     -45.138  59.470 -53.659  1.00  0.00     0.030 A 
HETATM    4  C   UNL     1     -44.771  60.810 -53.785  1.00  0.00     0.034 A 
HETATM    5  C   UNL     1     -43.414  61.126 -53.942  1.00  0.00     0.030 A 
HETATM    6  C   UNL     1     -42.442  60.120 -53.953  1.00  0.00     0.019 A 
ENDROOT
BRANCH   4   7
HETATM    7  N   UNL     1     -45.682  61.887 -53.724  1.00  0.00    -0.327 N 
HETATM    8  C   UNL     1     -46.637  62.234 -54.666  1.00  0.00     0.226 C 
HETATM    9  O   UNL     1     -46.776  61.718 -55.770  1.00  0.00    -0.273 OA
HETATM   10  H   UNL     1     -45.627  62.460 -52.892  1.00  0.00     0.169 HD
BRANCH   8  11
HETATM   11  C   UNL     1     -47.535  63.389 -54.204  1.00  0.00     0.081 C 
HETATM   12  C   UNL     1     -48.645  63.693 -55.223  1.00  0.00     0.034 C 
HETATM   13  C   UNL     1     -49.756  62.643 -55.214  1.00  0.00     0.127 C 
HETATM   14  N   UNL     1     -50.273  62.420 -53.862  1.00  0.00    -0.347 N 
HETATM   15  C   UNL     1     -51.558  61.875 -53.651  1.00  0.00     0.260 C 
HETATM   16  C   UNL     1     -49.259  62.082 -52.870  1.00  0.00     0.127 C 
HETATM   17  O   UNL     1     -51.769  61.124 -52.698  1.00  0.00    -0.267 OA
HETATM   18  C   UNL     1     -48.151  63.131 -52.823  1.00  0.00     0.034 C 
BRANCH  15  19
HETATM   19  C   UNL     1     -52.621  62.282 -54.561  1.00  0.00     0.072 A 
HETATM   20  S   UNL     1     -53.233  61.149 -55.692  1.00  0.00    -0.097 SA
HETATM   21  C   UNL     1     -54.363  62.275 -56.310  1.00  0.00     0.050 A 
HETATM   22  C   UNL     1     -54.300  63.483 -55.655  1.00  0.00     0.009 A 
HETATM   23  C   UNL     1     -53.305  63.484 -54.634  1.00  0.00     0.025 A 
ENDBRANCH  15  19
ENDBRANCH   8  11
ENDBRANCH   4   7
BRANCH   1  24
HETATM   24  C   UNL     1     -41.753  57.735 -53.745  1.00  0.00     0.256 C 
HETATM   25  N   UNL     1     -42.172  56.451 -54.040  1.00  0.00    -0.323 N 
HETATM   26  H   UNL     1     -43.075  56.349 -54.485  1.00  0.00     0.169 HD
HETATM   27  O   UNL     1     -40.618  58.084 -53.447  1.00  0.00    -0.267 OA
BRANCH  25  28
HETATM   28  C   UNL     1     -41.476  55.252 -53.786  1.00  0.00     0.035 A 
HETATM   29  C   UNL     1     -41.469  54.606 -52.549  1.00  0.00     0.032 A 
HETATM   30  C   UNL     1     -40.831  53.369 -52.390  1.00  0.00     0.039 A 
HETATM   31  C   UNL     1     -40.192  52.763 -53.471  1.00  0.00     0.068 A 
HETATM   32  C   UNL     1     -40.169  53.422 -54.700  1.00  0.00     0.039 A 
HETATM   33  C   UNL     1     -40.811  54.653 -54.861  1.00  0.00     0.032 A 
BRANCH  31  34
HETATM   34  O   UNL     1     -39.560  51.551 -53.451  1.00  0.00    -0.356 OA
HETATM   35  C   UNL     1     -40.110  50.540 -54.287  1.00  0.00     0.210 C 
ENDBRANCH  31  34
ENDBRANCH  25  28
ENDBRANCH   1  24
TORSDOF 6
ENDMDL
MODEL 10
REMARK VINA RESULT:      -7.2      7.069     11.991
REMARK  6 active torsions:
REMARK  status: ('A' for Active; 'I' for Inactive)
REMARK    1  A    between atoms: O_2  and  C_3 
REMARK    2  A    between atoms: C_6  and  N_7 
REMARK       I    between atoms: N_7  and  C_8 
REMARK    3  A    between atoms: C_8  and  C_9 
REMARK    4  A    between atoms: C_12  and  N_13 
REMARK       I    between atoms: N_13  and  C_14 
REMARK    5  A    between atoms: C_14  and  C_15 
REMARK       I    between atoms: N_18  and  C_19 
REMARK    6  A    between atoms: C_19  and  C_20 
ROOT
HETATM    1  C   UNL     1     -42.585  58.999 -53.321  1.00  0.00     0.032 A 
HETATM    2  C   UNL     1     -42.247  60.256 -52.809  1.00  0.00     0.019 A 
HETATM    3  C   UNL     1     -43.170  61.308 -52.852  1.00  0.00     0.030 A 
HETATM    4  C   UNL     1     -44.434  61.125 -53.413  1.00  0.00     0.034 A 
HETATM    5  C   UNL     1     -44.771  59.862 -53.918  1.00  0.00     0.030 A 
HETATM    6  C   UNL     1     -43.852  58.807 -53.880  1.00  0.00     0.019 A 
ENDROOT
BRANCH   4   7
HETATM    7  N   UNL     1     -45.395  62.150 -53.544  1.00  0.00    -0.327 N 
HETATM    8  C   UNL     1     -46.155  62.724 -52.538  1.00  0.00     0.226 C 
HETATM    9  O   UNL     1     -46.193  62.354 -51.369  1.00  0.00    -0.273 OA
HETATM   10  H   UNL     1     -45.533  62.504 -54.483  1.00  0.00     0.169 HD
BRANCH   8  11
HETATM   11  C   UNL     1     -47.006  63.901 -53.032  1.00  0.00     0.081 C 
HETATM   12  C   UNL     1     -47.974  63.478 -54.148  1.00  0.00     0.034 C 
HETATM   13  C   UNL     1     -49.157  62.664 -53.624  1.00  0.00     0.127 C 
HETATM   14  N   UNL     1     -49.831  63.346 -52.517  1.00  0.00    -0.347 N 
HETATM   15  C   UNL     1     -51.168  63.048 -52.180  1.00  0.00     0.260 C 
HETATM   16  C   UNL     1     -48.957  63.726 -51.413  1.00  0.00     0.127 C 
HETATM   17  O   UNL     1     -51.537  63.074 -51.005  1.00  0.00    -0.267 OA
HETATM   18  C   UNL     1     -47.783  64.575 -51.894  1.00  0.00     0.034 C 
BRANCH  15  19
HETATM   19  C   UNL     1     -52.094  62.775 -53.271  1.00  0.00     0.072 A 
HETATM   20  S   UNL     1     -52.956  64.074 -53.983  1.00  0.00    -0.097 SA
HETATM   21  C   UNL     1     -53.734  63.037 -55.099  1.00  0.00     0.050 A 
HETATM   22  C   UNL     1     -53.331  61.729 -54.956  1.00  0.00     0.009 A 
HETATM   23  C   UNL     1     -52.372  61.578 -53.911  1.00  0.00     0.025 A 
ENDBRANCH  15  19
ENDBRANCH   8  11
ENDBRANCH   4   7
BRANCH   1  24
HETATM   24  C   UNL     1     -41.594  57.885 -53.374  1.00  0.00     0.256 C 
HETATM   25  N   UNL     1     -42.134  56.632 -53.602  1.00  0.00    -0.323 N 
HETATM   26  H   UNL     1     -43.092  56.592 -53.925  1.00  0.00     0.169 HD
HETATM   27  O   UNL     1     -40.409  58.155 -53.228  1.00  0.00    -0.267 OA
BRANCH  25  28
HETATM   28  C   UNL     1     -41.494  55.388 -53.429  1.00  0.00     0.035 A 
HETATM   29  C   UNL     1     -41.563  54.635 -52.256  1.00  0.00     0.032 A 
HETATM   30  C   UNL     1     -40.978  53.364 -52.184  1.00  0.00     0.039 A 
HETATM   31  C   UNL     1     -40.315  52.832 -53.289  1.00  0.00     0.068 A 
HETATM   32  C   UNL     1     -40.215  53.595 -54.452  1.00  0.00     0.039 A 
HETATM   33  C   UNL     1     -40.805  54.861 -54.526  1.00  0.00     0.032 A 
BRANCH  31  34
HETATM   34  O   UNL     1     -39.729  51.599 -53.354  1.00  0.00    -0.356 OA
HETATM   35  C   UNL     1     -40.270  50.693 -54.308  1.00  0.00     0.210 C 
ENDBRANCH  31  34
ENDBRANCH  25  28
ENDBRANCH   1  24
TORSDOF 6
ENDMDL
