MODEL 1
REMARK VINA RESULT:      -9.6      0.000      0.000
REMARK  7 active torsions:
REMARK  status: ('A' for Active; 'I' for Inactive)
REMARK    1  A    between atoms: O_2  and  C_3 
REMARK    2  A    between atoms: C_5  and  C_6 
REMARK    3  A    between atoms: C_10  and  C_11 
REMARK    4  A    between atoms: C_10  and  C_15 
REMARK    5  A    between atoms: N_19  and  C_20 
REMARK    6  A    between atoms: C_20  and  C_21 
REMARK    7  A    between atoms: C_21  and  C_22 
ROOT
HETATM    1  C   UNL     1     -42.802  57.312 -55.777  1.00  0.00     0.114 C 
HETATM    2  N   UNL     1     -42.583  56.290 -54.974  1.00  0.00    -0.327 N 
HETATM    3  C   UNL     1     -42.682  56.375 -53.602  1.00  0.00     0.128 A 
HETATM    4  C   UNL     1     -42.948  57.564 -53.042  1.00  0.00     0.100 A 
HETATM    5  C   UNL     1     -43.066  58.857 -53.810  1.00  0.00     0.264 C 
HETATM    6  N   UNL     1     -42.507  55.239 -52.829  1.00  0.00    -0.284 N 
HETATM    7  C   UNL     1     -42.646  55.265 -51.443  1.00  0.00     0.331 A 
HETATM    8  O   UNL     1     -42.532  54.281 -50.722  1.00  0.00    -0.246 OA
HETATM    9  N   UNL     1     -42.932  56.478 -50.899  1.00  0.00    -0.275 N 
HETATM   10  C   UNL     1     -43.099  57.630 -51.585  1.00  0.00     0.262 A 
HETATM   11  O   UNL     1     -43.375  58.688 -51.048  1.00  0.00    -0.267 OA
HETATM   12  N   UNL     1     -43.080  58.503 -55.298  1.00  0.00    -0.347 N 
HETATM   13  H   UNL     1     -43.292  59.254 -55.961  1.00  0.00     0.162 HD
HETATM   14  H   UNL     1     -42.354  55.412 -55.423  1.00  0.00     0.169 HD
HETATM   15  H   UNL     1     -43.041  56.503 -49.891  1.00  0.00     0.173 HD
ENDROOT
BRANCH   1  16
HETATM   16  C   UNL     1     -42.755  57.132 -57.238  1.00  0.00     0.010 A 
HETATM   17  C   UNL     1     -43.388  56.026 -57.831  1.00  0.00     0.052 A 
HETATM   18  C   UNL     1     -43.320  55.796 -59.208  1.00  0.00     0.069 A 
HETATM   19  C   UNL     1     -42.639  56.701 -60.016  1.00  0.00     0.037 A 
HETATM   20  C   UNL     1     -42.019  57.816 -59.447  1.00  0.00     0.004 A 
HETATM   21  C   UNL     1     -42.069  58.029 -58.067  1.00  0.00     0.015 A 
BRANCH  18  22
HETATM   22  O   UNL     1     -43.959  54.663 -59.620  1.00  0.00    -0.356 OA
HETATM   23  C   UNL     1     -44.906  54.801 -60.675  1.00  0.00     0.210 C 
ENDBRANCH  18  22
ENDBRANCH   1  16
BRANCH   5  24
HETATM   24  C   UNL     1     -41.865  59.781 -53.583  1.00  0.00     0.426 C 
HETATM   25  F   UNL     1     -40.728  59.034 -53.614  1.00  0.00    -0.168 F 
HETATM   26  F   UNL     1     -41.758  60.674 -54.595  1.00  0.00    -0.168 F 
HETATM   27  F   UNL     1     -41.867  60.450 -52.425  1.00  0.00    -0.168 F 
ENDBRANCH   5  24
BRANCH   5  28
HETATM   28  C   UNL     1     -44.314  59.708 -53.545  1.00  0.00     0.426 C 
HETATM   29  F   UNL     1     -45.372  58.902 -53.278  1.00  0.00    -0.168 F 
HETATM   30  F   UNL     1     -44.213  60.621 -52.575  1.00  0.00    -0.168 F 
HETATM   31  F   UNL     1     -44.634  60.375 -54.689  1.00  0.00    -0.168 F 
ENDBRANCH   5  28
BRANCH   6  32
HETATM   32  C   UNL     1     -42.185  53.921 -53.394  1.00  0.00     0.140 C 
BRANCH  32  33
HETATM   33  C   UNL     1     -40.672  53.702 -53.537  1.00  0.00     0.059 C 
BRANCH  33  34
HETATM   34  C   UNL     1     -40.258  52.277 -53.261  1.00  0.00    -0.057 A 
HETATM   35  C   UNL     1     -39.881  51.873 -51.971  1.00  0.00     0.007 A 
HETATM   36  C   UNL     1     -39.512  50.550 -51.720  1.00  0.00     0.001 A 
HETATM   37  C   UNL     1     -39.531  49.613 -52.750  1.00  0.00     0.000 A 
HETATM   38  C   UNL     1     -39.928  49.996 -54.030  1.00  0.00     0.001 A 
HETATM   39  C   UNL     1     -40.293  51.319 -54.284  1.00  0.00     0.007 A 
ENDBRANCH  33  34
ENDBRANCH  32  33
ENDBRANCH   6  32
TORSDOF 7
ENDMDL
MODEL 2
REMARK VINA RESULT:      -9.1      3.626      7.073
REMARK  7 active torsions:
REMARK  status: ('A' for Active; 'I' for Inactive)
REMARK    1  A    between atoms: O_2  and  C_3 
REMARK    2  A    between atoms: C_5  and  C_6 
REMARK    3  A    between atoms: C_10  and  C_11 
REMARK    4  A    between atoms: C_10  and  C_15 
REMARK    5  A    between atoms: N_19  and  C_20 
REMARK    6  A    between atoms: C_20  and  C_21 
REMARK    7  A    between atoms: C_21  and  C_22 
ROOT
HETATM    1  C   UNL     1     -43.268  55.997 -56.428  1.00  0.00     0.114 C 
HETATM    2  N   UNL     1     -43.877  57.106 -56.057  1.00  0.00    -0.327 N 
HETATM    3  C   UNL     1     -44.560  57.921 -56.934  1.00  0.00     0.128 A 
HETATM    4  C   UNL     1     -44.553  57.619 -58.240  1.00  0.00     0.100 A 
HETATM    5  C   UNL     1     -43.772  56.479 -58.845  1.00  0.00     0.264 C 
HETATM    6  N   UNL     1     -45.236  59.031 -56.455  1.00  0.00    -0.284 N 
HETATM    7  C   UNL     1     -45.980  59.857 -57.295  1.00  0.00     0.331 A 
HETATM    8  O   UNL     1     -46.620  60.829 -56.913  1.00  0.00    -0.246 OA
HETATM    9  N   UNL     1     -45.973  59.521 -58.613  1.00  0.00    -0.275 N 
HETATM   10  C   UNL     1     -45.324  58.467 -59.155  1.00  0.00     0.262 A 
HETATM   11  O   UNL     1     -45.368  58.200 -60.343  1.00  0.00    -0.267 OA
HETATM   12  N   UNL     1     -43.232  55.634 -57.690  1.00  0.00    -0.347 N 
HETATM   13  H   UNL     1     -42.791  54.740 -57.924  1.00  0.00     0.162 HD
HETATM   14  H   UNL     1     -43.840  57.325 -55.069  1.00  0.00     0.169 HD
HETATM   15  H   UNL     1     -46.518  60.114 -59.230  1.00  0.00     0.173 HD
ENDROOT
BRANCH   1  16
HETATM   16  C   UNL     1     -42.623  55.132 -55.426  1.00  0.00     0.010 A 
HETATM   17  C   UNL     1     -43.274  54.859 -54.211  1.00  0.00     0.052 A 
HETATM   18  C   UNL     1     -42.671  54.084 -53.216  1.00  0.00     0.069 A 
HETATM   19  C   UNL     1     -41.409  53.543 -53.447  1.00  0.00     0.037 A 
HETATM   20  C   UNL     1     -40.754  53.790 -54.656  1.00  0.00     0.004 A 
HETATM   21  C   UNL     1     -41.352  54.585 -55.637  1.00  0.00     0.015 A 
BRANCH  18  22
HETATM   22  O   UNL     1     -43.421  53.939 -52.086  1.00  0.00    -0.356 OA
HETATM   23  C   UNL     1     -42.794  54.261 -50.847  1.00  0.00     0.210 C 
ENDBRANCH  18  22
ENDBRANCH   1  16
BRANCH   5  24
HETATM   24  C   UNL     1     -42.559  56.965 -59.646  1.00  0.00     0.426 C 
HETATM   25  F   UNL     1     -41.790  57.748 -58.840  1.00  0.00    -0.168 F 
HETATM   26  F   UNL     1     -41.782  55.918 -60.009  1.00  0.00    -0.168 F 
HETATM   27  F   UNL     1     -42.843  57.682 -60.738  1.00  0.00    -0.168 F 
ENDBRANCH   5  24
BRANCH   5  28
HETATM   28  C   UNL     1     -44.540  55.528 -59.770  1.00  0.00     0.426 C 
HETATM   29  F   UNL     1     -45.864  55.571 -59.479  1.00  0.00    -0.168 F 
HETATM   30  F   UNL     1     -44.381  55.721 -61.083  1.00  0.00    -0.168 F 
HETATM   31  F   UNL     1     -44.142  54.252 -59.505  1.00  0.00    -0.168 F 
ENDBRANCH   5  28
BRANCH   6  32
HETATM   32  C   UNL     1     -45.247  59.419 -55.037  1.00  0.00     0.140 C 
BRANCH  32  33
HETATM   33  C   UNL     1     -43.958  60.143 -54.621  1.00  0.00     0.059 C 
BRANCH  33  34
HETATM   34  C   UNL     1     -43.019  59.261 -53.838  1.00  0.00    -0.057 A 
HETATM   35  C   UNL     1     -43.465  58.553 -52.712  1.00  0.00     0.007 A 
HETATM   36  C   UNL     1     -42.593  57.728 -51.999  1.00  0.00     0.001 A 
HETATM   37  C   UNL     1     -41.271  57.588 -52.412  1.00  0.00     0.000 A 
HETATM   38  C   UNL     1     -40.821  58.266 -53.543  1.00  0.00     0.001 A 
HETATM   39  C   UNL     1     -41.690  59.095 -54.255  1.00  0.00     0.007 A 
ENDBRANCH  33  34
ENDBRANCH  32  33
ENDBRANCH   6  32
TORSDOF 7
ENDMDL
MODEL 3
REMARK VINA RESULT:      -9.1      2.031      6.698
REMARK  7 active torsions:
REMARK  status: ('A' for Active; 'I' for Inactive)
REMARK    1  A    between atoms: O_2  and  C_3 
REMARK    2  A    between atoms: C_5  and  C_6 
REMARK    3  A    between atoms: C_10  and  C_11 
REMARK    4  A    between atoms: C_10  and  C_15 
REMARK    5  A    between atoms: N_19  and  C_20 
REMARK    6  A    between atoms: C_20  and  C_21 
REMARK    7  A    between atoms: C_21  and  C_22 
ROOT
HETATM    1  C   UNL     1     -41.220  55.818 -53.695  1.00  0.00     0.114 C 
HETATM    2  N   UNL     1     -41.592  56.288 -54.869  1.00  0.00    -0.327 N 
HETATM    3  C   UNL     1     -41.938  57.606 -55.078  1.00  0.00     0.128 A 
HETATM    4  C   UNL     1     -41.968  58.444 -54.032  1.00  0.00     0.100 A 
HETATM    5  C   UNL     1     -41.726  58.026 -52.602  1.00  0.00     0.264 C 
HETATM    6  N   UNL     1     -42.249  58.039 -56.357  1.00  0.00    -0.284 N 
HETATM    7  C   UNL     1     -42.557  59.371 -56.626  1.00  0.00     0.331 A 
HETATM    8  O   UNL     1     -42.806  59.808 -57.743  1.00  0.00    -0.246 OA
HETATM    9  N   UNL     1     -42.563  60.207 -55.552  1.00  0.00    -0.275 N 
HETATM   10  C   UNL     1     -42.290  59.853 -54.277  1.00  0.00     0.262 A 
HETATM   11  O   UNL     1     -42.291  60.648 -53.353  1.00  0.00    -0.267 OA
HETATM   12  N   UNL     1     -41.213  56.587 -52.629  1.00  0.00    -0.347 N 
HETATM   13  H   UNL     1     -40.869  56.190 -51.750  1.00  0.00     0.162 HD
HETATM   14  H   UNL     1     -41.591  55.626 -55.635  1.00  0.00     0.169 HD
HETATM   15  H   UNL     1     -42.780  61.179 -55.741  1.00  0.00     0.173 HD
ENDROOT
BRANCH   1  16
HETATM   16  C   UNL     1     -40.788  54.417 -53.559  1.00  0.00     0.010 A 
HETATM   17  C   UNL     1     -40.667  53.840 -52.283  1.00  0.00     0.052 A 
HETATM   18  C   UNL     1     -40.212  52.529 -52.115  1.00  0.00     0.069 A 
HETATM   19  C   UNL     1     -39.902  51.766 -53.236  1.00  0.00     0.037 A 
HETATM   20  C   UNL     1     -40.033  52.318 -54.513  1.00  0.00     0.004 A 
HETATM   21  C   UNL     1     -40.466  53.636 -54.676  1.00  0.00     0.015 A 
BRANCH  18  22
HETATM   22  O   UNL     1     -40.121  52.130 -50.813  1.00  0.00    -0.356 OA
HETATM   23  C   UNL     1     -40.332  53.124 -49.815  1.00  0.00     0.210 C 
ENDBRANCH  18  22
ENDBRANCH   1  16
BRANCH   5  24
HETATM   24  C   UNL     1     -43.013  58.026 -51.771  1.00  0.00     0.426 C 
HETATM   25  F   UNL     1     -44.054  57.682 -52.578  1.00  0.00    -0.168 F 
HETATM   26  F   UNL     1     -42.953  57.078 -50.807  1.00  0.00    -0.168 F 
HETATM   27  F   UNL     1     -43.327  59.194 -51.199  1.00  0.00    -0.168 F 
ENDBRANCH   5  24
BRANCH   5  28
HETATM   28  C   UNL     1     -40.704  58.847 -51.805  1.00  0.00     0.426 C 
HETATM   29  F   UNL     1     -39.640  59.146 -52.592  1.00  0.00    -0.168 F 
HETATM   30  F   UNL     1     -41.156  59.973 -51.246  1.00  0.00    -0.168 F 
HETATM   31  F   UNL     1     -40.216  58.069 -50.799  1.00  0.00    -0.168 F 
ENDBRANCH   5  28
BRANCH   6  32
HETATM   32  C   UNL     1     -42.260  57.153 -57.529  1.00  0.00     0.140 C 
BRANCH  32  33
HETATM   33  C   UNL     1     -43.357  56.083 -57.440  1.00  0.00     0.059 C 
BRANCH  33  34
HETATM   34  C   UNL     1     -44.195  55.998 -58.691  1.00  0.00    -0.057 A 
HETATM   35  C   UNL     1     -44.147  54.865 -59.517  1.00  0.00     0.007 A 
HETATM   36  C   UNL     1     -44.934  54.789 -60.667  1.00  0.00     0.001 A 
HETATM   37  C   UNL     1     -45.791  55.836 -60.996  1.00  0.00     0.000 A 
HETATM   38  C   UNL     1     -45.868  56.956 -60.171  1.00  0.00     0.001 A 
HETATM   39  C   UNL     1     -45.077  57.037 -59.024  1.00  0.00     0.007 A 
ENDBRANCH  33  34
ENDBRANCH  32  33
ENDBRANCH   6  32
TORSDOF 7
ENDMDL
MODEL 4
REMARK VINA RESULT:      -8.7     16.158     18.880
REMARK  7 active torsions:
REMARK  status: ('A' for Active; 'I' for Inactive)
REMARK    1  A    between atoms: O_2  and  C_3 
REMARK    2  A    between atoms: C_5  and  C_6 
REMARK    3  A    between atoms: C_10  and  C_11 
REMARK    4  A    between atoms: C_10  and  C_15 
REMARK    5  A    between atoms: N_19  and  C_20 
REMARK    6  A    between atoms: C_20  and  C_21 
REMARK    7  A    between atoms: C_21  and  C_22 
ROOT
HETATM    1  C   UNL     1     -34.155  39.330 -54.840  1.00  0.00     0.114 C 
HETATM    2  N   UNL     1     -34.976  39.590 -53.841  1.00  0.00    -0.327 N 
HETATM    3  C   UNL     1     -36.205  40.188 -54.013  1.00  0.00     0.128 A 
HETATM    4  C   UNL     1     -36.566  40.592 -55.239  1.00  0.00     0.100 A 
HETATM    5  C   UNL     1     -35.676  40.514 -56.455  1.00  0.00     0.264 C 
HETATM    6  N   UNL     1     -37.042  40.363 -52.922  1.00  0.00    -0.284 N 
HETATM    7  C   UNL     1     -38.313  40.918 -53.054  1.00  0.00     0.331 A 
HETATM    8  O   UNL     1     -39.100  41.062 -52.125  1.00  0.00    -0.246 OA
HETATM    9  N   UNL     1     -38.664  41.304 -54.310  1.00  0.00    -0.275 N 
HETATM   10  C   UNL     1     -37.896  41.183 -55.415  1.00  0.00     0.262 A 
HETATM   11  O   UNL     1     -38.269  41.529 -56.523  1.00  0.00    -0.267 OA
HETATM   12  N   UNL     1     -34.450  39.686 -56.070  1.00  0.00    -0.347 N 
HETATM   13  H   UNL     1     -33.805  39.418 -56.819  1.00  0.00     0.162 HD
HETATM   14  H   UNL     1     -34.664  39.302 -52.922  1.00  0.00     0.169 HD
HETATM   15  H   UNL     1     -39.591  41.704 -54.414  1.00  0.00     0.173 HD
ENDROOT
BRANCH   1  16
HETATM   16  C   UNL     1     -32.890  38.617 -54.595  1.00  0.00     0.010 A 
HETATM   17  C   UNL     1     -31.754  38.916 -55.366  1.00  0.00     0.052 A 
HETATM   18  C   UNL     1     -30.552  38.224 -55.195  1.00  0.00     0.069 A 
HETATM   19  C   UNL     1     -30.467  37.238 -54.217  1.00  0.00     0.037 A 
HETATM   20  C   UNL     1     -31.581  36.939 -53.429  1.00  0.00     0.004 A 
HETATM   21  C   UNL     1     -32.788  37.617 -53.619  1.00  0.00     0.015 A 
BRANCH  18  22
HETATM   22  O   UNL     1     -29.555  38.613 -56.042  1.00  0.00    -0.356 OA
HETATM   23  C   UNL     1     -28.341  37.869 -55.999  1.00  0.00     0.210 C 
ENDBRANCH  18  22
ENDBRANCH   1  16
BRANCH   5  24
HETATM   24  C   UNL     1     -35.165  41.891 -56.892  1.00  0.00     0.426 C 
HETATM   25  F   UNL     1     -35.082  42.693 -55.795  1.00  0.00    -0.168 F 
HETATM   26  F   UNL     1     -33.908  41.794 -57.385  1.00  0.00    -0.168 F 
HETATM   27  F   UNL     1     -35.926  42.527 -57.790  1.00  0.00    -0.168 F 
ENDBRANCH   5  24
BRANCH   5  28
HETATM   28  C   UNL     1     -36.274  39.864 -57.709  1.00  0.00     0.426 C 
HETATM   29  F   UNL     1     -37.093  38.844 -57.353  1.00  0.00    -0.168 F 
HETATM   30  F   UNL     1     -36.934  40.677 -58.540  1.00  0.00    -0.168 F 
HETATM   31  F   UNL     1     -35.263  39.298 -58.426  1.00  0.00    -0.168 F 
ENDBRANCH   5  28
BRANCH   6  32
HETATM   32  C   UNL     1     -36.679  39.964 -51.555  1.00  0.00     0.140 C 
BRANCH  32  33
HETATM   33  C   UNL     1     -35.760  40.989 -50.874  1.00  0.00     0.059 C 
BRANCH  33  34
HETATM   34  C   UNL     1     -34.331  40.517 -50.776  1.00  0.00    -0.057 A 
HETATM   35  C   UNL     1     -33.977  39.458 -49.926  1.00  0.00     0.007 A 
HETATM   36  C   UNL     1     -32.654  39.019 -49.849  1.00  0.00     0.001 A 
HETATM   37  C   UNL     1     -31.673  39.621 -50.632  1.00  0.00     0.000 A 
HETATM   38  C   UNL     1     -32.014  40.657 -51.499  1.00  0.00     0.001 A 
HETATM   39  C   UNL     1     -33.336  41.101 -51.573  1.00  0.00     0.007 A 
ENDBRANCH  33  34
ENDBRANCH  32  33
ENDBRANCH   6  32
TORSDOF 7
ENDMDL
MODEL 5
REMARK VINA RESULT:      -8.3      1.783      2.121
REMARK  7 active torsions:
REMARK  status: ('A' for Active; 'I' for Inactive)
REMARK    1  A    between atoms: O_2  and  C_3 
REMARK    2  A    between atoms: C_5  and  C_6 
REMARK    3  A    between atoms: C_10  and  C_11 
REMARK    4  A    between atoms: C_10  and  C_15 
REMARK    5  A    between atoms: N_19  and  C_20 
REMARK    6  A    between atoms: C_20  and  C_21 
REMARK    7  A    between atoms: C_21  and  C_22 
ROOT
HETATM    1  C   UNL     1     -44.571  58.359 -55.361  1.00  0.00     0.114 C 
HETATM    2  N   UNL     1     -44.028  57.417 -54.616  1.00  0.00    -0.327 N 
HETATM    3  C   UNL     1     -43.620  57.626 -53.316  1.00  0.00     0.128 A 
HETATM    4  C   UNL     1     -43.711  58.859 -52.796  1.00  0.00     0.100 A 
HETATM    5  C   UNL     1     -44.159  60.075 -53.569  1.00  0.00     0.264 C 
HETATM    6  N   UNL     1     -43.124  56.567 -52.573  1.00  0.00    -0.284 N 
HETATM    7  C   UNL     1     -42.745  56.719 -51.241  1.00  0.00     0.331 A 
HETATM    8  O   UNL     1     -42.333  55.806 -50.535  1.00  0.00    -0.246 OA
HETATM    9  N   UNL     1     -42.864  57.974 -50.730  1.00  0.00    -0.275 N 
HETATM   10  C   UNL     1     -43.320  59.057 -51.397  1.00  0.00     0.262 A 
HETATM   11  O   UNL     1     -43.424  60.157 -50.884  1.00  0.00    -0.267 OA
HETATM   12  N   UNL     1     -44.703  59.587 -54.912  1.00  0.00    -0.347 N 
HETATM   13  H   UNL     1     -45.176  60.272 -55.508  1.00  0.00     0.162 HD
HETATM   14  H   UNL     1     -43.942  56.504 -55.044  1.00  0.00     0.169 HD
HETATM   15  H   UNL     1     -42.595  58.090 -49.759  1.00  0.00     0.173 HD
ENDROOT
BRANCH   1  16
HETATM   16  C   UNL     1     -45.056  58.047 -56.716  1.00  0.00     0.010 A 
HETATM   17  C   UNL     1     -44.151  57.639 -57.710  1.00  0.00     0.052 A 
HETATM   18  C   UNL     1     -44.569  57.384 -59.019  1.00  0.00     0.069 A 
HETATM   19  C   UNL     1     -45.918  57.504 -59.339  1.00  0.00     0.037 A 
HETATM   20  C   UNL     1     -46.835  57.891 -58.359  1.00  0.00     0.004 A 
HETATM   21  C   UNL     1     -46.409  58.168 -57.057  1.00  0.00     0.015 A 
BRANCH  18  22
HETATM   22  O   UNL     1     -43.563  57.029 -59.870  1.00  0.00    -0.356 OA
HETATM   23  C   UNL     1     -42.807  55.869 -59.532  1.00  0.00     0.210 C 
ENDBRANCH  18  22
ENDBRANCH   1  16
BRANCH   5  24
HETATM   24  C   UNL     1     -42.999  61.028 -53.878  1.00  0.00     0.426 C 
HETATM   25  F   UNL     1     -41.851  60.302 -53.968  1.00  0.00    -0.168 F 
HETATM   26  F   UNL     1     -43.174  61.610 -55.087  1.00  0.00    -0.168 F 
HETATM   27  F   UNL     1     -42.789  61.989 -52.971  1.00  0.00    -0.168 F 
ENDBRANCH   5  24
BRANCH   5  28
HETATM   28  C   UNL     1     -45.258  60.935 -52.931  1.00  0.00     0.426 C 
HETATM   29  F   UNL     1     -46.168  60.137 -52.318  1.00  0.00    -0.168 F 
HETATM   30  F   UNL     1     -44.851  61.869 -52.066  1.00  0.00    -0.168 F 
HETATM   31  F   UNL     1     -45.934  61.578 -53.923  1.00  0.00    -0.168 F 
ENDBRANCH   5  28
BRANCH   6  32
HETATM   32  C   UNL     1     -42.977  55.206 -53.107  1.00  0.00     0.140 C 
BRANCH  32  33
HETATM   33  C   UNL     1     -41.653  55.017 -53.863  1.00  0.00     0.059 C 
BRANCH  33  34
HETATM   34  C   UNL     1     -40.931  53.753 -53.471  1.00  0.00    -0.057 A 
HETATM   35  C   UNL     1     -40.484  53.555 -52.155  1.00  0.00     0.007 A 
HETATM   36  C   UNL     1     -39.828  52.376 -51.796  1.00  0.00     0.001 A 
HETATM   37  C   UNL     1     -39.625  51.375 -52.742  1.00  0.00     0.000 A 
HETATM   38  C   UNL     1     -40.086  51.548 -54.046  1.00  0.00     0.001 A 
HETATM   39  C   UNL     1     -40.738  52.728 -54.408  1.00  0.00     0.007 A 
ENDBRANCH  33  34
ENDBRANCH  32  33
ENDBRANCH   6  32
TORSDOF 7
ENDMDL
MODEL 6
REMARK VINA RESULT:      -8.2      2.161      5.715
REMARK  7 active torsions:
REMARK  status: ('A' for Active; 'I' for Inactive)
REMARK    1  A    between atoms: O_2  and  C_3 
REMARK    2  A    between atoms: C_5  and  C_6 
REMARK    3  A    between atoms: C_10  and  C_11 
REMARK    4  A    between atoms: C_10  and  C_15 
REMARK    5  A    between atoms: N_19  and  C_20 
REMARK    6  A    between atoms: C_20  and  C_21 
REMARK    7  A    between atoms: C_21  and  C_22 
ROOT
HETATM    1  C   UNL     1     -41.823  56.008 -51.626  1.00  0.00     0.114 C 
HETATM    2  N   UNL     1     -41.843  55.663 -52.898  1.00  0.00    -0.327 N 
HETATM    3  C   UNL     1     -42.253  56.512 -53.903  1.00  0.00     0.128 A 
HETATM    4  C   UNL     1     -42.719  57.727 -53.578  1.00  0.00     0.100 A 
HETATM    5  C   UNL     1     -42.911  58.212 -52.162  1.00  0.00     0.264 C 
HETATM    6  N   UNL     1     -42.177  56.100 -55.223  1.00  0.00    -0.284 N 
HETATM    7  C   UNL     1     -42.533  56.941 -56.276  1.00  0.00     0.331 A 
HETATM    8  O   UNL     1     -42.453  56.633 -57.459  1.00  0.00    -0.246 OA
HETATM    9  N   UNL     1     -42.987  58.174 -55.923  1.00  0.00    -0.275 N 
HETATM   10  C   UNL     1     -43.105  58.638 -54.660  1.00  0.00     0.262 A 
HETATM   11  O   UNL     1     -43.500  59.761 -54.400  1.00  0.00    -0.267 OA
HETATM   12  N   UNL     1     -42.254  57.187 -51.237  1.00  0.00    -0.347 N 
HETATM   13  H   UNL     1     -42.171  57.429 -50.245  1.00  0.00     0.162 HD
HETATM   14  H   UNL     1     -41.515  54.729 -53.111  1.00  0.00     0.169 HD
HETATM   15  H   UNL     1     -43.242  58.793 -56.685  1.00  0.00     0.173 HD
ENDROOT
BRANCH   1  16
HETATM   16  C   UNL     1     -41.299  55.077 -50.612  1.00  0.00     0.010 A 
HETATM   17  C   UNL     1     -40.834  53.809 -50.996  1.00  0.00     0.052 A 
HETATM   18  C   UNL     1     -40.378  52.881 -50.055  1.00  0.00     0.069 A 
HETATM   19  C   UNL     1     -40.353  53.233 -48.709  1.00  0.00     0.037 A 
HETATM   20  C   UNL     1     -40.795  54.497 -48.310  1.00  0.00     0.004 A 
HETATM   21  C   UNL     1     -41.273  55.412 -49.252  1.00  0.00     0.015 A 
BRANCH  18  22
HETATM   22  O   UNL     1     -39.990  51.686 -50.587  1.00  0.00    -0.356 OA
HETATM   23  C   UNL     1     -40.399  50.508 -49.898  1.00  0.00     0.210 C 
ENDBRANCH  18  22
ENDBRANCH   1  16
BRANCH   5  24
HETATM   24  C   UNL     1     -44.389  58.285 -51.767  1.00  0.00     0.426 C 
HETATM   25  F   UNL     1     -44.547  57.687 -50.554  1.00  0.00    -0.168 F 
HETATM   26  F   UNL     1     -44.772  59.574 -51.605  1.00  0.00    -0.168 F 
HETATM   27  F   UNL     1     -45.240  57.693 -52.612  1.00  0.00    -0.168 F 
ENDBRANCH   5  24
BRANCH   5  28
HETATM   28  C   UNL     1     -42.308  59.578 -51.811  1.00  0.00     0.426 C 
HETATM   29  F   UNL     1     -41.089  59.706 -52.393  1.00  0.00    -0.168 F 
HETATM   30  F   UNL     1     -43.047  60.648 -52.118  1.00  0.00    -0.168 F 
HETATM   31  F   UNL     1     -42.085  59.619 -50.468  1.00  0.00    -0.168 F 
ENDBRANCH   5  28
BRANCH   6  32
HETATM   32  C   UNL     1     -41.702  54.770 -55.628  1.00  0.00     0.140 C 
BRANCH  32  33
HETATM   33  C   UNL     1     -40.361  54.406 -54.973  1.00  0.00     0.059 C 
BRANCH  33  34
HETATM   34  C   UNL     1     -40.275  52.951 -54.586  1.00  0.00    -0.057 A 
HETATM   35  C   UNL     1     -39.109  52.424 -54.011  1.00  0.00     0.007 A 
HETATM   36  C   UNL     1     -39.041  51.079 -53.644  1.00  0.00     0.001 A 
HETATM   37  C   UNL     1     -40.142  50.248 -53.832  1.00  0.00     0.000 A 
HETATM   38  C   UNL     1     -41.315  50.764 -54.380  1.00  0.00     0.001 A 
HETATM   39  C   UNL     1     -41.384  52.107 -54.752  1.00  0.00     0.007 A 
ENDBRANCH  33  34
ENDBRANCH  32  33
ENDBRANCH   6  32
TORSDOF 7
ENDMDL
MODEL 7
REMARK VINA RESULT:      -8.2      1.657      2.065
REMARK  7 active torsions:
REMARK  status: ('A' for Active; 'I' for Inactive)
REMARK    1  A    between atoms: O_2  and  C_3 
REMARK    2  A    between atoms: C_5  and  C_6 
REMARK    3  A    between atoms: C_10  and  C_11 
REMARK    4  A    between atoms: C_10  and  C_15 
REMARK    5  A    between atoms: N_19  and  C_20 
REMARK    6  A    between atoms: C_20  and  C_21 
REMARK    7  A    between atoms: C_21  and  C_22 
ROOT
HETATM    1  C   UNL     1     -43.952  57.281 -56.896  1.00  0.00     0.114 C 
HETATM    2  N   UNL     1     -43.568  56.455 -55.942  1.00  0.00    -0.327 N 
HETATM    3  C   UNL     1     -43.300  56.865 -54.653  1.00  0.00     0.128 A 
HETATM    4  C   UNL     1     -43.363  58.172 -54.361  1.00  0.00     0.100 A 
HETATM    5  C   UNL     1     -43.630  59.258 -55.375  1.00  0.00     0.264 C 
HETATM    6  N   UNL     1     -42.971  55.927 -53.689  1.00  0.00    -0.284 N 
HETATM    7  C   UNL     1     -42.740  56.287 -52.363  1.00  0.00     0.331 A 
HETATM    8  O   UNL     1     -42.478  55.490 -51.470  1.00  0.00    -0.246 OA
HETATM    9  N   UNL     1     -42.827  57.616 -52.086  1.00  0.00    -0.275 N 
HETATM   10  C   UNL     1     -43.124  58.589 -52.975  1.00  0.00     0.262 A 
HETATM   11  O   UNL     1     -43.208  59.765 -52.669  1.00  0.00    -0.267 OA
HETATM   12  N   UNL     1     -44.048  58.573 -56.676  1.00  0.00    -0.347 N 
HETATM   13  H   UNL     1     -44.399  59.167 -57.433  1.00  0.00     0.162 HD
HETATM   14  H   UNL     1     -43.499  55.478 -56.199  1.00  0.00     0.169 HD
HETATM   15  H   UNL     1     -42.666  57.885 -51.121  1.00  0.00     0.173 HD
ENDROOT
BRANCH   1  16
HETATM   16  C   UNL     1     -44.298  56.763 -58.230  1.00  0.00     0.010 A 
HETATM   17  C   UNL     1     -45.388  57.304 -58.933  1.00  0.00     0.052 A 
HETATM   18  C   UNL     1     -45.775  56.804 -60.180  1.00  0.00     0.069 A 
HETATM   19  C   UNL     1     -45.045  55.767 -60.754  1.00  0.00     0.037 A 
HETATM   20  C   UNL     1     -43.947  55.229 -60.078  1.00  0.00     0.004 A 
HETATM   21  C   UNL     1     -43.578  55.717 -58.821  1.00  0.00     0.015 A 
BRANCH  18  22
HETATM   22  O   UNL     1     -46.871  57.416 -60.714  1.00  0.00    -0.356 OA
HETATM   23  C   UNL     1     -47.762  56.602 -61.471  1.00  0.00     0.210 C 
ENDBRANCH  18  22
ENDBRANCH   1  16
BRANCH   5  24
HETATM   24  C   UNL     1     -42.378  60.083 -55.687  1.00  0.00     0.426 C 
HETATM   25  F   UNL     1     -41.508  59.966 -54.646  1.00  0.00    -0.168 F 
HETATM   26  F   UNL     1     -41.739  59.581 -56.771  1.00  0.00    -0.168 F 
HETATM   27  F   UNL     1     -42.585  61.389 -55.884  1.00  0.00    -0.168 F 
ENDBRANCH   5  24
BRANCH   5  28
HETATM   28  C   UNL     1     -44.731  60.269 -55.032  1.00  0.00     0.426 C 
HETATM   29  F   UNL     1     -45.751  59.641 -54.394  1.00  0.00    -0.168 F 
HETATM   30  F   UNL     1     -44.358  61.328 -54.308  1.00  0.00    -0.168 F 
HETATM   31  F   UNL     1     -45.257  60.745 -56.195  1.00  0.00    -0.168 F 
ENDBRANCH   5  28
BRANCH   6  32
HETATM   32  C   UNL     1     -42.860  54.488 -53.968  1.00  0.00     0.140 C 
BRANCH  32  33
HETATM   33  C   UNL     1     -41.496  54.115 -54.566  1.00  0.00     0.059 C 
BRANCH  33  34
HETATM   34  C   UNL     1     -40.780  53.052 -53.770  1.00  0.00    -0.057 A 
HETATM   35  C   UNL     1     -40.422  53.271 -52.431  1.00  0.00     0.007 A 
HETATM   36  C   UNL     1     -39.771  52.278 -51.697  1.00  0.00     0.001 A 
HETATM   37  C   UNL     1     -39.484  51.050 -52.286  1.00  0.00     0.000 A 
HETATM   38  C   UNL     1     -39.855  50.810 -53.607  1.00  0.00     0.001 A 
HETATM   39  C   UNL     1     -40.502  51.803 -54.345  1.00  0.00     0.007 A 
ENDBRANCH  33  34
ENDBRANCH  32  33
ENDBRANCH   6  32
TORSDOF 7
ENDMDL
MODEL 8
REMARK VINA RESULT:      -8.1      2.041      6.375
REMARK  7 active torsions:
REMARK  status: ('A' for Active; 'I' for Inactive)
REMARK    1  A    between atoms: O_2  and  C_3 
REMARK    2  A    between atoms: C_5  and  C_6 
REMARK    3  A    between atoms: C_10  and  C_11 
REMARK    4  A    between atoms: C_10  and  C_15 
REMARK    5  A    between atoms: N_19  and  C_20 
REMARK    6  A    between atoms: C_20  and  C_21 
REMARK    7  A    between atoms: C_21  and  C_22 
ROOT
HETATM    1  C   UNL     1     -41.489  55.596 -52.949  1.00  0.00     0.114 C 
HETATM    2  N   UNL     1     -41.733  55.994 -54.182  1.00  0.00    -0.327 N 
HETATM    3  C   UNL     1     -42.239  57.239 -54.486  1.00  0.00     0.128 A 
HETATM    4  C   UNL     1     -42.567  58.070 -53.485  1.00  0.00     0.100 A 
HETATM    5  C   UNL     1     -42.499  57.705 -52.023  1.00  0.00     0.264 C 
HETATM    6  N   UNL     1     -42.400  57.610 -55.811  1.00  0.00    -0.284 N 
HETATM    7  C   UNL     1     -42.862  58.875 -56.168  1.00  0.00     0.331 A 
HETATM    8  O   UNL     1     -42.990  59.259 -57.325  1.00  0.00    -0.246 OA
HETATM    9  N   UNL     1     -43.171  59.706 -55.137  1.00  0.00    -0.275 N 
HETATM   10  C   UNL     1     -43.057  59.409 -53.824  1.00  0.00     0.262 A 
HETATM   11  O   UNL     1     -43.331  60.200 -52.939  1.00  0.00    -0.267 OA
HETATM   12  N   UNL     1     -41.774  56.364 -51.920  1.00  0.00    -0.347 N 
HETATM   13  H   UNL     1     -41.520  56.032 -50.985  1.00  0.00     0.162 HD
HETATM   14  H   UNL     1     -41.505  55.334 -54.916  1.00  0.00     0.169 HD
HETATM   15  H   UNL     1     -43.501  60.631 -55.390  1.00  0.00     0.173 HD
ENDROOT
BRANCH   1  16
HETATM   16  C   UNL     1     -40.875  54.281 -52.700  1.00  0.00     0.010 A 
HETATM   17  C   UNL     1     -40.757  53.351 -53.747  1.00  0.00     0.052 A 
HETATM   18  C   UNL     1     -40.226  52.076 -53.535  1.00  0.00     0.069 A 
HETATM   19  C   UNL     1     -39.773  51.729 -52.266  1.00  0.00     0.037 A 
HETATM   20  C   UNL     1     -39.866  52.647 -51.217  1.00  0.00     0.004 A 
HETATM   21  C   UNL     1     -40.419  53.912 -51.428  1.00  0.00     0.015 A 
BRANCH  18  22
HETATM   22  O   UNL     1     -40.211  51.283 -54.646  1.00  0.00    -0.356 OA
HETATM   23  C   UNL     1     -39.719  49.956 -54.487  1.00  0.00     0.210 C 
ENDBRANCH  18  22
ENDBRANCH   1  16
BRANCH   5  24
HETATM   24  C   UNL     1     -43.889  57.509 -51.408  1.00  0.00     0.426 C 
HETATM   25  F   UNL     1     -44.270  58.672 -50.811  1.00  0.00    -0.168 F 
HETATM   26  F   UNL     1     -44.804  57.263 -52.374  1.00  0.00    -0.168 F 
HETATM   27  F   UNL     1     -43.977  56.545 -50.485  1.00  0.00    -0.168 F 
ENDBRANCH   5  24
BRANCH   5  28
HETATM   28  C   UNL     1     -41.759  58.682 -51.100  1.00  0.00     0.426 C 
HETATM   29  F   UNL     1     -42.584  59.701 -50.752  1.00  0.00    -0.168 F 
HETATM   30  F   UNL     1     -41.227  58.160 -49.991  1.00  0.00    -0.168 F 
HETATM   31  F   UNL     1     -40.740  59.251 -51.802  1.00  0.00    -0.168 F 
ENDBRANCH   5  28
BRANCH   6  32
HETATM   32  C   UNL     1     -42.084  56.724 -56.941  1.00  0.00     0.140 C 
BRANCH  32  33
HETATM   33  C   UNL     1     -43.105  55.587 -57.093  1.00  0.00     0.059 C 
BRANCH  33  34
HETATM   34  C   UNL     1     -43.818  55.616 -58.422  1.00  0.00    -0.057 A 
HETATM   35  C   UNL     1     -44.185  56.832 -59.018  1.00  0.00     0.007 A 
HETATM   36  C   UNL     1     -44.833  56.851 -60.254  1.00  0.00     0.001 A 
HETATM   37  C   UNL     1     -45.107  55.658 -60.917  1.00  0.00     0.000 A 
HETATM   38  C   UNL     1     -44.726  54.444 -60.348  1.00  0.00     0.001 A 
HETATM   39  C   UNL     1     -44.082  54.422 -59.109  1.00  0.00     0.007 A 
ENDBRANCH  33  34
ENDBRANCH  32  33
ENDBRANCH   6  32
TORSDOF 7
ENDMDL
MODEL 9
REMARK VINA RESULT:      -8.0     16.069     18.418
REMARK  7 active torsions:
REMARK  status: ('A' for Active; 'I' for Inactive)
REMARK    1  A    between atoms: O_2  and  C_3 
REMARK    2  A    between atoms: C_5  and  C_6 
REMARK    3  A    between atoms: C_10  and  C_11 
REMARK    4  A    between atoms: C_10  and  C_15 
REMARK    5  A    between atoms: N_19  and  C_20 
REMARK    6  A    between atoms: C_20  and  C_21 
REMARK    7  A    between atoms: C_21  and  C_22 
ROOT
HETATM    1  C   UNL     1     -37.813  40.172 -52.404  1.00  0.00     0.114 C 
HETATM    2  N   UNL     1     -37.594  40.812 -53.536  1.00  0.00    -0.327 N 
HETATM    3  C   UNL     1     -36.335  40.997 -54.065  1.00  0.00     0.128 A 
HETATM    4  C   UNL     1     -35.269  40.571 -53.372  1.00  0.00     0.100 A 
HETATM    5  C   UNL     1     -35.341  39.966 -51.992  1.00  0.00     0.264 C 
HETATM    6  N   UNL     1     -36.192  41.617 -55.296  1.00  0.00    -0.284 N 
HETATM    7  C   UNL     1     -34.945  41.783 -55.894  1.00  0.00     0.331 A 
HETATM    8  O   UNL     1     -34.772  42.295 -56.994  1.00  0.00    -0.246 OA
HETATM    9  N   UNL     1     -33.880  41.327 -55.181  1.00  0.00    -0.275 N 
HETATM   10  C   UNL     1     -33.940  40.730 -53.970  1.00  0.00     0.262 A 
HETATM   11  O   UNL     1     -32.954  40.322 -53.382  1.00  0.00    -0.267 OA
HETATM   12  N   UNL     1     -36.816  39.717 -51.679  1.00  0.00    -0.347 N 
HETATM   13  H   UNL     1     -37.037  39.182 -50.834  1.00  0.00     0.162 HD
HETATM   14  H   UNL     1     -38.415  41.150 -54.022  1.00  0.00     0.169 HD
HETATM   15  H   UNL     1     -32.970  41.439 -55.613  1.00  0.00     0.173 HD
ENDROOT
BRANCH   1  16
HETATM   16  C   UNL     1     -39.190  39.942 -51.935  1.00  0.00     0.010 A 
HETATM   17  C   UNL     1     -39.460  38.902 -51.030  1.00  0.00     0.052 A 
HETATM   18  C   UNL     1     -40.761  38.623 -50.604  1.00  0.00     0.069 A 
HETATM   19  C   UNL     1     -41.811  39.414 -51.060  1.00  0.00     0.037 A 
HETATM   20  C   UNL     1     -41.560  40.464 -51.947  1.00  0.00     0.004 A 
HETATM   21  C   UNL     1     -40.260  40.724 -52.389  1.00  0.00     0.015 A 
BRANCH  18  22
HETATM   22  O   UNL     1     -40.857  37.563 -49.750  1.00  0.00    -0.356 OA
HETATM   23  C   UNL     1     -40.334  37.739 -48.437  1.00  0.00     0.210 C 
ENDBRANCH  18  22
ENDBRANCH   1  16
BRANCH   5  24
HETATM   24  C   UNL     1     -34.811  40.916 -50.912  1.00  0.00     0.426 C 
HETATM   25  F   UNL     1     -34.956  42.197 -51.349  1.00  0.00    -0.168 F 
HETATM   26  F   UNL     1     -35.555  40.814 -49.786  1.00  0.00    -0.168 F 
HETATM   27  F   UNL     1     -33.524  40.754 -50.587  1.00  0.00    -0.168 F 
ENDBRANCH   5  24
BRANCH   5  28
HETATM   28  C   UNL     1     -34.611  38.634 -51.782  1.00  0.00     0.426 C 
HETATM   29  F   UNL     1     -34.742  37.858 -52.886  1.00  0.00    -0.168 F 
HETATM   30  F   UNL     1     -33.315  38.712 -51.461  1.00  0.00    -0.168 F 
HETATM   31  F   UNL     1     -35.230  37.956 -50.775  1.00  0.00    -0.168 F 
ENDBRANCH   5  28
BRANCH   6  32
HETATM   32  C   UNL     1     -37.327  42.128 -56.078  1.00  0.00     0.140 C 
BRANCH  32  33
HETATM   33  C   UNL     1     -38.241  41.002 -56.583  1.00  0.00     0.059 C 
BRANCH  33  34
HETATM   34  C   UNL     1     -37.986  40.644 -58.026  1.00  0.00    -0.057 A 
HETATM   35  C   UNL     1     -37.489  41.597 -58.928  1.00  0.00     0.007 A 
HETATM   36  C   UNL     1     -37.244  41.256 -60.259  1.00  0.00     0.001 A 
HETATM   37  C   UNL     1     -37.477  39.956 -60.700  1.00  0.00     0.000 A 
HETATM   38  C   UNL     1     -37.947  38.994 -59.809  1.00  0.00     0.001 A 
HETATM   39  C   UNL     1     -38.198  39.334 -58.479  1.00  0.00     0.007 A 
ENDBRANCH  33  34
ENDBRANCH  32  33
ENDBRANCH   6  32
TORSDOF 7
ENDMDL
MODEL 10
REMARK VINA RESULT:      -8.0     16.175     18.866
REMARK  7 active torsions:
REMARK  status: ('A' for Active; 'I' for Inactive)
REMARK    1  A    between atoms: O_2  and  C_3 
REMARK    2  A    between atoms: C_5  and  C_6 
REMARK    3  A    between atoms: C_10  and  C_11 
REMARK    4  A    between atoms: C_10  and  C_15 
REMARK    5  A    between atoms: N_19  and  C_20 
REMARK    6  A    between atoms: C_20  and  C_21 
REMARK    7  A    between atoms: C_21  and  C_22 
ROOT
HETATM    1  C   UNL     1     -36.289  39.962 -53.014  1.00  0.00     0.114 C 
HETATM    2  N   UNL     1     -35.486  39.321 -53.840  1.00  0.00    -0.327 N 
HETATM    3  C   UNL     1     -34.308  38.729 -53.437  1.00  0.00     0.128 A 
HETATM    4  C   UNL     1     -33.916  38.863 -52.162  1.00  0.00     0.100 A 
HETATM    5  C   UNL     1     -34.639  39.698 -51.134  1.00  0.00     0.264 C 
HETATM    6  N   UNL     1     -33.554  38.011 -54.351  1.00  0.00    -0.284 N 
HETATM    7  C   UNL     1     -32.382  37.355 -53.980  1.00  0.00     0.331 A 
HETATM    8  O   UNL     1     -31.699  36.682 -54.744  1.00  0.00    -0.246 OA
HETATM    9  N   UNL     1     -32.013  37.490 -52.677  1.00  0.00    -0.275 N 
HETATM   10  C   UNL     1     -32.687  38.187 -51.736  1.00  0.00     0.262 A 
HETATM   11  O   UNL     1     -32.321  38.260 -50.576  1.00  0.00    -0.267 OA
HETATM   12  N   UNL     1     -35.974  40.120 -51.748  1.00  0.00    -0.347 N 
HETATM   13  H   UNL     1     -36.653  40.581 -51.135  1.00  0.00     0.162 HD
HETATM   14  H   UNL     1     -35.792  39.262 -54.803  1.00  0.00     0.169 HD
HETATM   15  H   UNL     1     -31.165  37.009 -52.399  1.00  0.00     0.173 HD
ENDROOT
BRANCH   1  16
HETATM   16  C   UNL     1     -37.571  40.504 -53.496  1.00  0.00     0.010 A 
HETATM   17  C   UNL     1     -38.638  40.688 -52.600  1.00  0.00     0.052 A 
HETATM   18  C   UNL     1     -39.884  41.151 -53.032  1.00  0.00     0.069 A 
HETATM   19  C   UNL     1     -40.063  41.470 -54.375  1.00  0.00     0.037 A 
HETATM   20  C   UNL     1     -39.009  41.310 -55.277  1.00  0.00     0.004 A 
HETATM   21  C   UNL     1     -37.772  40.824 -54.845  1.00  0.00     0.015 A 
BRANCH  18  22
HETATM   22  O   UNL     1     -40.821  41.244 -52.045  1.00  0.00    -0.356 OA
HETATM   23  C   UNL     1     -41.598  40.080 -51.778  1.00  0.00     0.210 C 
ENDBRANCH  18  22
ENDBRANCH   1  16
BRANCH   5  24
HETATM   24  C   UNL     1     -33.880  40.984 -50.791  1.00  0.00     0.426 C 
HETATM   25  F   UNL     1     -33.116  41.338 -51.860  1.00  0.00    -0.168 F 
HETATM   26  F   UNL     1     -34.746  42.005 -50.591  1.00  0.00    -0.168 F 
HETATM   27  F   UNL     1     -33.066  40.905 -49.732  1.00  0.00    -0.168 F 
ENDBRANCH   5  24
BRANCH   5  28
HETATM   28  C   UNL     1     -34.960  39.023 -49.795  1.00  0.00     0.426 C 
HETATM   29  F   UNL     1     -35.323  37.733 -50.006  1.00  0.00    -0.168 F 
HETATM   30  F   UNL     1     -33.996  39.054 -48.870  1.00  0.00    -0.168 F 
HETATM   31  F   UNL     1     -36.052  39.633 -49.254  1.00  0.00    -0.168 F 
ENDBRANCH   5  28
BRANCH   6  32
HETATM   32  C   UNL     1     -33.926  37.862 -55.764  1.00  0.00     0.140 C 
BRANCH  32  33
HETATM   33  C   UNL     1     -33.326  38.968 -56.645  1.00  0.00     0.059 C 
BRANCH  33  34
HETATM   34  C   UNL     1     -34.348  39.993 -57.072  1.00  0.00    -0.057 A 
HETATM   35  C   UNL     1     -35.430  39.636 -57.891  1.00  0.00     0.007 A 
HETATM   36  C   UNL     1     -36.378  40.586 -58.272  1.00  0.00     0.001 A 
HETATM   37  C   UNL     1     -36.266  41.900 -57.826  1.00  0.00     0.000 A 
HETATM   38  C   UNL     1     -35.211  42.263 -56.992  1.00  0.00     0.001 A 
HETATM   39  C   UNL     1     -34.258  41.315 -56.614  1.00  0.00     0.007 A 
ENDBRANCH  33  34
ENDBRANCH  32  33
ENDBRANCH   6  32
TORSDOF 7
ENDMDL
