MODEL 1
REMARK VINA RESULT:      -8.7      0.000      0.000
REMARK  8 active torsions:
REMARK  status: ('A' for Active; 'I' for Inactive)
REMARK    1  A    between atoms: O_2  and  C_3 
REMARK    2  A    between atoms: C_6  and  N_7 
REMARK    3  A    between atoms: N_7  and  C_8 
REMARK    4  A    between atoms: C_11  and  C_12 
REMARK    5  A    between atoms: C_15  and  C_16 
REMARK       I    between atoms: C_16  and  N_17 
REMARK    6  A    between atoms: N_17  and  C_18 
REMARK    7  A    between atoms: C_18  and  C_19 
REMARK    8  A    between atoms: C_19  and  O_20 
ROOT
HETATM    1  C   UNL     1     -35.956  41.937 -54.911  1.00  0.00     0.161 A 
HETATM    2  N   UNL     1     -36.334  42.032 -53.619  1.00  0.00    -0.131 NA
HETATM    3  N   UNL     1     -35.557  41.526 -52.617  1.00  0.00    -0.147 NA
HETATM    4  C   UNL     1     -34.383  40.921 -52.906  1.00  0.00     0.100 A 
HETATM    5  C   UNL     1     -33.926  40.784 -54.229  1.00  0.00     0.009 A 
HETATM    6  C   UNL     1     -34.735  41.317 -55.261  1.00  0.00     0.024 A 
HETATM    7  C   UNL     1     -32.713  40.138 -54.582  1.00  0.00     0.015 A 
HETATM    8  C   UNL     1     -32.291  40.044 -55.908  1.00  0.00     0.001 A 
HETATM    9  C   UNL     1     -33.068  40.590 -56.917  1.00  0.00     0.001 A 
HETATM   10  C   UNL     1     -34.273  41.217 -56.598  1.00  0.00     0.016 A 
ENDROOT
BRANCH   4  11
HETATM   11  C   UNL     1     -33.667  40.444 -51.714  1.00  0.00    -0.005 A 
HETATM   12  C   UNL     1     -34.383  39.984 -50.595  1.00  0.00     0.015 A 
HETATM   13  C   UNL     1     -33.721  39.565 -49.435  1.00  0.00     0.018 A 
HETATM   14  C   UNL     1     -32.325  39.616 -49.372  1.00  0.00     0.032 A 
HETATM   15  C   UNL     1     -31.599  40.057 -50.484  1.00  0.00     0.018 A 
HETATM   16  C   UNL     1     -32.265  40.476 -51.640  1.00  0.00     0.015 A 
BRANCH  14  17
HETATM   17  C   UNL     1     -31.574  39.212 -48.153  1.00  0.00     0.251 C 
HETATM   18  N   UNL     1     -30.927  40.217 -47.467  1.00  0.00    -0.355 N 
HETATM   19  H   UNL     1     -30.862  41.144 -47.866  1.00  0.00     0.162 HD
HETATM   20  O   UNL     1     -31.514  38.032 -47.826  1.00  0.00    -0.268 OA
BRANCH  18  21
HETATM   21  C   UNL     1     -30.111  39.934 -46.297  1.00  0.00     0.148 C 
BRANCH  21  22
HETATM   22  C   UNL     1     -28.646  39.690 -46.656  1.00  0.00     0.183 C 
BRANCH  22  23
HETATM   23  O   UNL     1     -28.048  40.899 -47.122  1.00  0.00    -0.399 OA
HETATM   24  H   UNL     1     -28.102  41.526 -46.378  1.00  0.00     0.209 HD
ENDBRANCH  22  23
ENDBRANCH  21  22
ENDBRANCH  18  21
ENDBRANCH  14  17
ENDBRANCH   4  11
BRANCH   1  25
HETATM   25  N   UNL     1     -36.809  42.432 -55.935  1.00  0.00    -0.339 N 
HETATM   26  H   UNL     1     -36.546  43.391 -56.139  1.00  0.00     0.167 HD
BRANCH  25  27
HETATM   27  C   UNL     1     -37.243  41.745 -57.089  1.00  0.00     0.033 A 
HETATM   28  C   UNL     1     -36.963  42.202 -58.382  1.00  0.00     0.032 A 
HETATM   29  C   UNL     1     -37.331  41.462 -59.514  1.00  0.00     0.039 A 
HETATM   30  C   UNL     1     -37.972  40.235 -59.368  1.00  0.00     0.068 A 
HETATM   31  C   UNL     1     -38.239  39.759 -58.085  1.00  0.00     0.039 A 
HETATM   32  C   UNL     1     -37.865  40.497 -56.957  1.00  0.00     0.032 A 
BRANCH  30  33
HETATM   33  O   UNL     1     -38.377  39.412 -60.383  1.00  0.00    -0.356 OA
HETATM   34  C   UNL     1     -37.475  39.250 -61.471  1.00  0.00     0.210 C 
ENDBRANCH  30  33
ENDBRANCH  25  27
ENDBRANCH   1  25
TORSDOF 8
ENDMDL
MODEL 2
REMARK VINA RESULT:      -8.2     16.712     18.991
REMARK  8 active torsions:
REMARK  status: ('A' for Active; 'I' for Inactive)
REMARK    1  A    between atoms: O_2  and  C_3 
REMARK    2  A    between atoms: C_6  and  N_7 
REMARK    3  A    between atoms: N_7  and  C_8 
REMARK    4  A    between atoms: C_11  and  C_12 
REMARK    5  A    between atoms: C_15  and  C_16 
REMARK       I    between atoms: C_16  and  N_17 
REMARK    6  A    between atoms: N_17  and  C_18 
REMARK    7  A    between atoms: C_18  and  C_19 
REMARK    8  A    between atoms: C_19  and  O_20 
ROOT
HETATM    1  C   UNL     1     -42.339  59.433 -57.060  1.00  0.00     0.161 A 
HETATM    2  N   UNL     1     -41.755  59.504 -55.846  1.00  0.00    -0.131 NA
HETATM    3  N   UNL     1     -41.533  58.380 -55.103  1.00  0.00    -0.147 NA
HETATM    4  C   UNL     1     -41.891  57.167 -55.580  1.00  0.00     0.100 A 
HETATM    5  C   UNL     1     -42.506  57.017 -56.836  1.00  0.00     0.009 A 
HETATM    6  C   UNL     1     -42.727  58.186 -57.602  1.00  0.00     0.024 A 
HETATM    7  C   UNL     1     -42.920  55.768 -57.367  1.00  0.00     0.015 A 
HETATM    8  C   UNL     1     -43.508  55.666 -58.628  1.00  0.00     0.001 A 
HETATM    9  C   UNL     1     -43.700  56.807 -59.391  1.00  0.00     0.001 A 
HETATM   10  C   UNL     1     -43.316  58.049 -58.885  1.00  0.00     0.016 A 
ENDROOT
BRANCH   4  11
HETATM   11  C   UNL     1     -41.571  56.065 -54.661  1.00  0.00    -0.005 A 
HETATM   12  C   UNL     1     -42.148  56.020 -53.380  1.00  0.00     0.015 A 
HETATM   13  C   UNL     1     -41.824  55.002 -52.476  1.00  0.00     0.018 A 
HETATM   14  C   UNL     1     -40.900  54.017 -52.837  1.00  0.00     0.032 A 
HETATM   15  C   UNL     1     -40.330  54.040 -54.115  1.00  0.00     0.018 A 
HETATM   16  C   UNL     1     -40.656  55.060 -55.015  1.00  0.00     0.015 A 
BRANCH  14  17
HETATM   17  C   UNL     1     -40.498  52.930 -51.903  1.00  0.00     0.251 C 
HETATM   18  N   UNL     1     -39.831  51.859 -52.458  1.00  0.00    -0.355 N 
HETATM   19  H   UNL     1     -39.755  51.772 -53.462  1.00  0.00     0.162 HD
HETATM   20  O   UNL     1     -40.799  52.991 -50.717  1.00  0.00    -0.268 OA
BRANCH  18  21
HETATM   21  C   UNL     1     -39.442  50.710 -51.655  1.00  0.00     0.148 C 
BRANCH  21  22
HETATM   22  C   UNL     1     -39.744  49.385 -52.355  1.00  0.00     0.183 C 
BRANCH  22  23
HETATM   23  O   UNL     1     -39.281  49.427 -53.705  1.00  0.00    -0.399 OA
HETATM   24  H   UNL     1     -39.934  49.963 -54.191  1.00  0.00     0.209 HD
ENDBRANCH  22  23
ENDBRANCH  21  22
ENDBRANCH  18  21
ENDBRANCH  14  17
ENDBRANCH   4  11
BRANCH   1  25
HETATM   25  N   UNL     1     -42.600  60.625 -57.790  1.00  0.00    -0.339 N 
HETATM   26  H   UNL     1     -43.027  61.300 -57.164  1.00  0.00     0.167 HD
BRANCH  25  27
HETATM   27  C   UNL     1     -41.761  61.243 -58.742  1.00  0.00     0.033 A 
HETATM   28  C   UNL     1     -42.073  61.274 -60.106  1.00  0.00     0.032 A 
HETATM   29  C   UNL     1     -41.270  61.964 -61.023  1.00  0.00     0.039 A 
HETATM   30  C   UNL     1     -40.144  62.657 -60.584  1.00  0.00     0.068 A 
HETATM   31  C   UNL     1     -39.834  62.651 -59.224  1.00  0.00     0.039 A 
HETATM   32  C   UNL     1     -40.642  61.965 -58.310  1.00  0.00     0.032 A 
BRANCH  30  33
HETATM   33  O   UNL     1     -39.283  63.374 -61.368  1.00  0.00    -0.356 OA
HETATM   34  C   UNL     1     -39.381  63.173 -62.772  1.00  0.00     0.210 C 
ENDBRANCH  30  33
ENDBRANCH  25  27
ENDBRANCH   1  25
TORSDOF 8
ENDMDL
MODEL 3
REMARK VINA RESULT:      -8.2     18.623     20.598
REMARK  8 active torsions:
REMARK  status: ('A' for Active; 'I' for Inactive)
REMARK    1  A    between atoms: O_2  and  C_3 
REMARK    2  A    between atoms: C_6  and  N_7 
REMARK    3  A    between atoms: N_7  and  C_8 
REMARK    4  A    between atoms: C_11  and  C_12 
REMARK    5  A    between atoms: C_15  and  C_16 
REMARK       I    between atoms: C_16  and  N_17 
REMARK    6  A    between atoms: N_17  and  C_18 
REMARK    7  A    between atoms: C_18  and  C_19 
REMARK    8  A    between atoms: C_19  and  O_20 
ROOT
HETATM    1  C   UNL     1     -42.517  57.430 -56.211  1.00  0.00     0.161 A 
HETATM    2  N   UNL     1     -43.312  58.515 -56.093  1.00  0.00    -0.131 NA
HETATM    3  N   UNL     1     -43.710  58.968 -54.870  1.00  0.00    -0.147 NA
HETATM    4  C   UNL     1     -43.307  58.336 -53.745  1.00  0.00     0.100 A 
HETATM    5  C   UNL     1     -42.480  57.198 -53.790  1.00  0.00     0.009 A 
HETATM    6  C   UNL     1     -42.066  56.738 -55.062  1.00  0.00     0.024 A 
HETATM    7  C   UNL     1     -42.051  56.490 -52.638  1.00  0.00     0.015 A 
HETATM    8  C   UNL     1     -41.214  55.378 -52.731  1.00  0.00     0.001 A 
HETATM    9  C   UNL     1     -40.786  54.943 -53.976  1.00  0.00     0.001 A 
HETATM   10  C   UNL     1     -41.207  55.613 -55.125  1.00  0.00     0.016 A 
ENDROOT
BRANCH   4  11
HETATM   11  C   UNL     1     -43.815  58.960 -52.514  1.00  0.00    -0.005 A 
HETATM   12  C   UNL     1     -45.004  58.496 -51.924  1.00  0.00     0.015 A 
HETATM   13  C   UNL     1     -45.526  59.103 -50.777  1.00  0.00     0.018 A 
HETATM   14  C   UNL     1     -44.872  60.200 -50.208  1.00  0.00     0.032 A 
HETATM   15  C   UNL     1     -43.680  60.663 -50.776  1.00  0.00     0.018 A 
HETATM   16  C   UNL     1     -43.162  60.054 -51.924  1.00  0.00     0.015 A 
BRANCH  14  17
HETATM   17  C   UNL     1     -45.402  60.900 -49.007  1.00  0.00     0.251 C 
HETATM   18  N   UNL     1     -44.743  60.665 -47.819  1.00  0.00    -0.355 N 
HETATM   19  H   UNL     1     -44.034  59.947 -47.764  1.00  0.00     0.162 HD
HETATM   20  O   UNL     1     -46.400  61.606 -49.092  1.00  0.00    -0.268 OA
BRANCH  18  21
HETATM   21  C   UNL     1     -45.206  61.245 -46.568  1.00  0.00     0.148 C 
BRANCH  21  22
HETATM   22  C   UNL     1     -46.310  60.413 -45.915  1.00  0.00     0.183 C 
BRANCH  22  23
HETATM   23  O   UNL     1     -47.590  60.883 -46.337  1.00  0.00    -0.399 OA
HETATM   24  H   UNL     1     -47.569  60.873 -47.311  1.00  0.00     0.209 HD
ENDBRANCH  22  23
ENDBRANCH  21  22
ENDBRANCH  18  21
ENDBRANCH  14  17
ENDBRANCH   4  11
BRANCH   1  25
HETATM   25  N   UNL     1     -42.157  56.953 -57.501  1.00  0.00    -0.339 N 
HETATM   26  H   UNL     1     -41.354  56.341 -57.406  1.00  0.00     0.167 HD
BRANCH  25  27
HETATM   27  C   UNL     1     -43.029  56.528 -58.527  1.00  0.00     0.033 A 
HETATM   28  C   UNL     1     -43.478  55.206 -58.626  1.00  0.00     0.032 A 
HETATM   29  C   UNL     1     -44.407  54.823 -59.603  1.00  0.00     0.039 A 
HETATM   30  C   UNL     1     -44.922  55.767 -60.487  1.00  0.00     0.068 A 
HETATM   31  C   UNL     1     -44.497  57.092 -60.385  1.00  0.00     0.039 A 
HETATM   32  C   UNL     1     -43.573  57.472 -59.405  1.00  0.00     0.032 A 
BRANCH  30  33
HETATM   33  O   UNL     1     -45.836  55.530 -61.477  1.00  0.00    -0.356 OA
HETATM   34  C   UNL     1     -47.083  56.204 -61.368  1.00  0.00     0.210 C 
ENDBRANCH  30  33
ENDBRANCH  25  27
ENDBRANCH   1  25
TORSDOF 8
ENDMDL
MODEL 4
REMARK VINA RESULT:      -8.2     16.019     18.351
REMARK  8 active torsions:
REMARK  status: ('A' for Active; 'I' for Inactive)
REMARK    1  A    between atoms: O_2  and  C_3 
REMARK    2  A    between atoms: C_6  and  N_7 
REMARK    3  A    between atoms: N_7  and  C_8 
REMARK    4  A    between atoms: C_11  and  C_12 
REMARK    5  A    between atoms: C_15  and  C_16 
REMARK       I    between atoms: C_16  and  N_17 
REMARK    6  A    between atoms: N_17  and  C_18 
REMARK    7  A    between atoms: C_18  and  C_19 
REMARK    8  A    between atoms: C_19  and  O_20 
ROOT
HETATM    1  C   UNL     1     -44.390  57.573 -58.045  1.00  0.00     0.161 A 
HETATM    2  N   UNL     1     -43.669  56.536 -58.521  1.00  0.00    -0.131 NA
HETATM    3  N   UNL     1     -42.982  55.710 -57.679  1.00  0.00    -0.147 NA
HETATM    4  C   UNL     1     -43.017  55.915 -56.344  1.00  0.00     0.100 A 
HETATM    5  C   UNL     1     -43.745  56.977 -55.776  1.00  0.00     0.009 A 
HETATM    6  C   UNL     1     -44.460  57.825 -56.655  1.00  0.00     0.024 A 
HETATM    7  C   UNL     1     -43.793  57.246 -54.384  1.00  0.00     0.015 A 
HETATM    8  C   UNL     1     -44.546  58.299 -53.866  1.00  0.00     0.001 A 
HETATM    9  C   UNL     1     -45.269  59.113 -54.723  1.00  0.00     0.001 A 
HETATM   10  C   UNL     1     -45.226  58.881 -56.098  1.00  0.00     0.016 A 
ENDROOT
BRANCH   4  11
HETATM   11  C   UNL     1     -42.234  54.930 -55.584  1.00  0.00    -0.005 A 
HETATM   12  C   UNL     1     -40.857  55.127 -55.378  1.00  0.00     0.015 A 
HETATM   13  C   UNL     1     -40.086  54.181 -54.693  1.00  0.00     0.018 A 
HETATM   14  C   UNL     1     -40.681  53.010 -54.216  1.00  0.00     0.032 A 
HETATM   15  C   UNL     1     -42.054  52.808 -54.400  1.00  0.00     0.018 A 
HETATM   16  C   UNL     1     -42.820  53.756 -55.086  1.00  0.00     0.015 A 
BRANCH  14  17
HETATM   17  C   UNL     1     -39.901  51.959 -53.508  1.00  0.00     0.251 C 
HETATM   18  N   UNL     1     -39.977  51.959 -52.132  1.00  0.00    -0.355 N 
HETATM   19  H   UNL     1     -40.428  52.723 -51.648  1.00  0.00     0.162 HD
HETATM   20  O   UNL     1     -39.200  51.177 -54.141  1.00  0.00    -0.268 OA
BRANCH  18  21
HETATM   21  C   UNL     1     -39.210  51.018 -51.330  1.00  0.00     0.148 C 
BRANCH  21  22
HETATM   22  C   UNL     1     -39.860  49.636 -51.276  1.00  0.00     0.183 C 
BRANCH  22  23
HETATM   23  O   UNL     1     -39.313  48.798 -52.295  1.00  0.00    -0.399 OA
HETATM   24  H   UNL     1     -38.559  49.290 -52.666  1.00  0.00     0.209 HD
ENDBRANCH  22  23
ENDBRANCH  21  22
ENDBRANCH  18  21
ENDBRANCH  14  17
ENDBRANCH   4  11
BRANCH   1  25
HETATM   25  N   UNL     1     -45.057  58.444 -58.949  1.00  0.00    -0.339 N 
HETATM   26  H   UNL     1     -44.366  59.046 -59.386  1.00  0.00     0.167 HD
BRANCH  25  27
HETATM   27  C   UNL     1     -46.108  58.115 -59.832  1.00  0.00     0.033 A 
HETATM   28  C   UNL     1     -46.795  59.085 -60.571  1.00  0.00     0.032 A 
HETATM   29  C   UNL     1     -47.779  58.729 -61.504  1.00  0.00     0.039 A 
HETATM   30  C   UNL     1     -48.077  57.388 -61.729  1.00  0.00     0.068 A 
HETATM   31  C   UNL     1     -47.385  56.412 -61.013  1.00  0.00     0.039 A 
HETATM   32  C   UNL     1     -46.399  56.769 -60.086  1.00  0.00     0.032 A 
BRANCH  30  33
HETATM   33  O   UNL     1     -49.005  56.906 -62.611  1.00  0.00    -0.356 OA
HETATM   34  C   UNL     1     -48.633  56.894 -63.984  1.00  0.00     0.210 C 
ENDBRANCH  30  33
ENDBRANCH  25  27
ENDBRANCH   1  25
TORSDOF 8
ENDMDL
MODEL 5
REMARK VINA RESULT:      -8.1     18.733     20.811
REMARK  8 active torsions:
REMARK  status: ('A' for Active; 'I' for Inactive)
REMARK    1  A    between atoms: O_2  and  C_3 
REMARK    2  A    between atoms: C_6  and  N_7 
REMARK    3  A    between atoms: N_7  and  C_8 
REMARK    4  A    between atoms: C_11  and  C_12 
REMARK    5  A    between atoms: C_15  and  C_16 
REMARK       I    between atoms: C_16  and  N_17 
REMARK    6  A    between atoms: N_17  and  C_18 
REMARK    7  A    between atoms: C_18  and  C_19 
REMARK    8  A    between atoms: C_19  and  O_20 
ROOT
HETATM    1  C   UNL     1     -45.190  59.190 -51.190  1.00  0.00     0.161 A 
HETATM    2  N   UNL     1     -45.415  57.967 -50.665  1.00  0.00    -0.131 NA
HETATM    3  N   UNL     1     -44.559  56.930 -50.901  1.00  0.00    -0.147 NA
HETATM    4  C   UNL     1     -43.459  57.115 -51.665  1.00  0.00     0.100 A 
HETATM    5  C   UNL     1     -43.162  58.361 -52.247  1.00  0.00     0.009 A 
HETATM    6  C   UNL     1     -44.051  59.432 -51.992  1.00  0.00     0.024 A 
HETATM    7  C   UNL     1     -42.034  58.596 -53.074  1.00  0.00     0.015 A 
HETATM    8  C   UNL     1     -41.769  59.855 -53.612  1.00  0.00     0.001 A 
HETATM    9  C   UNL     1     -42.624  60.912 -53.341  1.00  0.00     0.001 A 
HETATM   10  C   UNL     1     -43.750  60.703 -52.544  1.00  0.00     0.016 A 
ENDROOT
BRANCH   4  11
HETATM   11  C   UNL     1     -42.641  55.902 -51.808  1.00  0.00    -0.005 A 
HETATM   12  C   UNL     1     -41.750  55.524 -50.788  1.00  0.00     0.015 A 
HETATM   13  C   UNL     1     -40.932  54.397 -50.923  1.00  0.00     0.018 A 
HETATM   14  C   UNL     1     -40.982  53.635 -52.094  1.00  0.00     0.032 A 
HETATM   15  C   UNL     1     -41.875  53.990 -53.111  1.00  0.00     0.018 A 
HETATM   16  C   UNL     1     -42.690  55.119 -52.972  1.00  0.00     0.015 A 
BRANCH  14  17
HETATM   17  C   UNL     1     -40.112  52.446 -52.300  1.00  0.00     0.251 C 
HETATM   18  N   UNL     1     -39.917  52.047 -53.605  1.00  0.00    -0.355 N 
HETATM   19  H   UNL     1     -40.455  52.466 -54.351  1.00  0.00     0.162 HD
HETATM   20  O   UNL     1     -39.647  51.845 -51.339  1.00  0.00    -0.268 OA
BRANCH  18  21
HETATM   21  C   UNL     1     -39.136  50.862 -53.927  1.00  0.00     0.148 C 
BRANCH  21  22
HETATM   22  C   UNL     1     -39.910  49.569 -53.666  1.00  0.00     0.183 C 
BRANCH  22  23
HETATM   23  O   UNL     1     -39.483  48.983 -52.436  1.00  0.00    -0.399 OA
HETATM   24  H   UNL     1     -39.514  48.019 -52.578  1.00  0.00     0.209 HD
ENDBRANCH  22  23
ENDBRANCH  21  22
ENDBRANCH  18  21
ENDBRANCH  14  17
ENDBRANCH   4  11
BRANCH   1  25
HETATM   25  N   UNL     1     -46.124  60.237 -50.966  1.00  0.00    -0.339 N 
HETATM   26  H   UNL     1     -47.062  59.856 -51.041  1.00  0.00     0.167 HD
BRANCH  25  27
HETATM   27  C   UNL     1     -46.044  61.259 -49.995  1.00  0.00     0.033 A 
HETATM   28  C   UNL     1     -45.351  61.092 -48.790  1.00  0.00     0.032 A 
HETATM   29  C   UNL     1     -45.214  62.146 -47.876  1.00  0.00     0.039 A 
HETATM   30  C   UNL     1     -45.754  63.396 -48.164  1.00  0.00     0.068 A 
HETATM   31  C   UNL     1     -46.430  63.580 -49.370  1.00  0.00     0.039 A 
HETATM   32  C   UNL     1     -46.560  62.528 -50.284  1.00  0.00     0.032 A 
BRANCH  30  33
HETATM   33  O   UNL     1     -45.686  64.506 -47.368  1.00  0.00    -0.356 OA
HETATM   34  C   UNL     1     -46.409  64.458 -46.144  1.00  0.00     0.210 C 
ENDBRANCH  30  33
ENDBRANCH  25  27
ENDBRANCH   1  25
TORSDOF 8
ENDMDL
MODEL 6
REMARK VINA RESULT:      -8.0      1.624      2.041
REMARK  8 active torsions:
REMARK  status: ('A' for Active; 'I' for Inactive)
REMARK    1  A    between atoms: O_2  and  C_3 
REMARK    2  A    between atoms: C_6  and  N_7 
REMARK    3  A    between atoms: N_7  and  C_8 
REMARK    4  A    between atoms: C_11  and  C_12 
REMARK    5  A    between atoms: C_15  and  C_16 
REMARK       I    between atoms: C_16  and  N_17 
REMARK    6  A    between atoms: N_17  and  C_18 
REMARK    7  A    between atoms: C_18  and  C_19 
REMARK    8  A    between atoms: C_19  and  O_20 
ROOT
HETATM    1  C   UNL     1     -35.183  41.651 -54.933  1.00  0.00     0.161 A 
HETATM    2  N   UNL     1     -35.725  41.749 -53.701  1.00  0.00    -0.131 NA
HETATM    3  N   UNL     1     -35.126  41.174 -52.618  1.00  0.00    -0.147 NA
HETATM    4  C   UNL     1     -33.966  40.496 -52.762  1.00  0.00     0.100 A 
HETATM    5  C   UNL     1     -33.343  40.350 -54.016  1.00  0.00     0.009 A 
HETATM    6  C   UNL     1     -33.968  40.955 -55.132  1.00  0.00     0.024 A 
HETATM    7  C   UNL     1     -32.140  39.628 -54.219  1.00  0.00     0.015 A 
HETATM    8  C   UNL     1     -31.548  39.528 -55.478  1.00  0.00     0.001 A 
HETATM    9  C   UNL     1     -32.144  40.143 -56.568  1.00  0.00     0.001 A 
HETATM   10  C   UNL     1     -33.338  40.845 -56.398  1.00  0.00     0.016 A 
ENDROOT
BRANCH   4  11
HETATM   11  C   UNL     1     -33.451  39.951 -51.498  1.00  0.00    -0.005 A 
HETATM   12  C   UNL     1     -34.219  39.037 -50.755  1.00  0.00     0.015 A 
HETATM   13  C   UNL     1     -33.766  38.539 -49.529  1.00  0.00     0.018 A 
HETATM   14  C   UNL     1     -32.536  38.963 -49.016  1.00  0.00     0.032 A 
HETATM   15  C   UNL     1     -31.753  39.860 -49.752  1.00  0.00     0.018 A 
HETATM   16  C   UNL     1     -32.212  40.356 -50.977  1.00  0.00     0.015 A 
BRANCH  14  17
HETATM   17  C   UNL     1     -32.021  38.487 -47.704  1.00  0.00     0.251 C 
HETATM   18  N   UNL     1     -32.965  38.179 -46.748  1.00  0.00    -0.355 N 
HETATM   19  H   UNL     1     -33.938  38.404 -46.904  1.00  0.00     0.162 HD
HETATM   20  O   UNL     1     -30.814  38.428 -47.497  1.00  0.00    -0.268 OA
BRANCH  18  21
HETATM   21  C   UNL     1     -32.581  37.763 -45.408  1.00  0.00     0.148 C 
BRANCH  21  22
HETATM   22  C   UNL     1     -33.789  37.559 -44.495  1.00  0.00     0.183 C 
BRANCH  22  23
HETATM   23  O   UNL     1     -33.368  37.493 -43.132  1.00  0.00    -0.399 OA
HETATM   24  H   UNL     1     -33.130  36.561 -42.974  1.00  0.00     0.209 HD
ENDBRANCH  22  23
ENDBRANCH  21  22
ENDBRANCH  18  21
ENDBRANCH  14  17
ENDBRANCH   4  11
BRANCH   1  25
HETATM   25  N   UNL     1     -35.854  42.220 -56.049  1.00  0.00    -0.339 N 
HETATM   26  H   UNL     1     -35.239  42.900 -56.483  1.00  0.00     0.167 HD
BRANCH  25  27
HETATM   27  C   UNL     1     -36.653  41.546 -56.999  1.00  0.00     0.033 A 
HETATM   28  C   UNL     1     -36.736  41.959 -58.334  1.00  0.00     0.032 A 
HETATM   29  C   UNL     1     -37.469  41.228 -59.278  1.00  0.00     0.039 A 
HETATM   30  C   UNL     1     -38.117  40.054 -58.905  1.00  0.00     0.068 A 
HETATM   31  C   UNL     1     -38.025  39.622 -57.582  1.00  0.00     0.039 A 
HETATM   32  C   UNL     1     -37.288  40.351 -56.642  1.00  0.00     0.032 A 
BRANCH  30  33
HETATM   33  O   UNL     1     -38.855  39.246 -59.725  1.00  0.00    -0.356 OA
HETATM   34  C   UNL     1     -38.238  38.833 -60.937  1.00  0.00     0.210 C 
ENDBRANCH  30  33
ENDBRANCH  25  27
ENDBRANCH   1  25
TORSDOF 8
ENDMDL
MODEL 7
REMARK VINA RESULT:      -8.0     18.637     21.578
REMARK  8 active torsions:
REMARK  status: ('A' for Active; 'I' for Inactive)
REMARK    1  A    between atoms: O_2  and  C_3 
REMARK    2  A    between atoms: C_6  and  N_7 
REMARK    3  A    between atoms: N_7  and  C_8 
REMARK    4  A    between atoms: C_11  and  C_12 
REMARK    5  A    between atoms: C_15  and  C_16 
REMARK       I    between atoms: C_16  and  N_17 
REMARK    6  A    between atoms: N_17  and  C_18 
REMARK    7  A    between atoms: C_18  and  C_19 
REMARK    8  A    between atoms: C_19  and  O_20 
ROOT
HETATM    1  C   UNL     1     -42.281  56.006 -50.931  1.00  0.00     0.161 A 
HETATM    2  N   UNL     1     -43.571  55.819 -51.283  1.00  0.00    -0.131 NA
HETATM    3  N   UNL     1     -44.373  56.874 -51.609  1.00  0.00    -0.147 NA
HETATM    4  C   UNL     1     -43.883  58.133 -51.592  1.00  0.00     0.100 A 
HETATM    5  C   UNL     1     -42.550  58.405 -51.235  1.00  0.00     0.009 A 
HETATM    6  C   UNL     1     -41.723  57.305 -50.903  1.00  0.00     0.024 A 
HETATM    7  C   UNL     1     -41.998  59.711 -51.180  1.00  0.00     0.015 A 
HETATM    8  C   UNL     1     -40.663  59.929 -50.840  1.00  0.00     0.001 A 
HETATM    9  C   UNL     1     -39.845  58.851 -50.542  1.00  0.00     0.001 A 
HETATM   10  C   UNL     1     -40.367  57.557 -50.572  1.00  0.00     0.016 A 
ENDROOT
BRANCH   4  11
HETATM   11  C   UNL     1     -44.874  59.147 -51.981  1.00  0.00    -0.005 A 
HETATM   12  C   UNL     1     -44.948  59.593 -53.312  1.00  0.00     0.015 A 
HETATM   13  C   UNL     1     -45.855  60.587 -53.693  1.00  0.00     0.018 A 
HETATM   14  C   UNL     1     -46.697  61.166 -52.738  1.00  0.00     0.032 A 
HETATM   15  C   UNL     1     -46.646  60.721 -51.412  1.00  0.00     0.018 A 
HETATM   16  C   UNL     1     -45.736  59.728 -51.036  1.00  0.00     0.015 A 
BRANCH  14  17
HETATM   17  C   UNL     1     -47.658  62.248 -53.085  1.00  0.00     0.251 C 
HETATM   18  N   UNL     1     -48.992  61.899 -53.110  1.00  0.00    -0.355 N 
HETATM   19  H   UNL     1     -49.265  60.929 -53.033  1.00  0.00     0.162 HD
HETATM   20  O   UNL     1     -47.252  63.368 -53.373  1.00  0.00    -0.268 OA
BRANCH  18  21
HETATM   21  C   UNL     1     -50.018  62.856 -53.494  1.00  0.00     0.148 C 
BRANCH  21  22
HETATM   22  C   UNL     1     -51.412  62.427 -53.036  1.00  0.00     0.183 C 
BRANCH  22  23
HETATM   23  O   UNL     1     -51.578  61.021 -53.223  1.00  0.00    -0.399 OA
HETATM   24  H   UNL     1     -50.678  60.647 -53.226  1.00  0.00     0.209 HD
ENDBRANCH  22  23
ENDBRANCH  21  22
ENDBRANCH  18  21
ENDBRANCH  14  17
ENDBRANCH   4  11
BRANCH   1  25
HETATM   25  N   UNL     1     -41.484  54.893 -50.551  1.00  0.00    -0.339 N 
HETATM   26  H   UNL     1     -41.907  54.454 -49.739  1.00  0.00     0.167 HD
BRANCH  25  27
HETATM   27  C   UNL     1     -40.874  53.949 -51.405  1.00  0.00     0.033 A 
HETATM   28  C   UNL     1     -40.248  52.795 -50.919  1.00  0.00     0.032 A 
HETATM   29  C   UNL     1     -39.722  51.830 -51.788  1.00  0.00     0.039 A 
HETATM   30  C   UNL     1     -39.833  51.994 -53.166  1.00  0.00     0.068 A 
HETATM   31  C   UNL     1     -40.472  53.131 -53.662  1.00  0.00     0.039 A 
HETATM   32  C   UNL     1     -41.001  54.090 -52.792  1.00  0.00     0.032 A 
BRANCH  30  33
HETATM   33  O   UNL     1     -39.372  51.130 -54.120  1.00  0.00    -0.356 OA
HETATM   34  C   UNL     1     -39.792  49.776 -54.010  1.00  0.00     0.210 C 
ENDBRANCH  30  33
ENDBRANCH  25  27
ENDBRANCH   1  25
TORSDOF 8
ENDMDL
MODEL 8
REMARK VINA RESULT:      -7.9     18.968     20.870
REMARK  8 active torsions:
REMARK  status: ('A' for Active; 'I' for Inactive)
REMARK    1  A    between atoms: O_2  and  C_3 
REMARK    2  A    between atoms: C_6  and  N_7 
REMARK    3  A    between atoms: N_7  and  C_8 
REMARK    4  A    between atoms: C_11  and  C_12 
REMARK    5  A    between atoms: C_15  and  C_16 
REMARK       I    between atoms: C_16  and  N_17 
REMARK    6  A    between atoms: N_17  and  C_18 
REMARK    7  A    between atoms: C_18  and  C_19 
REMARK    8  A    between atoms: C_19  and  O_20 
ROOT
HETATM    1  C   UNL     1     -42.397  58.671 -55.782  1.00  0.00     0.161 A 
HETATM    2  N   UNL     1     -43.194  59.740 -55.569  1.00  0.00    -0.131 NA
HETATM    3  N   UNL     1     -43.715  59.996 -54.335  1.00  0.00    -0.147 NA
HETATM    4  C   UNL     1     -43.433  59.182 -53.294  1.00  0.00     0.100 A 
HETATM    5  C   UNL     1     -42.612  58.049 -53.440  1.00  0.00     0.009 A 
HETATM    6  C   UNL     1     -42.070  57.793 -54.723  1.00  0.00     0.024 A 
HETATM    7  C   UNL     1     -42.308  57.153 -52.383  1.00  0.00     0.015 A 
HETATM    8  C   UNL     1     -41.471  56.053 -52.572  1.00  0.00     0.001 A 
HETATM    9  C   UNL     1     -40.917  55.817 -53.820  1.00  0.00     0.001 A 
HETATM   10  C   UNL     1     -41.214  56.674 -54.881  1.00  0.00     0.016 A 
ENDROOT
BRANCH   4  11
HETATM   11  C   UNL     1     -44.064  59.607 -52.036  1.00  0.00    -0.005 A 
HETATM   12  C   UNL     1     -43.434  60.558 -51.214  1.00  0.00     0.015 A 
HETATM   13  C   UNL     1     -43.998  60.945 -49.993  1.00  0.00     0.018 A 
HETATM   14  C   UNL     1     -45.199  60.372 -49.566  1.00  0.00     0.032 A 
HETATM   15  C   UNL     1     -45.846  59.436 -50.381  1.00  0.00     0.018 A 
HETATM   16  C   UNL     1     -45.278  59.051 -51.600  1.00  0.00     0.015 A 
BRANCH  14  17
HETATM   17  C   UNL     1     -45.825  60.726 -48.263  1.00  0.00     0.251 C 
HETATM   18  N   UNL     1     -45.513  59.917 -47.192  1.00  0.00    -0.355 N 
HETATM   19  H   UNL     1     -45.000  59.058 -47.336  1.00  0.00     0.162 HD
HETATM   20  O   UNL     1     -46.609  61.665 -48.188  1.00  0.00    -0.268 OA
BRANCH  18  21
HETATM   21  C   UNL     1     -46.111  60.128 -45.883  1.00  0.00     0.148 C 
BRANCH  21  22
HETATM   22  C   UNL     1     -46.790  58.868 -45.345  1.00  0.00     0.183 C 
BRANCH  22  23
HETATM   23  O   UNL     1     -46.083  58.379 -44.205  1.00  0.00    -0.399 OA
HETATM   24  H   UNL     1     -45.720  57.515 -44.470  1.00  0.00     0.209 HD
ENDBRANCH  22  23
ENDBRANCH  21  22
ENDBRANCH  18  21
ENDBRANCH  14  17
ENDBRANCH   4  11
BRANCH   1  25
HETATM   25  N   UNL     1     -41.907  58.403 -57.089  1.00  0.00    -0.339 N 
HETATM   26  H   UNL     1     -40.912  58.215 -57.029  1.00  0.00     0.167 HD
BRANCH  25  27
HETATM   27  C   UNL     1     -42.532  57.631 -58.092  1.00  0.00     0.033 A 
HETATM   28  C   UNL     1     -42.915  56.301 -57.883  1.00  0.00     0.032 A 
HETATM   29  C   UNL     1     -43.608  55.579 -58.864  1.00  0.00     0.039 A 
HETATM   30  C   UNL     1     -43.950  56.187 -60.069  1.00  0.00     0.068 A 
HETATM   31  C   UNL     1     -43.591  57.517 -60.281  1.00  0.00     0.039 A 
HETATM   32  C   UNL     1     -42.904  58.238 -59.298  1.00  0.00     0.032 A 
BRANCH  30  33
HETATM   33  O   UNL     1     -44.629  55.601 -61.102  1.00  0.00    -0.356 OA
HETATM   34  C   UNL     1     -46.045  55.728 -61.088  1.00  0.00     0.210 C 
ENDBRANCH  30  33
ENDBRANCH  25  27
ENDBRANCH   1  25
TORSDOF 8
ENDMDL
MODEL 9
REMARK VINA RESULT:      -7.9     16.849     18.999
REMARK  8 active torsions:
REMARK  status: ('A' for Active; 'I' for Inactive)
REMARK    1  A    between atoms: O_2  and  C_3 
REMARK    2  A    between atoms: C_6  and  N_7 
REMARK    3  A    between atoms: N_7  and  C_8 
REMARK    4  A    between atoms: C_11  and  C_12 
REMARK    5  A    between atoms: C_15  and  C_16 
REMARK       I    between atoms: C_16  and  N_17 
REMARK    6  A    between atoms: N_17  and  C_18 
REMARK    7  A    between atoms: C_18  and  C_19 
REMARK    8  A    between atoms: C_19  and  O_20 
ROOT
HETATM    1  C   UNL     1     -44.161  57.481 -58.606  1.00  0.00     0.161 A 
HETATM    2  N   UNL     1     -43.465  56.331 -58.720  1.00  0.00    -0.131 NA
HETATM    3  N   UNL     1     -42.948  55.707 -57.621  1.00  0.00    -0.147 NA
HETATM    4  C   UNL     1     -43.132  56.233 -56.390  1.00  0.00     0.100 A 
HETATM    5  C   UNL     1     -43.846  57.430 -56.194  1.00  0.00     0.009 A 
HETATM    6  C   UNL     1     -44.384  58.067 -57.338  1.00  0.00     0.024 A 
HETATM    7  C   UNL     1     -44.044  58.032 -54.925  1.00  0.00     0.015 A 
HETATM    8  C   UNL     1     -44.777  59.209 -54.778  1.00  0.00     0.001 A 
HETATM    9  C   UNL     1     -45.328  59.819 -55.894  1.00  0.00     0.001 A 
HETATM   10  C   UNL     1     -45.133  59.257 -57.156  1.00  0.00     0.016 A 
ENDROOT
BRANCH   4  11
HETATM   11  C   UNL     1     -42.522  55.432 -55.319  1.00  0.00    -0.005 A 
HETATM   12  C   UNL     1     -43.321  54.607 -54.508  1.00  0.00     0.015 A 
HETATM   13  C   UNL     1     -42.766  53.870 -53.457  1.00  0.00     0.018 A 
HETATM   14  C   UNL     1     -41.396  53.959 -53.190  1.00  0.00     0.032 A 
HETATM   15  C   UNL     1     -40.585  54.763 -53.999  1.00  0.00     0.018 A 
HETATM   16  C   UNL     1     -41.146  55.500 -55.047  1.00  0.00     0.015 A 
BRANCH  14  17
HETATM   17  C   UNL     1     -40.760  53.219 -52.066  1.00  0.00     0.251 C 
HETATM   18  N   UNL     1     -40.893  53.775 -50.811  1.00  0.00    -0.355 N 
HETATM   19  H   UNL     1     -41.281  54.702 -50.705  1.00  0.00     0.162 HD
HETATM   20  O   UNL     1     -40.119  52.197 -52.282  1.00  0.00    -0.268 OA
BRANCH  18  21
HETATM   21  C   UNL     1     -40.263  53.175 -49.646  1.00  0.00     0.148 C 
BRANCH  21  22
HETATM   22  C   UNL     1     -40.090  54.173 -48.501  1.00  0.00     0.183 C 
BRANCH  22  23
HETATM   23  O   UNL     1     -40.827  53.740 -47.358  1.00  0.00    -0.399 OA
HETATM   24  H   UNL     1     -41.006  52.793 -47.502  1.00  0.00     0.209 HD
ENDBRANCH  22  23
ENDBRANCH  21  22
ENDBRANCH  18  21
ENDBRANCH  14  17
ENDBRANCH   4  11
BRANCH   1  25
HETATM   25  N   UNL     1     -44.647  58.132 -59.772  1.00  0.00    -0.339 N 
HETATM   26  H   UNL     1     -43.896  58.176 -60.454  1.00  0.00     0.167 HD
BRANCH  25  27
HETATM   27  C   UNL     1     -45.908  57.959 -60.384  1.00  0.00     0.033 A 
HETATM   28  C   UNL     1     -46.673  59.038 -60.839  1.00  0.00     0.032 A 
HETATM   29  C   UNL     1     -47.883  58.840 -61.517  1.00  0.00     0.039 A 
HETATM   30  C   UNL     1     -48.340  57.549 -61.771  1.00  0.00     0.068 A 
HETATM   31  C   UNL     1     -47.576  56.465 -61.339  1.00  0.00     0.039 A 
HETATM   32  C   UNL     1     -46.365  56.666 -60.668  1.00  0.00     0.032 A 
BRANCH  30  33
HETATM   33  O   UNL     1     -49.493  57.217 -62.425  1.00  0.00    -0.356 OA
HETATM   34  C   UNL     1     -50.314  58.294 -62.859  1.00  0.00     0.210 C 
ENDBRANCH  30  33
ENDBRANCH  25  27
ENDBRANCH   1  25
TORSDOF 8
ENDMDL
MODEL 10
REMARK VINA RESULT:      -7.9     18.665     20.786
REMARK  8 active torsions:
REMARK  status: ('A' for Active; 'I' for Inactive)
REMARK    1  A    between atoms: O_2  and  C_3 
REMARK    2  A    between atoms: C_6  and  N_7 
REMARK    3  A    between atoms: N_7  and  C_8 
REMARK    4  A    between atoms: C_11  and  C_12 
REMARK    5  A    between atoms: C_15  and  C_16 
REMARK       I    between atoms: C_16  and  N_17 
REMARK    6  A    between atoms: N_17  and  C_18 
REMARK    7  A    between atoms: C_18  and  C_19 
REMARK    8  A    between atoms: C_19  and  O_20 
ROOT
HETATM    1  C   UNL     1     -42.420  60.388 -50.875  1.00  0.00     0.161 A 
HETATM    2  N   UNL     1     -41.367  59.833 -50.239  1.00  0.00    -0.131 NA
HETATM    3  N   UNL     1     -41.065  58.511 -50.397  1.00  0.00    -0.147 NA
HETATM    4  C   UNL     1     -41.818  57.731 -51.203  1.00  0.00     0.100 A 
HETATM    5  C   UNL     1     -42.932  58.240 -51.896  1.00  0.00     0.009 A 
HETATM    6  C   UNL     1     -43.235  59.613 -51.733  1.00  0.00     0.024 A 
HETATM    7  C   UNL     1     -43.765  57.456 -52.735  1.00  0.00     0.015 A 
HETATM    8  C   UNL     1     -44.847  58.010 -53.418  1.00  0.00     0.001 A 
HETATM    9  C   UNL     1     -45.129  59.360 -53.281  1.00  0.00     0.001 A 
HETATM   10  C   UNL     1     -44.334  60.150 -52.449  1.00  0.00     0.016 A 
ENDROOT
BRANCH   4  11
HETATM   11  C   UNL     1     -41.349  56.339 -51.269  1.00  0.00    -0.005 A 
HETATM   12  C   UNL     1     -41.257  55.681 -52.507  1.00  0.00     0.015 A 
HETATM   13  C   UNL     1     -40.853  54.343 -52.587  1.00  0.00     0.018 A 
HETATM   14  C   UNL     1     -40.549  53.636 -51.420  1.00  0.00     0.032 A 
HETATM   15  C   UNL     1     -40.621  54.283 -50.181  1.00  0.00     0.018 A 
HETATM   16  C   UNL     1     -41.027  55.620 -50.107  1.00  0.00     0.015 A 
BRANCH  14  17
HETATM   17  C   UNL     1     -40.145  52.204 -51.446  1.00  0.00     0.251 C 
HETATM   18  N   UNL     1     -39.813  51.682 -52.678  1.00  0.00    -0.355 N 
HETATM   19  H   UNL     1     -39.979  52.219 -53.519  1.00  0.00     0.162 HD
HETATM   20  O   UNL     1     -40.160  51.537 -50.418  1.00  0.00    -0.268 OA
BRANCH  18  21
HETATM   21  C   UNL     1     -39.461  50.280 -52.838  1.00  0.00     0.148 C 
BRANCH  21  22
HETATM   22  C   UNL     1     -39.588  49.811 -54.287  1.00  0.00     0.183 C 
BRANCH  22  23
HETATM   23  O   UNL     1     -40.956  49.845 -54.695  1.00  0.00    -0.399 OA
HETATM   24  H   UNL     1     -41.033  50.607 -55.297  1.00  0.00     0.209 HD
ENDBRANCH  22  23
ENDBRANCH  21  22
ENDBRANCH  18  21
ENDBRANCH  14  17
ENDBRANCH   4  11
BRANCH   1  25
HETATM   25  N   UNL     1     -42.738  61.756 -50.655  1.00  0.00    -0.339 N 
HETATM   26  H   UNL     1     -42.878  62.203 -51.555  1.00  0.00     0.167 HD
BRANCH  25  27
HETATM   27  C   UNL     1     -43.592  62.284 -49.662  1.00  0.00     0.033 A 
HETATM   28  C   UNL     1     -44.332  61.467 -48.800  1.00  0.00     0.032 A 
HETATM   29  C   UNL     1     -45.108  62.010 -47.768  1.00  0.00     0.039 A 
HETATM   30  C   UNL     1     -45.141  63.388 -47.568  1.00  0.00     0.068 A 
HETATM   31  C   UNL     1     -44.392  64.211 -48.408  1.00  0.00     0.039 A 
HETATM   32  C   UNL     1     -43.613  63.665 -49.434  1.00  0.00     0.032 A 
BRANCH  30  33
HETATM   33  O   UNL     1     -45.848  64.045 -46.598  1.00  0.00    -0.356 OA
HETATM   34  C   UNL     1     -47.173  63.589 -46.356  1.00  0.00     0.210 C 
ENDBRANCH  30  33
ENDBRANCH  25  27
ENDBRANCH   1  25
TORSDOF 8
ENDMDL
