MODEL 1
REMARK VINA RESULT:      -9.6      0.000      0.000
REMARK  7 active torsions:
REMARK  status: ('A' for Active; 'I' for Inactive)
REMARK    1  A    between atoms: C_2  and  C_3 
REMARK    2  A    between atoms: C_3  and  N_4 
REMARK    3  A    between atoms: C_8  and  C_9 
REMARK    4  A    between atoms: C_8  and  C_27 
REMARK    5  A    between atoms: N_12  and  C_14 
REMARK    6  A    between atoms: C_14  and  C_15 
REMARK    7  A    between atoms: C_27  and  C_28 
ROOT
HETATM    1  N   UNL     1     -41.440  55.924 -51.480  1.00  0.00    -0.268 N 
HETATM    2  C   UNL     1     -41.898  54.733 -51.011  1.00  0.00     0.326 C 
HETATM    3  O   UNL     1     -42.087  54.408 -49.853  1.00  0.00    -0.247 OA
HETATM    4  N   UNL     1     -42.131  53.907 -52.087  1.00  0.00    -0.324 N 
HETATM    5  C   UNL     1     -41.565  54.426 -53.325  1.00  0.00     0.123 C 
HETATM    6  C   UNL     1     -41.324  55.874 -52.839  1.00  0.00     0.257 C 
HETATM    7  O   UNL     1     -41.016  56.811 -53.564  1.00  0.00    -0.270 OA
HETATM    8  H   UNL     1     -42.311  52.923 -51.905  1.00  0.00     0.165 HD
ENDROOT
BRANCH   5   9
HETATM    9  C   UNL     1     -42.564  54.228 -54.512  1.00  0.00     0.027 C 
HETATM   10  C   UNL     1     -42.136  54.751 -55.895  1.00  0.00     0.035 C 
HETATM   11  C   UNL     1     -42.349  56.238 -56.149  1.00  0.00     0.235 C 
HETATM   12  N   UNL     1     -43.724  56.699 -55.733  1.00  0.00    -0.067 N 
HETATM   13  H   UNL     1     -44.375  56.365 -56.454  1.00  0.00     0.280 HD
HETATM   14  C   UNL     1     -44.206  56.190 -54.402  1.00  0.00     0.235 C 
HETATM   15  C   UNL     1     -44.009  54.694 -54.262  1.00  0.00     0.035 C 
BRANCH  12  16
HETATM   16  C   UNL     1     -43.830  58.222 -55.735  1.00  0.00     0.273 C 
BRANCH  16  17
HETATM   17  C   UNL     1     -43.267  58.893 -56.955  1.00  0.00    -0.030 A 
HETATM   18  C   UNL     1     -43.877  58.737 -58.207  1.00  0.00     0.048 A 
HETATM   19  C   UNL     1     -43.342  59.371 -59.330  1.00  0.00     0.102 A 
HETATM   20  C   UNL     1     -42.179  60.135 -59.221  1.00  0.00     0.102 A 
HETATM   21  O   UNL     1     -44.016  59.194 -60.509  1.00  0.00    -0.346 OA
HETATM   22  O   UNL     1     -41.586  60.760 -60.286  1.00  0.00    -0.346 OA
HETATM   23  C   UNL     1     -41.571  60.304 -57.982  1.00  0.00     0.040 A 
HETATM   24  C   UNL     1     -42.102  60.285 -61.535  1.00  0.00     0.202 C 
HETATM   25  C   UNL     1     -43.617  60.169 -61.484  1.00  0.00     0.202 C 
HETATM   26  C   UNL     1     -42.111  59.687 -56.852  1.00  0.00     0.012 A 
ENDBRANCH  16  17
ENDBRANCH  12  16
ENDBRANCH   5   9
BRANCH   5  27
HETATM   27  C   UNL     1     -40.141  53.835 -53.564  1.00  0.00     0.080 C 
BRANCH  27  28
HETATM   28  C   UNL     1     -40.010  52.344 -53.349  1.00  0.00    -0.052 A 
HETATM   29  C   UNL     1     -39.630  51.819 -52.108  1.00  0.00     0.049 A 
HETATM   30  C   UNL     1     -39.518  50.442 -51.937  1.00  0.00     0.116 A 
HETATM   31  F   UNL     1     -39.144  49.961 -50.744  1.00  0.00    -0.206 F 
HETATM   32  C   UNL     1     -39.786  49.564 -52.978  1.00  0.00     0.042 A 
HETATM   33  C   UNL     1     -40.176  50.071 -54.215  1.00  0.00     0.003 A 
HETATM   34  C   UNL     1     -40.289  51.453 -54.400  1.00  0.00     0.007 A 
ENDBRANCH  27  28
ENDBRANCH   5  27
BRANCH   1  35
HETATM   35  C   UNL     1     -41.041  57.041 -50.638  1.00  0.00     0.140 C 
BRANCH  35  36
HETATM   36  C   UNL     1     -41.571  58.405 -51.114  1.00  0.00    -0.004 C 
HETATM   37  C   UNL     1     -41.108  59.549 -50.211  1.00  0.00     0.011 C 
HETATM   38  C   UNL     1     -43.101  58.378 -51.152  1.00  0.00     0.011 C 
ENDBRANCH  35  36
ENDBRANCH   1  35
TORSDOF 7
ENDMDL
MODEL 2
REMARK VINA RESULT:      -9.3      1.934      2.218
REMARK  7 active torsions:
REMARK  status: ('A' for Active; 'I' for Inactive)
REMARK    1  A    between atoms: C_2  and  C_3 
REMARK    2  A    between atoms: C_3  and  N_4 
REMARK    3  A    between atoms: C_8  and  C_9 
REMARK    4  A    between atoms: C_8  and  C_27 
REMARK    5  A    between atoms: N_12  and  C_14 
REMARK    6  A    between atoms: C_14  and  C_15 
REMARK    7  A    between atoms: C_27  and  C_28 
ROOT
HETATM    1  N   UNL     1     -41.385  55.976 -51.352  1.00  0.00    -0.268 N 
HETATM    2  C   UNL     1     -41.738  54.824 -50.722  1.00  0.00     0.326 C 
HETATM    3  O   UNL     1     -41.813  54.619 -49.525  1.00  0.00    -0.247 OA
HETATM    4  N   UNL     1     -42.013  53.875 -51.682  1.00  0.00    -0.324 N 
HETATM    5  C   UNL     1     -41.579  54.282 -53.012  1.00  0.00     0.123 C 
HETATM    6  C   UNL     1     -41.377  55.783 -52.703  1.00  0.00     0.257 C 
HETATM    7  O   UNL     1     -41.181  56.649 -53.546  1.00  0.00    -0.270 OA
HETATM    8  H   UNL     1     -42.124  52.910 -51.383  1.00  0.00     0.165 HD
ENDROOT
BRANCH   5   9
HETATM    9  C   UNL     1     -42.659  53.911 -54.081  1.00  0.00     0.027 C 
HETATM   10  C   UNL     1     -42.254  54.003 -55.562  1.00  0.00     0.035 C 
HETATM   11  C   UNL     1     -42.310  55.390 -56.191  1.00  0.00     0.235 C 
HETATM   12  N   UNL     1     -43.599  56.109 -55.877  1.00  0.00    -0.067 N 
HETATM   13  H   UNL     1     -44.323  55.684 -56.468  1.00  0.00     0.280 HD
HETATM   14  C   UNL     1     -44.060  56.023 -54.447  1.00  0.00     0.235 C 
HETATM   15  C   UNL     1     -44.026  54.601 -53.925  1.00  0.00     0.035 C 
BRANCH  12  16
HETATM   16  C   UNL     1     -43.531  57.581 -56.275  1.00  0.00     0.273 C 
BRANCH  16  17
HETATM   17  C   UNL     1     -44.620  58.036 -57.204  1.00  0.00    -0.030 A 
HETATM   18  C   UNL     1     -44.860  57.368 -58.412  1.00  0.00     0.048 A 
HETATM   19  C   UNL     1     -45.879  57.804 -59.261  1.00  0.00     0.102 A 
HETATM   20  C   UNL     1     -46.641  58.926 -58.931  1.00  0.00     0.102 A 
HETATM   21  O   UNL     1     -46.070  57.077 -60.406  1.00  0.00    -0.346 OA
HETATM   22  O   UNL     1     -47.635  59.423 -59.731  1.00  0.00    -0.346 OA
HETATM   23  C   UNL     1     -46.417  59.591 -57.730  1.00  0.00     0.040 A 
HETATM   24  C   UNL     1     -47.583  58.867 -61.051  1.00  0.00     0.202 C 
HETATM   25  C   UNL     1     -47.347  57.366 -60.994  1.00  0.00     0.202 C 
HETATM   26  C   UNL     1     -45.411  59.150 -56.868  1.00  0.00     0.012 A 
ENDBRANCH  16  17
ENDBRANCH  12  16
ENDBRANCH   5   9
BRANCH   5  27
HETATM   27  C   UNL     1     -40.149  53.733 -53.311  1.00  0.00     0.080 C 
BRANCH  27  28
HETATM   28  C   UNL     1     -39.978  52.240 -53.147  1.00  0.00    -0.052 A 
HETATM   29  C   UNL     1     -39.639  51.678 -51.910  1.00  0.00     0.049 A 
HETATM   30  C   UNL     1     -39.487  50.300 -51.787  1.00  0.00     0.116 A 
HETATM   31  F   UNL     1     -39.153  49.783 -50.597  1.00  0.00    -0.206 F 
HETATM   32  C   UNL     1     -39.675  49.456 -52.873  1.00  0.00     0.042 A 
HETATM   33  C   UNL     1     -40.024  49.999 -54.107  1.00  0.00     0.003 A 
HETATM   34  C   UNL     1     -40.176  51.383 -54.244  1.00  0.00     0.007 A 
ENDBRANCH  27  28
ENDBRANCH   5  27
BRANCH   1  35
HETATM   35  C   UNL     1     -40.979  57.195 -50.669  1.00  0.00     0.140 C 
BRANCH  35  36
HETATM   36  C   UNL     1     -41.653  58.469 -51.210  1.00  0.00    -0.004 C 
HETATM   37  C   UNL     1     -41.226  59.717 -50.436  1.00  0.00     0.011 C 
HETATM   38  C   UNL     1     -43.174  58.320 -51.131  1.00  0.00     0.011 C 
ENDBRANCH  35  36
ENDBRANCH   1  35
TORSDOF 7
ENDMDL
MODEL 3
REMARK VINA RESULT:      -9.1      2.397      3.126
REMARK  7 active torsions:
REMARK  status: ('A' for Active; 'I' for Inactive)
REMARK    1  A    between atoms: C_2  and  C_3 
REMARK    2  A    between atoms: C_3  and  N_4 
REMARK    3  A    between atoms: C_8  and  C_9 
REMARK    4  A    between atoms: C_8  and  C_27 
REMARK    5  A    between atoms: N_12  and  C_14 
REMARK    6  A    between atoms: C_14  and  C_15 
REMARK    7  A    between atoms: C_27  and  C_28 
ROOT
HETATM    1  N   UNL     1     -42.584  56.423 -51.995  1.00  0.00    -0.268 N 
HETATM    2  C   UNL     1     -43.304  55.410 -51.443  1.00  0.00     0.326 C 
HETATM    3  O   UNL     1     -44.188  55.489 -50.610  1.00  0.00    -0.247 OA
HETATM    4  N   UNL     1     -42.868  54.224 -51.990  1.00  0.00    -0.324 N 
HETATM    5  C   UNL     1     -41.628  54.375 -52.738  1.00  0.00     0.123 C 
HETATM    6  C   UNL     1     -41.654  55.916 -52.856  1.00  0.00     0.257 C 
HETATM    7  O   UNL     1     -40.908  56.574 -53.569  1.00  0.00    -0.270 OA
HETATM    8  H   UNL     1     -43.180  53.356 -51.561  1.00  0.00     0.165 HD
ENDROOT
BRANCH   5   9
HETATM    9  C   UNL     1     -41.685  53.555 -54.070  1.00  0.00     0.027 C 
HETATM   10  C   UNL     1     -40.652  53.895 -55.158  1.00  0.00     0.035 C 
HETATM   11  C   UNL     1     -40.974  55.091 -56.044  1.00  0.00     0.235 C 
HETATM   12  N   UNL     1     -42.394  55.058 -56.556  1.00  0.00    -0.067 N 
HETATM   13  H   UNL     1     -42.421  54.352 -57.301  1.00  0.00     0.280 HD
HETATM   14  C   UNL     1     -43.443  54.699 -55.539  1.00  0.00     0.235 C 
HETATM   15  C   UNL     1     -43.065  53.465 -54.746  1.00  0.00     0.035 C 
BRANCH  12  16
HETATM   16  C   UNL     1     -42.786  56.382 -57.207  1.00  0.00     0.273 C 
BRANCH  16  17
HETATM   17  C   UNL     1     -43.769  56.264 -58.337  1.00  0.00    -0.030 A 
HETATM   18  C   UNL     1     -44.823  57.178 -58.470  1.00  0.00     0.048 A 
HETATM   19  C   UNL     1     -45.725  57.055 -59.529  1.00  0.00     0.102 A 
HETATM   20  C   UNL     1     -45.606  56.004 -60.439  1.00  0.00     0.102 A 
HETATM   21  O   UNL     1     -46.707  58.007 -59.607  1.00  0.00    -0.346 OA
HETATM   22  O   UNL     1     -46.471  55.808 -61.482  1.00  0.00    -0.346 OA
HETATM   23  C   UNL     1     -44.558  55.096 -60.320  1.00  0.00     0.040 A 
HETATM   24  C   UNL     1     -47.661  56.594 -61.339  1.00  0.00     0.202 C 
HETATM   25  C   UNL     1     -47.321  58.011 -60.904  1.00  0.00     0.202 C 
HETATM   26  C   UNL     1     -43.642  55.224 -59.275  1.00  0.00     0.012 A 
ENDBRANCH  16  17
ENDBRANCH  12  16
ENDBRANCH   5   9
BRANCH   5  27
HETATM   27  C   UNL     1     -40.400  54.057 -51.829  1.00  0.00     0.080 C 
BRANCH  27  28
HETATM   28  C   UNL     1     -40.199  52.597 -51.493  1.00  0.00    -0.052 A 
HETATM   29  C   UNL     1     -39.730  51.689 -52.450  1.00  0.00     0.049 A 
HETATM   30  C   UNL     1     -39.554  50.349 -52.113  1.00  0.00     0.116 A 
HETATM   31  F   UNL     1     -39.113  49.494 -53.046  1.00  0.00    -0.206 F 
HETATM   32  C   UNL     1     -39.827  49.888 -50.833  1.00  0.00     0.042 A 
HETATM   33  C   UNL     1     -40.283  50.782 -49.867  1.00  0.00     0.003 A 
HETATM   34  C   UNL     1     -40.467  52.129 -50.195  1.00  0.00     0.007 A 
ENDBRANCH  27  28
ENDBRANCH   5  27
BRANCH   1  35
HETATM   35  C   UNL     1     -42.728  57.825 -51.635  1.00  0.00     0.140 C 
BRANCH  35  36
HETATM   36  C   UNL     1     -41.420  58.489 -51.171  1.00  0.00    -0.004 C 
HETATM   37  C   UNL     1     -40.704  57.664 -50.101  1.00  0.00     0.011 C 
HETATM   38  C   UNL     1     -41.719  59.884 -50.617  1.00  0.00     0.011 C 
ENDBRANCH  35  36
ENDBRANCH   1  35
TORSDOF 7
ENDMDL
MODEL 4
REMARK VINA RESULT:      -9.1      2.486      3.510
REMARK  7 active torsions:
REMARK  status: ('A' for Active; 'I' for Inactive)
REMARK    1  A    between atoms: C_2  and  C_3 
REMARK    2  A    between atoms: C_3  and  N_4 
REMARK    3  A    between atoms: C_8  and  C_9 
REMARK    4  A    between atoms: C_8  and  C_27 
REMARK    5  A    between atoms: N_12  and  C_14 
REMARK    6  A    between atoms: C_14  and  C_15 
REMARK    7  A    between atoms: C_27  and  C_28 
ROOT
HETATM    1  N   UNL     1     -41.412  56.091 -51.443  1.00  0.00    -0.268 N 
HETATM    2  C   UNL     1     -41.773  54.935 -50.826  1.00  0.00     0.326 C 
HETATM    3  O   UNL     1     -41.832  54.711 -49.631  1.00  0.00    -0.247 OA
HETATM    4  N   UNL     1     -42.079  54.007 -51.796  1.00  0.00    -0.324 N 
HETATM    5  C   UNL     1     -41.661  54.429 -53.126  1.00  0.00     0.123 C 
HETATM    6  C   UNL     1     -41.430  55.921 -52.796  1.00  0.00     0.257 C 
HETATM    7  O   UNL     1     -41.234  56.797 -53.628  1.00  0.00    -0.270 OA
HETATM    8  H   UNL     1     -42.200  53.039 -51.511  1.00  0.00     0.165 HD
ENDROOT
BRANCH   5   9
HETATM    9  C   UNL     1     -42.765  54.092 -54.183  1.00  0.00     0.027 C 
HETATM   10  C   UNL     1     -42.356  54.107 -55.666  1.00  0.00     0.035 C 
HETATM   11  C   UNL     1     -42.323  55.472 -56.343  1.00  0.00     0.235 C 
HETATM   12  N   UNL     1     -43.561  56.284 -56.054  1.00  0.00    -0.067 N 
HETATM   13  H   UNL     1     -44.312  55.888 -56.631  1.00  0.00     0.280 HD
HETATM   14  C   UNL     1     -44.025  56.278 -54.623  1.00  0.00     0.235 C 
HETATM   15  C   UNL     1     -44.083  54.876 -54.052  1.00  0.00     0.035 C 
BRANCH  12  16
HETATM   16  C   UNL     1     -43.398  57.734 -56.503  1.00  0.00     0.273 C 
BRANCH  16  17
HETATM   17  C   UNL     1     -43.858  58.760 -55.507  1.00  0.00    -0.030 A 
HETATM   18  C   UNL     1     -42.936  59.589 -54.852  1.00  0.00     0.048 A 
HETATM   19  C   UNL     1     -43.383  60.539 -53.931  1.00  0.00     0.102 A 
HETATM   20  C   UNL     1     -44.742  60.647 -53.631  1.00  0.00     0.102 A 
HETATM   21  O   UNL     1     -42.423  61.332 -53.360  1.00  0.00    -0.346 OA
HETATM   22  O   UNL     1     -45.243  61.536 -52.718  1.00  0.00    -0.346 OA
HETATM   23  C   UNL     1     -45.665  59.835 -54.282  1.00  0.00     0.040 A 
HETATM   24  C   UNL     1     -44.209  62.098 -51.900  1.00  0.00     0.202 C 
HETATM   25  C   UNL     1     -43.007  62.489 -52.745  1.00  0.00     0.202 C 
HETATM   26  C   UNL     1     -45.227  58.895 -55.216  1.00  0.00     0.012 A 
ENDBRANCH  16  17
ENDBRANCH  12  16
ENDBRANCH   5   9
BRANCH   5  27
HETATM   27  C   UNL     1     -40.245  53.862 -53.459  1.00  0.00     0.080 C 
BRANCH  27  28
HETATM   28  C   UNL     1     -40.070  52.377 -53.238  1.00  0.00    -0.052 A 
HETATM   29  C   UNL     1     -39.722  51.865 -51.982  1.00  0.00     0.049 A 
HETATM   30  C   UNL     1     -39.567  50.492 -51.806  1.00  0.00     0.116 A 
HETATM   31  F   UNL     1     -39.225  50.024 -50.599  1.00  0.00    -0.206 F 
HETATM   32  C   UNL     1     -39.760  49.607 -52.858  1.00  0.00     0.042 A 
HETATM   33  C   UNL     1     -40.117  50.101 -54.110  1.00  0.00     0.003 A 
HETATM   34  C   UNL     1     -40.272  51.478 -54.299  1.00  0.00     0.007 A 
ENDBRANCH  27  28
ENDBRANCH   5  27
BRANCH   1  35
HETATM   35  C   UNL     1     -40.976  57.292 -50.747  1.00  0.00     0.140 C 
BRANCH  35  36
HETATM   36  C   UNL     1     -41.719  58.569 -51.176  1.00  0.00    -0.004 C 
HETATM   37  C   UNL     1     -41.337  59.774 -50.315  1.00  0.00     0.011 C 
HETATM   38  C   UNL     1     -43.230  58.341 -51.084  1.00  0.00     0.011 C 
ENDBRANCH  35  36
ENDBRANCH   1  35
TORSDOF 7
ENDMDL
MODEL 5
REMARK VINA RESULT:      -8.9      2.694      4.201
REMARK  7 active torsions:
REMARK  status: ('A' for Active; 'I' for Inactive)
REMARK    1  A    between atoms: C_2  and  C_3 
REMARK    2  A    between atoms: C_3  and  N_4 
REMARK    3  A    between atoms: C_8  and  C_9 
REMARK    4  A    between atoms: C_8  and  C_27 
REMARK    5  A    between atoms: N_12  and  C_14 
REMARK    6  A    between atoms: C_14  and  C_15 
REMARK    7  A    between atoms: C_27  and  C_28 
ROOT
HETATM    1  N   UNL     1     -42.003  56.114 -50.254  1.00  0.00    -0.268 N 
HETATM    2  C   UNL     1     -43.003  55.500 -50.941  1.00  0.00     0.326 C 
HETATM    3  O   UNL     1     -43.538  54.435 -50.691  1.00  0.00    -0.247 OA
HETATM    4  N   UNL     1     -43.342  56.296 -52.012  1.00  0.00    -0.324 N 
HETATM    5  C   UNL     1     -42.375  57.360 -52.247  1.00  0.00     0.123 C 
HETATM    6  C   UNL     1     -41.650  57.272 -50.885  1.00  0.00     0.257 C 
HETATM    7  O   UNL     1     -40.838  58.090 -50.472  1.00  0.00    -0.270 OA
HETATM    8  H   UNL     1     -43.951  55.905 -52.725  1.00  0.00     0.165 HD
ENDROOT
BRANCH   5   9
HETATM    9  C   UNL     1     -43.106  58.703 -52.581  1.00  0.00     0.027 C 
HETATM   10  C   UNL     1     -44.306  58.638 -53.542  1.00  0.00     0.035 C 
HETATM   11  C   UNL     1     -43.978  58.608 -55.030  1.00  0.00     0.235 C 
HETATM   12  N   UNL     1     -42.960  59.655 -55.412  1.00  0.00    -0.067 N 
HETATM   13  H   UNL     1     -43.455  60.555 -55.421  1.00  0.00     0.280 HD
HETATM   14  C   UNL     1     -41.780  59.784 -54.487  1.00  0.00     0.235 C 
HETATM   15  C   UNL     1     -42.205  59.865 -53.035  1.00  0.00     0.035 C 
BRANCH  12  16
HETATM   16  C   UNL     1     -42.440  59.439 -56.832  1.00  0.00     0.273 C 
BRANCH  16  17
HETATM   17  C   UNL     1     -43.323  58.598 -57.708  1.00  0.00    -0.030 A 
HETATM   18  C   UNL     1     -42.968  57.283 -58.036  1.00  0.00     0.048 A 
HETATM   19  C   UNL     1     -43.803  56.516 -58.850  1.00  0.00     0.102 A 
HETATM   20  C   UNL     1     -44.978  57.061 -59.370  1.00  0.00     0.102 A 
HETATM   21  O   UNL     1     -43.400  55.230 -59.096  1.00  0.00    -0.346 OA
HETATM   22  O   UNL     1     -45.826  56.374 -60.196  1.00  0.00    -0.346 OA
HETATM   23  C   UNL     1     -45.344  58.363 -59.044  1.00  0.00     0.040 A 
HETATM   24  C   UNL     1     -45.220  55.180 -60.706  1.00  0.00     0.202 C 
HETATM   25  C   UNL     1     -44.483  54.437 -59.603  1.00  0.00     0.202 C 
HETATM   26  C   UNL     1     -44.522  59.130 -58.217  1.00  0.00     0.012 A 
ENDBRANCH  16  17
ENDBRANCH  12  16
ENDBRANCH   5   9
BRANCH   5  27
HETATM   27  C   UNL     1     -41.316  56.913 -53.302  1.00  0.00     0.080 C 
BRANCH  27  28
HETATM   28  C   UNL     1     -41.487  55.511 -53.842  1.00  0.00    -0.052 A 
HETATM   29  C   UNL     1     -42.491  55.206 -54.768  1.00  0.00     0.049 A 
HETATM   30  C   UNL     1     -42.627  53.907 -55.249  1.00  0.00     0.116 A 
HETATM   31  F   UNL     1     -43.600  53.634 -56.128  1.00  0.00    -0.206 F 
HETATM   32  C   UNL     1     -41.772  52.894 -54.834  1.00  0.00     0.042 A 
HETATM   33  C   UNL     1     -40.761  53.185 -53.922  1.00  0.00     0.003 A 
HETATM   34  C   UNL     1     -40.618  54.486 -53.429  1.00  0.00     0.007 A 
ENDBRANCH  27  28
ENDBRANCH   5  27
BRANCH   1  35
HETATM   35  C   UNL     1     -41.348  55.555 -49.081  1.00  0.00     0.140 C 
BRANCH  35  36
HETATM   36  C   UNL     1     -40.721  54.170 -49.315  1.00  0.00    -0.004 C 
HETATM   37  C   UNL     1     -40.537  53.395 -48.009  1.00  0.00     0.011 C 
HETATM   38  C   UNL     1     -39.364  54.328 -50.004  1.00  0.00     0.011 C 
ENDBRANCH  35  36
ENDBRANCH   1  35
TORSDOF 7
ENDMDL
MODEL 6
REMARK VINA RESULT:      -8.9      3.662      7.621
REMARK  7 active torsions:
REMARK  status: ('A' for Active; 'I' for Inactive)
REMARK    1  A    between atoms: C_2  and  C_3 
REMARK    2  A    between atoms: C_3  and  N_4 
REMARK    3  A    between atoms: C_8  and  C_9 
REMARK    4  A    between atoms: C_8  and  C_27 
REMARK    5  A    between atoms: N_12  and  C_14 
REMARK    6  A    between atoms: C_14  and  C_15 
REMARK    7  A    between atoms: C_27  and  C_28 
ROOT
HETATM    1  N   UNL     1     -43.061  57.023 -56.253  1.00  0.00    -0.268 N 
HETATM    2  C   UNL     1     -42.300  58.102 -55.925  1.00  0.00     0.326 C 
HETATM    3  O   UNL     1     -42.118  59.114 -56.576  1.00  0.00    -0.247 OA
HETATM    4  N   UNL     1     -41.739  57.873 -54.688  1.00  0.00    -0.324 N 
HETATM    5  C   UNL     1     -41.882  56.490 -54.256  1.00  0.00     0.123 C 
HETATM    6  C   UNL     1     -42.967  56.075 -55.275  1.00  0.00     0.257 C 
HETATM    7  O   UNL     1     -43.597  55.026 -55.236  1.00  0.00    -0.270 OA
HETATM    8  H   UNL     1     -41.005  58.502 -54.372  1.00  0.00     0.165 HD
ENDROOT
BRANCH   5   9
HETATM    9  C   UNL     1     -42.263  56.424 -52.740  1.00  0.00     0.027 C 
HETATM   10  C   UNL     1     -43.753  56.550 -52.377  1.00  0.00     0.035 C 
HETATM   11  C   UNL     1     -44.315  57.965 -52.312  1.00  0.00     0.235 C 
HETATM   12  N   UNL     1     -43.426  58.898 -51.528  1.00  0.00    -0.067 N 
HETATM   13  H   UNL     1     -43.567  58.673 -50.536  1.00  0.00     0.280 HD
HETATM   14  C   UNL     1     -41.953  58.794 -51.821  1.00  0.00     0.235 C 
HETATM   15  C   UNL     1     -41.473  57.358 -51.806  1.00  0.00     0.035 C 
BRANCH  12  16
HETATM   16  C   UNL     1     -43.851  60.355 -51.700  1.00  0.00     0.273 C 
BRANCH  16  17
HETATM   17  C   UNL     1     -44.284  61.041 -50.437  1.00  0.00    -0.030 A 
HETATM   18  C   UNL     1     -45.091  60.380 -49.500  1.00  0.00     0.048 A 
HETATM   19  C   UNL     1     -45.481  61.033 -48.330  1.00  0.00     0.102 A 
HETATM   20  C   UNL     1     -45.102  62.357 -48.100  1.00  0.00     0.102 A 
HETATM   21  O   UNL     1     -46.241  60.307 -47.451  1.00  0.00    -0.346 OA
HETATM   22  O   UNL     1     -45.473  63.065 -46.988  1.00  0.00    -0.346 OA
HETATM   23  C   UNL     1     -44.294  63.019 -49.019  1.00  0.00     0.040 A 
HETATM   24  C   UNL     1     -46.529  62.412 -46.271  1.00  0.00     0.202 C 
HETATM   25  C   UNL     1     -46.259  60.921 -46.154  1.00  0.00     0.202 C 
HETATM   26  C   UNL     1     -43.885  62.366 -50.183  1.00  0.00     0.012 A 
ENDBRANCH  16  17
ENDBRANCH  12  16
ENDBRANCH   5   9
BRANCH   5  27
HETATM   27  C   UNL     1     -40.618  55.661 -54.647  1.00  0.00     0.080 C 
BRANCH  27  28
HETATM   28  C   UNL     1     -40.486  54.317 -53.970  1.00  0.00    -0.052 A 
HETATM   29  C   UNL     1     -40.235  53.153 -54.706  1.00  0.00     0.049 A 
HETATM   30  C   UNL     1     -40.117  51.927 -54.057  1.00  0.00     0.116 A 
HETATM   31  F   UNL     1     -39.887  50.824 -54.781  1.00  0.00    -0.206 F 
HETATM   32  C   UNL     1     -40.234  51.831 -52.677  1.00  0.00     0.042 A 
HETATM   33  C   UNL     1     -40.472  52.981 -51.930  1.00  0.00     0.003 A 
HETATM   34  C   UNL     1     -40.596  54.217 -52.572  1.00  0.00     0.007 A 
ENDBRANCH  27  28
ENDBRANCH   5  27
BRANCH   1  35
HETATM   35  C   UNL     1     -43.780  56.876 -57.509  1.00  0.00     0.140 C 
BRANCH  35  36
HETATM   36  C   UNL     1     -43.025  56.056 -58.569  1.00  0.00    -0.004 C 
HETATM   37  C   UNL     1     -42.440  56.941 -59.671  1.00  0.00     0.011 C 
HETATM   38  C   UNL     1     -43.970  55.028 -59.195  1.00  0.00     0.011 C 
ENDBRANCH  35  36
ENDBRANCH   1  35
TORSDOF 7
ENDMDL
MODEL 7
REMARK VINA RESULT:      -8.9      2.370      3.145
REMARK  7 active torsions:
REMARK  status: ('A' for Active; 'I' for Inactive)
REMARK    1  A    between atoms: C_2  and  C_3 
REMARK    2  A    between atoms: C_3  and  N_4 
REMARK    3  A    between atoms: C_8  and  C_9 
REMARK    4  A    between atoms: C_8  and  C_27 
REMARK    5  A    between atoms: N_12  and  C_14 
REMARK    6  A    between atoms: C_14  and  C_15 
REMARK    7  A    between atoms: C_27  and  C_28 
ROOT
HETATM    1  N   UNL     1     -41.189  57.552 -52.484  1.00  0.00    -0.268 N 
HETATM    2  C   UNL     1     -41.411  56.578 -51.561  1.00  0.00     0.326 C 
HETATM    3  O   UNL     1     -41.210  56.624 -50.362  1.00  0.00    -0.247 OA
HETATM    4  N   UNL     1     -41.923  55.477 -52.212  1.00  0.00    -0.324 N 
HETATM    5  C   UNL     1     -41.801  55.576 -53.660  1.00  0.00     0.123 C 
HETATM    6  C   UNL     1     -41.501  57.091 -53.730  1.00  0.00     0.257 C 
HETATM    7  O   UNL     1     -41.488  57.753 -54.760  1.00  0.00    -0.270 OA
HETATM    8  H   UNL     1     -41.981  54.602 -51.698  1.00  0.00     0.165 HD
ENDROOT
BRANCH   5   9
HETATM    9  C   UNL     1     -43.109  55.074 -54.357  1.00  0.00     0.027 C 
HETATM   10  C   UNL     1     -42.999  54.602 -55.817  1.00  0.00     0.035 C 
HETATM   11  C   UNL     1     -43.018  55.691 -56.881  1.00  0.00     0.235 C 
HETATM   12  N   UNL     1     -44.125  56.691 -56.657  1.00  0.00    -0.067 N 
HETATM   13  H   UNL     1     -44.998  56.233 -56.946  1.00  0.00     0.280 HD
HETATM   14  C   UNL     1     -44.299  57.163 -55.238  1.00  0.00     0.235 C 
HETATM   15  C   UNL     1     -44.327  56.009 -54.257  1.00  0.00     0.035 C 
BRANCH  12  16
HETATM   16  C   UNL     1     -43.967  57.915 -57.557  1.00  0.00     0.273 C 
BRANCH  16  17
HETATM   17  C   UNL     1     -45.105  58.152 -58.507  1.00  0.00    -0.030 A 
HETATM   18  C   UNL     1     -45.472  57.179 -59.447  1.00  0.00     0.048 A 
HETATM   19  C   UNL     1     -46.535  57.416 -60.320  1.00  0.00     0.102 A 
HETATM   20  C   UNL     1     -47.216  58.634 -60.289  1.00  0.00     0.102 A 
HETATM   21  O   UNL     1     -46.851  56.402 -61.186  1.00  0.00    -0.346 OA
HETATM   22  O   UNL     1     -48.247  58.942 -61.136  1.00  0.00    -0.346 OA
HETATM   23  C   UNL     1     -46.865  59.603 -59.355  1.00  0.00     0.040 A 
HETATM   24  C   UNL     1     -48.326  58.024 -62.233  1.00  0.00     0.202 C 
HETATM   25  C   UNL     1     -48.156  56.592 -61.751  1.00  0.00     0.202 C 
HETATM   26  C   UNL     1     -45.815  59.366 -58.467  1.00  0.00     0.012 A 
ENDBRANCH  16  17
ENDBRANCH  12  16
ENDBRANCH   5   9
BRANCH   5  27
HETATM   27  C   UNL     1     -40.493  54.879 -54.147  1.00  0.00     0.080 C 
BRANCH  27  28
HETATM   28  C   UNL     1     -40.257  53.487 -53.607  1.00  0.00    -0.052 A 
HETATM   29  C   UNL     1     -40.251  52.371 -54.452  1.00  0.00     0.049 A 
HETATM   30  C   UNL     1     -40.030  51.100 -53.928  1.00  0.00     0.116 A 
HETATM   31  F   UNL     1     -40.038  50.044 -54.752  1.00  0.00    -0.206 F 
HETATM   32  C   UNL     1     -39.804  50.911 -52.571  1.00  0.00     0.042 A 
HETATM   33  C   UNL     1     -39.796  52.013 -51.720  1.00  0.00     0.003 A 
HETATM   34  C   UNL     1     -40.019  53.294 -52.235  1.00  0.00     0.007 A 
ENDBRANCH  27  28
ENDBRANCH   5  27
BRANCH   1  35
HETATM   35  C   UNL     1     -40.610  58.852 -52.183  1.00  0.00     0.140 C 
BRANCH  35  36
HETATM   36  C   UNL     1     -40.680  59.240 -50.696  1.00  0.00    -0.004 C 
HETATM   37  C   UNL     1     -41.740  60.310 -50.431  1.00  0.00     0.011 C 
HETATM   38  C   UNL     1     -39.315  59.754 -50.233  1.00  0.00     0.011 C 
ENDBRANCH  35  36
ENDBRANCH   1  35
TORSDOF 7
ENDMDL
MODEL 8
REMARK VINA RESULT:      -8.7     16.018     18.094
REMARK  7 active torsions:
REMARK  status: ('A' for Active; 'I' for Inactive)
REMARK    1  A    between atoms: C_2  and  C_3 
REMARK    2  A    between atoms: C_3  and  N_4 
REMARK    3  A    between atoms: C_8  and  C_9 
REMARK    4  A    between atoms: C_8  and  C_27 
REMARK    5  A    between atoms: N_12  and  C_14 
REMARK    6  A    between atoms: C_14  and  C_15 
REMARK    7  A    between atoms: C_27  and  C_28 
ROOT
HETATM    1  N   UNL     1     -36.384  40.226 -53.045  1.00  0.00    -0.268 N 
HETATM    2  C   UNL     1     -36.056  39.242 -53.925  1.00  0.00     0.326 C 
HETATM    3  O   UNL     1     -35.868  38.063 -53.692  1.00  0.00    -0.247 OA
HETATM    4  N   UNL     1     -35.966  39.801 -55.180  1.00  0.00    -0.324 N 
HETATM    5  C   UNL     1     -35.957  41.257 -55.146  1.00  0.00     0.123 C 
HETATM    6  C   UNL     1     -36.461  41.423 -53.694  1.00  0.00     0.257 C 
HETATM    7  O   UNL     1     -36.815  42.484 -53.195  1.00  0.00    -0.270 OA
HETATM    8  H   UNL     1     -35.560  39.241 -55.925  1.00  0.00     0.165 HD
ENDROOT
BRANCH   5   9
HETATM    9  C   UNL     1     -36.856  41.840 -56.286  1.00  0.00     0.027 C 
HETATM   10  C   UNL     1     -38.265  41.244 -56.453  1.00  0.00     0.035 C 
HETATM   11  C   UNL     1     -38.357  39.942 -57.238  1.00  0.00     0.235 C 
HETATM   12  N   UNL     1     -37.571  39.992 -58.525  1.00  0.00    -0.067 N 
HETATM   13  H   UNL     1     -38.119  40.561 -59.181  1.00  0.00     0.280 HD
HETATM   14  C   UNL     1     -36.197  40.596 -58.425  1.00  0.00     0.235 C 
HETATM   15  C   UNL     1     -36.211  41.916 -57.681  1.00  0.00     0.035 C 
BRANCH  12  16
HETATM   16  C   UNL     1     -37.446  38.609 -59.160  1.00  0.00     0.273 C 
BRANCH  16  17
HETATM   17  C   UNL     1     -38.355  38.365 -60.330  1.00  0.00    -0.030 A 
HETATM   18  C   UNL     1     -39.696  38.004 -60.135  1.00  0.00     0.048 A 
HETATM   19  C   UNL     1     -40.527  37.785 -61.235  1.00  0.00     0.102 A 
HETATM   20  C   UNL     1     -40.024  37.888 -62.533  1.00  0.00     0.102 A 
HETATM   21  O   UNL     1     -41.831  37.468 -60.959  1.00  0.00    -0.346 OA
HETATM   22  O   UNL     1     -40.776  37.659 -63.653  1.00  0.00    -0.346 OA
HETATM   23  C   UNL     1     -38.697  38.254 -62.737  1.00  0.00     0.040 A 
HETATM   24  C   UNL     1     -42.012  37.006 -63.338  1.00  0.00     0.202 C 
HETATM   25  C   UNL     1     -42.661  37.639 -62.118  1.00  0.00     0.202 C 
HETATM   26  C   UNL     1     -37.864  38.493 -61.642  1.00  0.00     0.012 A 
ENDBRANCH  16  17
ENDBRANCH  12  16
ENDBRANCH   5   9
BRANCH   5  27
HETATM   27  C   UNL     1     -34.492  41.794 -55.131  1.00  0.00     0.080 C 
BRANCH  27  28
HETATM   28  C   UNL     1     -33.413  40.748 -55.297  1.00  0.00    -0.052 A 
HETATM   29  C   UNL     1     -32.808  40.146 -54.187  1.00  0.00     0.049 A 
HETATM   30  C   UNL     1     -31.817  39.185 -54.368  1.00  0.00     0.116 A 
HETATM   31  F   UNL     1     -31.243  38.628 -53.293  1.00  0.00    -0.206 F 
HETATM   32  C   UNL     1     -31.415  38.798 -55.639  1.00  0.00     0.042 A 
HETATM   33  C   UNL     1     -32.016  39.379 -56.753  1.00  0.00     0.003 A 
HETATM   34  C   UNL     1     -33.010  40.348 -56.583  1.00  0.00     0.007 A 
ENDBRANCH  27  28
ENDBRANCH   5  27
BRANCH   1  35
HETATM   35  C   UNL     1     -36.527  40.030 -51.610  1.00  0.00     0.140 C 
BRANCH  35  36
HETATM   36  C   UNL     1     -35.205  39.727 -50.884  1.00  0.00    -0.004 C 
HETATM   37  C   UNL     1     -35.436  39.135 -49.493  1.00  0.00     0.011 C 
HETATM   38  C   UNL     1     -34.381  41.010 -50.758  1.00  0.00     0.011 C 
ENDBRANCH  35  36
ENDBRANCH   1  35
TORSDOF 7
ENDMDL
MODEL 9
REMARK VINA RESULT:      -8.6      3.278      8.635
REMARK  7 active torsions:
REMARK  status: ('A' for Active; 'I' for Inactive)
REMARK    1  A    between atoms: C_2  and  C_3 
REMARK    2  A    between atoms: C_3  and  N_4 
REMARK    3  A    between atoms: C_8  and  C_9 
REMARK    4  A    between atoms: C_8  and  C_27 
REMARK    5  A    between atoms: N_12  and  C_14 
REMARK    6  A    between atoms: C_14  and  C_15 
REMARK    7  A    between atoms: C_27  and  C_28 
ROOT
HETATM    1  N   UNL     1     -43.014  59.873 -53.171  1.00  0.00    -0.268 N 
HETATM    2  C   UNL     1     -41.925  59.563 -53.924  1.00  0.00     0.326 C 
HETATM    3  O   UNL     1     -40.788  59.980 -53.801  1.00  0.00    -0.247 OA
HETATM    4  N   UNL     1     -42.313  58.663 -54.892  1.00  0.00    -0.324 N 
HETATM    5  C   UNL     1     -43.760  58.547 -55.000  1.00  0.00     0.123 C 
HETATM    6  C   UNL     1     -44.115  59.230 -53.660  1.00  0.00     0.257 C 
HETATM    7  O   UNL     1     -45.229  59.239 -53.154  1.00  0.00    -0.270 OA
HETATM    8  H   UNL     1     -41.661  58.462 -55.646  1.00  0.00     0.165 HD
ENDROOT
BRANCH   5   9
HETATM    9  C   UNL     1     -44.180  57.049 -55.172  1.00  0.00     0.027 C 
HETATM   10  C   UNL     1     -44.100  56.143 -53.931  1.00  0.00     0.035 C 
HETATM   11  C   UNL     1     -42.726  55.574 -53.598  1.00  0.00     0.235 C 
HETATM   12  N   UNL     1     -42.039  54.993 -54.810  1.00  0.00    -0.067 N 
HETATM   13  H   UNL     1     -42.494  54.092 -55.001  1.00  0.00     0.280 HD
HETATM   14  C   UNL     1     -42.115  55.824 -56.062  1.00  0.00     0.235 C 
HETATM   15  C   UNL     1     -43.526  56.296 -56.344  1.00  0.00     0.035 C 
BRANCH  12  16
HETATM   16  C   UNL     1     -40.572  54.679 -54.526  1.00  0.00     0.273 C 
BRANCH  16  17
HETATM   17  C   UNL     1     -40.323  53.345 -53.885  1.00  0.00    -0.030 A 
HETATM   18  C   UNL     1     -40.312  53.208 -52.490  1.00  0.00     0.048 A 
HETATM   19  C   UNL     1     -40.082  51.958 -51.912  1.00  0.00     0.102 A 
HETATM   20  C   UNL     1     -39.826  50.845 -52.715  1.00  0.00     0.102 A 
HETATM   21  O   UNL     1     -40.120  51.903 -50.544  1.00  0.00    -0.346 OA
HETATM   22  O   UNL     1     -39.565  49.599 -52.213  1.00  0.00    -0.346 OA
HETATM   23  C   UNL     1     -39.843  50.969 -54.100  1.00  0.00     0.040 A 
HETATM   24  C   UNL     1     -39.274  49.641 -50.810  1.00  0.00     0.202 C 
HETATM   25  C   UNL     1     -40.252  50.550 -50.084  1.00  0.00     0.202 C 
HETATM   26  C   UNL     1     -40.090  52.211 -54.685  1.00  0.00     0.012 A 
ENDBRANCH  16  17
ENDBRANCH  12  16
ENDBRANCH   5   9
BRANCH   5  27
HETATM   27  C   UNL     1     -44.305  59.507 -56.103  1.00  0.00     0.080 C 
BRANCH  27  28
HETATM   28  C   UNL     1     -43.285  59.986 -57.111  1.00  0.00    -0.052 A 
HETATM   29  C   UNL     1     -42.967  59.224 -58.241  1.00  0.00     0.049 A 
HETATM   30  C   UNL     1     -42.023  59.689 -59.154  1.00  0.00     0.116 A 
HETATM   31  F   UNL     1     -41.726  58.940 -60.224  1.00  0.00    -0.206 F 
HETATM   32  C   UNL     1     -41.389  60.910 -58.973  1.00  0.00     0.042 A 
HETATM   33  C   UNL     1     -41.705  61.685 -57.859  1.00  0.00     0.003 A 
HETATM   34  C   UNL     1     -42.648  61.227 -56.934  1.00  0.00     0.007 A 
ENDBRANCH  27  28
ENDBRANCH   5  27
BRANCH   1  35
HETATM   35  C   UNL     1     -43.010  60.828 -52.074  1.00  0.00     0.140 C 
BRANCH  35  36
HETATM   36  C   UNL     1     -42.962  60.179 -50.680  1.00  0.00    -0.004 C 
HETATM   37  C   UNL     1     -43.699  61.014 -49.631  1.00  0.00     0.011 C 
HETATM   38  C   UNL     1     -41.505  59.996 -50.247  1.00  0.00     0.011 C 
ENDBRANCH  35  36
ENDBRANCH   1  35
TORSDOF 7
ENDMDL
MODEL 10
REMARK VINA RESULT:      -8.5      3.247      9.062
REMARK  7 active torsions:
REMARK  status: ('A' for Active; 'I' for Inactive)
REMARK    1  A    between atoms: C_2  and  C_3 
REMARK    2  A    between atoms: C_3  and  N_4 
REMARK    3  A    between atoms: C_8  and  C_9 
REMARK    4  A    between atoms: C_8  and  C_27 
REMARK    5  A    between atoms: N_12  and  C_14 
REMARK    6  A    between atoms: C_14  and  C_15 
REMARK    7  A    between atoms: C_27  and  C_28 
ROOT
HETATM    1  N   UNL     1     -43.726  59.650 -55.581  1.00  0.00    -0.268 N 
HETATM    2  C   UNL     1     -44.460  58.511 -55.465  1.00  0.00     0.326 C 
HETATM    3  O   UNL     1     -45.026  57.893 -56.347  1.00  0.00    -0.247 OA
HETATM    4  N   UNL     1     -44.469  58.139 -54.139  1.00  0.00    -0.324 N 
HETATM    5  C   UNL     1     -43.966  59.185 -53.260  1.00  0.00     0.123 C 
HETATM    6  C   UNL     1     -43.298  60.054 -54.350  1.00  0.00     0.257 C 
HETATM    7  O   UNL     1     -42.550  60.997 -54.129  1.00  0.00    -0.270 OA
HETATM    8  H   UNL     1     -45.115  57.408 -53.852  1.00  0.00     0.165 HD
ENDROOT
BRANCH   5   9
HETATM    9  C   UNL     1     -43.033  58.577 -52.160  1.00  0.00     0.027 C 
HETATM   10  C   UNL     1     -41.514  58.728 -52.355  1.00  0.00     0.035 C 
HETATM   11  C   UNL     1     -40.849  57.715 -53.279  1.00  0.00     0.235 C 
HETATM   12  N   UNL     1     -41.278  56.299 -52.980  1.00  0.00    -0.067 N 
HETATM   13  H   UNL     1     -40.783  56.018 -52.125  1.00  0.00     0.280 HD
HETATM   14  C   UNL     1     -42.752  56.101 -52.748  1.00  0.00     0.235 C 
HETATM   15  C   UNL     1     -43.313  57.115 -51.772  1.00  0.00     0.035 C 
BRANCH  12  16
HETATM   16  C   UNL     1     -40.827  55.334 -54.073  1.00  0.00     0.273 C 
BRANCH  16  17
HETATM   17  C   UNL     1     -40.519  53.942 -53.600  1.00  0.00    -0.030 A 
HETATM   18  C   UNL     1     -40.484  53.639 -52.231  1.00  0.00     0.048 A 
HETATM   19  C   UNL     1     -40.199  52.339 -51.811  1.00  0.00     0.102 A 
HETATM   20  C   UNL     1     -39.912  51.342 -52.744  1.00  0.00     0.102 A 
HETATM   21  O   UNL     1     -40.217  52.119 -50.459  1.00  0.00    -0.346 OA
HETATM   22  O   UNL     1     -39.597  50.055 -52.398  1.00  0.00    -0.346 OA
HETATM   23  C   UNL     1     -39.952  51.630 -54.104  1.00  0.00     0.040 A 
HETATM   24  C   UNL     1     -39.289  49.940 -51.004  1.00  0.00     0.202 C 
HETATM   25  C   UNL     1     -40.291  50.716 -50.165  1.00  0.00     0.202 C 
HETATM   26  C   UNL     1     -40.254  52.924 -54.533  1.00  0.00     0.012 A 
ENDBRANCH  16  17
ENDBRANCH  12  16
ENDBRANCH   5   9
BRANCH   5  27
HETATM   27  C   UNL     1     -45.142  60.052 -52.712  1.00  0.00     0.080 C 
BRANCH  27  28
HETATM   28  C   UNL     1     -44.937  60.628 -51.330  1.00  0.00    -0.052 A 
HETATM   29  C   UNL     1     -45.509  60.029 -50.201  1.00  0.00     0.049 A 
HETATM   30  C   UNL     1     -45.305  60.580 -48.938  1.00  0.00     0.116 A 
HETATM   31  F   UNL     1     -45.869  59.998 -47.872  1.00  0.00    -0.206 F 
HETATM   32  C   UNL     1     -44.530  61.720 -48.769  1.00  0.00     0.042 A 
HETATM   33  C   UNL     1     -43.945  62.320 -49.881  1.00  0.00     0.003 A 
HETATM   34  C   UNL     1     -44.146  61.777 -51.154  1.00  0.00     0.007 A 
ENDBRANCH  27  28
ENDBRANCH   5  27
BRANCH   1  35
HETATM   35  C   UNL     1     -43.524  60.374 -56.827  1.00  0.00     0.140 C 
BRANCH  35  36
HETATM   36  C   UNL     1     -42.309  59.891 -57.640  1.00  0.00    -0.004 C 
HETATM   37  C   UNL     1     -41.384  61.045 -58.029  1.00  0.00     0.011 C 
HETATM   38  C   UNL     1     -42.788  59.177 -58.905  1.00  0.00     0.011 C 
ENDBRANCH  35  36
ENDBRANCH   1  35
TORSDOF 7
ENDMDL
