MODEL 1
REMARK VINA RESULT:      -8.5      0.000      0.000
REMARK  3 active torsions:
REMARK  status: ('A' for Active; 'I' for Inactive)
REMARK    1  A    between atoms: C_7  and  C_8 
REMARK       I    between atoms: C_8  and  N_9 
REMARK    2  A    between atoms: N_9  and  C_10 
REMARK    3  A    between atoms: C_11  and  O_12 
ROOT
HETATM    1  C   UNL     1     -42.608  57.012 -57.131  1.00  0.00     0.252 C 
HETATM    2  N   UNL     1     -42.314  56.005 -56.240  1.00  0.00    -0.346 N 
HETATM    3  O   UNL     1     -42.129  58.136 -57.034  1.00  0.00    -0.268 OA
HETATM    4  H   UNL     1     -42.840  55.145 -56.241  1.00  0.00     0.163 HD
ENDROOT
BRANCH   1   5
HETATM    5  C   UNL     1     -43.554  56.691 -58.242  1.00  0.00     0.033 A 
HETATM    6  C   UNL     1     -43.330  55.516 -58.970  1.00  0.00     0.019 A 
HETATM    7  C   UNL     1     -44.193  55.118 -59.997  1.00  0.00     0.031 A 
HETATM    8  C   UNL     1     -45.293  55.938 -60.269  1.00  0.00     0.043 A 
HETATM    9  C   UNL     1     -45.553  57.115 -59.572  1.00  0.00    -0.001 A 
HETATM   10  N   UNL     1     -46.297  55.785 -61.196  1.00  0.00    -0.359 N 
HETATM   11  C   UNL     1     -46.750  57.683 -60.120  1.00  0.00    -0.027 A 
HETATM   12  C   UNL     1     -44.670  57.494 -58.535  1.00  0.00     0.031 A 
HETATM   13  C   UNL     1     -47.411  58.951 -59.705  1.00  0.00     0.051 C 
HETATM   14  C   UNL     1     -47.187  56.826 -61.117  1.00  0.00     0.012 A 
HETATM   15  C   UNL     1     -48.379  56.901 -62.001  1.00  0.00     0.068 C 
HETATM   16  H   UNL     1     -46.367  55.005 -61.834  1.00  0.00     0.166 HD
ENDBRANCH   1   5
BRANCH   2  17
HETATM   17  C   UNL     1     -41.368  56.212 -55.162  1.00  0.00     0.147 C 
HETATM   18  C   UNL     1     -41.978  56.938 -53.926  1.00  0.00     0.149 C 
HETATM   19  C   UNL     1     -42.511  55.840 -52.984  1.00  0.00     0.073 C 
HETATM   20  C   UNL     1     -41.623  54.681 -53.332  1.00  0.00    -0.047 A 
HETATM   21  C   UNL     1     -40.982  54.888 -54.559  1.00  0.00    -0.027 A 
HETATM   22  C   UNL     1     -41.439  53.507 -52.621  1.00  0.00     0.008 A 
HETATM   23  C   UNL     1     -40.144  53.924 -55.100  1.00  0.00     0.010 A 
HETATM   24  C   UNL     1     -39.944  52.743 -54.384  1.00  0.00     0.001 A 
HETATM   25  C   UNL     1     -40.587  52.536 -53.154  1.00  0.00     0.001 A 
BRANCH  18  26
HETATM   26  O   UNL     1     -40.982  57.709 -53.231  1.00  0.00    -0.393 OA
HETATM   27  H   UNL     1     -41.212  58.649 -53.334  1.00  0.00     0.210 HD
ENDBRANCH  18  26
ENDBRANCH   2  17
TORSDOF 3
ENDMDL
MODEL 2
REMARK VINA RESULT:      -8.4      1.816      8.038
REMARK  3 active torsions:
REMARK  status: ('A' for Active; 'I' for Inactive)
REMARK    1  A    between atoms: C_7  and  C_8 
REMARK       I    between atoms: C_8  and  N_9 
REMARK    2  A    between atoms: N_9  and  C_10 
REMARK    3  A    between atoms: C_11  and  O_12 
ROOT
HETATM    1  C   UNL     1     -42.101  57.385 -56.036  1.00  0.00     0.252 C 
HETATM    2  N   UNL     1     -42.375  56.654 -57.170  1.00  0.00    -0.346 N 
HETATM    3  O   UNL     1     -42.087  58.611 -56.032  1.00  0.00    -0.268 OA
HETATM    4  H   UNL     1     -42.221  55.657 -57.191  1.00  0.00     0.163 HD
ENDROOT
BRANCH   1   5
HETATM    5  C   UNL     1     -41.810  56.625 -54.783  1.00  0.00     0.033 A 
HETATM    6  C   UNL     1     -42.141  57.227 -53.563  1.00  0.00     0.019 A 
HETATM    7  C   UNL     1     -41.943  56.567 -52.346  1.00  0.00     0.031 A 
HETATM    8  C   UNL     1     -41.405  55.277 -52.392  1.00  0.00     0.043 A 
HETATM    9  C   UNL     1     -41.061  54.640 -53.582  1.00  0.00    -0.001 A 
HETATM   10  N   UNL     1     -41.126  54.403 -51.368  1.00  0.00    -0.359 N 
HETATM   11  C   UNL     1     -40.547  53.346 -53.242  1.00  0.00    -0.027 A 
HETATM   12  C   UNL     1     -41.274  55.326 -54.799  1.00  0.00     0.031 A 
HETATM   13  C   UNL     1     -40.038  52.310 -54.182  1.00  0.00     0.051 C 
HETATM   14  C   UNL     1     -40.611  53.231 -51.863  1.00  0.00     0.012 A 
HETATM   15  C   UNL     1     -40.234  52.106 -50.968  1.00  0.00     0.068 C 
HETATM   16  H   UNL     1     -41.290  54.600 -50.391  1.00  0.00     0.166 HD
ENDBRANCH   1   5
BRANCH   2  17
HETATM   17  C   UNL     1     -42.718  57.307 -58.418  1.00  0.00     0.147 C 
HETATM   18  C   UNL     1     -42.323  56.487 -59.682  1.00  0.00     0.149 C 
HETATM   19  C   UNL     1     -43.538  55.606 -60.037  1.00  0.00     0.073 C 
HETATM   20  C   UNL     1     -44.674  56.415 -59.482  1.00  0.00    -0.047 A 
HETATM   21  C   UNL     1     -44.214  57.370 -58.567  1.00  0.00    -0.027 A 
HETATM   22  C   UNL     1     -46.026  56.273 -59.743  1.00  0.00     0.008 A 
HETATM   23  C   UNL     1     -45.098  58.202 -57.897  1.00  0.00     0.010 A 
HETATM   24  C   UNL     1     -46.461  58.073 -58.163  1.00  0.00     0.001 A 
HETATM   25  C   UNL     1     -46.922  57.115 -59.079  1.00  0.00     0.001 A 
BRANCH  18  26
HETATM   26  O   UNL     1     -42.031  57.353 -60.793  1.00  0.00    -0.393 OA
HETATM   27  H   UNL     1     -42.633  58.115 -60.738  1.00  0.00     0.210 HD
ENDBRANCH  18  26
ENDBRANCH   2  17
TORSDOF 3
ENDMDL
MODEL 3
REMARK VINA RESULT:      -8.3      2.030      8.099
REMARK  3 active torsions:
REMARK  status: ('A' for Active; 'I' for Inactive)
REMARK    1  A    between atoms: C_7  and  C_8 
REMARK       I    between atoms: C_8  and  N_9 
REMARK    2  A    between atoms: N_9  and  C_10 
REMARK    3  A    between atoms: C_11  and  O_12 
ROOT
HETATM    1  C   UNL     1     -42.183  56.684 -55.975  1.00  0.00     0.252 C 
HETATM    2  N   UNL     1     -42.492  56.115 -57.189  1.00  0.00    -0.346 N 
HETATM    3  O   UNL     1     -42.076  57.896 -55.824  1.00  0.00    -0.268 OA
HETATM    4  H   UNL     1     -42.413  55.119 -57.328  1.00  0.00     0.163 HD
ENDROOT
BRANCH   1   5
HETATM    5  C   UNL     1     -41.971  55.761 -54.819  1.00  0.00     0.033 A 
HETATM    6  C   UNL     1     -41.978  54.385 -55.073  1.00  0.00     0.019 A 
HETATM    7  C   UNL     1     -41.743  53.453 -54.056  1.00  0.00     0.031 A 
HETATM    8  C   UNL     1     -41.498  53.949 -52.772  1.00  0.00     0.043 A 
HETATM    9  C   UNL     1     -41.483  55.309 -52.473  1.00  0.00    -0.001 A 
HETATM   10  N   UNL     1     -41.223  53.275 -51.605  1.00  0.00    -0.359 N 
HETATM   11  C   UNL     1     -41.202  55.439 -51.073  1.00  0.00    -0.027 A 
HETATM   12  C   UNL     1     -41.718  56.231 -53.518  1.00  0.00     0.031 A 
HETATM   13  C   UNL     1     -41.100  56.702 -50.294  1.00  0.00     0.051 C 
HETATM   14  C   UNL     1     -41.038  54.158 -50.571  1.00  0.00     0.012 A 
HETATM   15  C   UNL     1     -40.713  53.692 -49.198  1.00  0.00     0.068 C 
HETATM   16  H   UNL     1     -41.158  52.269 -51.532  1.00  0.00     0.166 HD
ENDBRANCH   1   5
BRANCH   2  17
HETATM   17  C   UNL     1     -42.763  56.936 -58.353  1.00  0.00     0.147 C 
HETATM   18  C   UNL     1     -42.467  56.220 -59.705  1.00  0.00     0.149 C 
HETATM   19  C   UNL     1     -43.775  55.525 -60.135  1.00  0.00     0.073 C 
HETATM   20  C   UNL     1     -44.811  56.389 -59.477  1.00  0.00    -0.047 A 
HETATM   21  C   UNL     1     -44.244  57.180 -58.471  1.00  0.00    -0.027 A 
HETATM   22  C   UNL     1     -46.171  56.428 -59.731  1.00  0.00     0.008 A 
HETATM   23  C   UNL     1     -45.026  58.027 -57.701  1.00  0.00     0.010 A 
HETATM   24  C   UNL     1     -46.396  58.080 -57.958  1.00  0.00     0.001 A 
HETATM   25  C   UNL     1     -46.965  57.287 -58.965  1.00  0.00     0.001 A 
BRANCH  18  26
HETATM   26  O   UNL     1     -42.083  57.165 -60.720  1.00  0.00    -0.393 OA
HETATM   27  H   UNL     1     -42.089  58.051 -60.314  1.00  0.00     0.210 HD
ENDBRANCH  18  26
ENDBRANCH   2  17
TORSDOF 3
ENDMDL
MODEL 4
REMARK VINA RESULT:      -8.1      2.941      8.128
REMARK  3 active torsions:
REMARK  status: ('A' for Active; 'I' for Inactive)
REMARK    1  A    between atoms: C_7  and  C_8 
REMARK       I    between atoms: C_8  and  N_9 
REMARK    2  A    between atoms: N_9  and  C_10 
REMARK    3  A    between atoms: C_11  and  O_12 
ROOT
HETATM    1  C   UNL     1     -43.196  56.209 -53.976  1.00  0.00     0.252 C 
HETATM    2  N   UNL     1     -42.795  56.440 -55.272  1.00  0.00    -0.346 N 
HETATM    3  O   UNL     1     -44.197  56.729 -53.495  1.00  0.00    -0.268 OA
HETATM    4  H   UNL     1     -41.889  56.137 -55.595  1.00  0.00     0.163 HD
ENDROOT
BRANCH   1   5
HETATM    5  C   UNL     1     -42.356  55.288 -53.152  1.00  0.00     0.033 A 
HETATM    6  C   UNL     1     -42.174  55.606 -51.801  1.00  0.00     0.019 A 
HETATM    7  C   UNL     1     -41.439  54.774 -50.949  1.00  0.00     0.031 A 
HETATM    8  C   UNL     1     -40.894  53.609 -51.496  1.00  0.00     0.043 A 
HETATM    9  C   UNL     1     -41.050  53.254 -52.834  1.00  0.00    -0.001 A 
HETATM   10  N   UNL     1     -40.155  52.616 -50.897  1.00  0.00    -0.359 N 
HETATM   11  C   UNL     1     -40.363  52.011 -53.031  1.00  0.00    -0.027 A 
HETATM   12  C   UNL     1     -41.800  54.107 -53.675  1.00  0.00     0.031 A 
HETATM   13  C   UNL     1     -40.240  51.249 -54.303  1.00  0.00     0.051 C 
HETATM   14  C   UNL     1     -39.829  51.642 -51.807  1.00  0.00     0.012 A 
HETATM   15  C   UNL     1     -39.041  50.444 -51.418  1.00  0.00     0.068 C 
HETATM   16  H   UNL     1     -39.901  52.608 -49.919  1.00  0.00     0.166 HD
ENDBRANCH   1   5
BRANCH   2  17
HETATM   17  C   UNL     1     -43.577  57.278 -56.160  1.00  0.00     0.147 C 
HETATM   18  C   UNL     1     -43.289  58.801 -55.995  1.00  0.00     0.149 C 
HETATM   19  C   UNL     1     -42.159  59.148 -56.985  1.00  0.00     0.073 C 
HETATM   20  C   UNL     1     -42.353  58.109 -58.049  1.00  0.00    -0.047 A 
HETATM   21  C   UNL     1     -43.148  57.054 -57.585  1.00  0.00    -0.027 A 
HETATM   22  C   UNL     1     -41.818  58.088 -59.326  1.00  0.00     0.008 A 
HETATM   23  C   UNL     1     -43.424  55.958 -58.389  1.00  0.00     0.010 A 
HETATM   24  C   UNL     1     -42.898  55.935 -59.680  1.00  0.00     0.001 A 
HETATM   25  C   UNL     1     -42.101  56.992 -60.146  1.00  0.00     0.001 A 
BRANCH  18  26
HETATM   26  O   UNL     1     -44.451  59.587 -56.316  1.00  0.00    -0.393 OA
HETATM   27  H   UNL     1     -44.681  60.108 -55.527  1.00  0.00     0.210 HD
ENDBRANCH  18  26
ENDBRANCH   2  17
TORSDOF 3
ENDMDL
MODEL 5
REMARK VINA RESULT:      -7.9     15.899     17.297
REMARK  3 active torsions:
REMARK  status: ('A' for Active; 'I' for Inactive)
REMARK    1  A    between atoms: C_7  and  C_8 
REMARK       I    between atoms: C_8  and  N_9 
REMARK    2  A    between atoms: N_9  and  C_10 
REMARK    3  A    between atoms: C_11  and  O_12 
ROOT
HETATM    1  C   UNL     1     -38.198  41.048 -54.894  1.00  0.00     0.252 C 
HETATM    2  N   UNL     1     -37.179  40.670 -54.049  1.00  0.00    -0.346 N 
HETATM    3  O   UNL     1     -39.298  41.397 -54.481  1.00  0.00    -0.268 OA
HETATM    4  H   UNL     1     -36.345  40.232 -54.409  1.00  0.00     0.163 HD
ENDROOT
BRANCH   1   5
HETATM    5  C   UNL     1     -37.920  41.014 -56.361  1.00  0.00     0.033 A 
HETATM    6  C   UNL     1     -37.195  42.078 -56.912  1.00  0.00     0.019 A 
HETATM    7  C   UNL     1     -36.854  42.103 -58.269  1.00  0.00     0.031 A 
HETATM    8  C   UNL     1     -37.260  41.022 -59.057  1.00  0.00     0.043 A 
HETATM    9  C   UNL     1     -37.983  39.944 -58.551  1.00  0.00    -0.001 A 
HETATM   10  N   UNL     1     -37.051  40.779 -60.394  1.00  0.00    -0.359 N 
HETATM   11  C   UNL     1     -38.219  39.039 -59.637  1.00  0.00    -0.027 A 
HETATM   12  C   UNL     1     -38.312  39.939 -57.177  1.00  0.00     0.031 A 
HETATM   13  C   UNL     1     -38.964  37.751 -59.584  1.00  0.00     0.051 C 
HETATM   14  C   UNL     1     -37.619  39.585 -60.761  1.00  0.00     0.012 A 
HETATM   15  C   UNL     1     -37.529  39.074 -62.152  1.00  0.00     0.068 C 
HETATM   16  H   UNL     1     -36.540  41.395 -61.010  1.00  0.00     0.166 HD
ENDBRANCH   1   5
BRANCH   2  17
HETATM   17  C   UNL     1     -37.343  40.720 -52.609  1.00  0.00     0.147 C 
HETATM   18  C   UNL     1     -37.823  39.374 -51.988  1.00  0.00     0.149 C 
HETATM   19  C   UNL     1     -36.555  38.578 -51.618  1.00  0.00     0.073 C 
HETATM   20  C   UNL     1     -35.561  39.678 -51.387  1.00  0.00    -0.047 A 
HETATM   21  C   UNL     1     -36.001  40.883 -51.948  1.00  0.00    -0.027 A 
HETATM   22  C   UNL     1     -34.329  39.593 -50.759  1.00  0.00     0.008 A 
HETATM   23  C   UNL     1     -35.219  42.027 -51.891  1.00  0.00     0.010 A 
HETATM   24  C   UNL     1     -33.982  41.952 -51.251  1.00  0.00     0.001 A 
HETATM   25  C   UNL     1     -33.540  40.744 -50.689  1.00  0.00     0.001 A 
BRANCH  18  26
HETATM   26  O   UNL     1     -38.599  39.600 -50.798  1.00  0.00    -0.393 OA
HETATM   27  H   UNL     1     -39.528  39.400 -51.010  1.00  0.00     0.210 HD
ENDBRANCH  18  26
ENDBRANCH   2  17
TORSDOF 3
ENDMDL
MODEL 6
REMARK VINA RESULT:      -7.8      2.865      8.248
REMARK  3 active torsions:
REMARK  status: ('A' for Active; 'I' for Inactive)
REMARK    1  A    between atoms: C_7  and  C_8 
REMARK       I    between atoms: C_8  and  N_9 
REMARK    2  A    between atoms: N_9  and  C_10 
REMARK    3  A    between atoms: C_11  and  O_12 
ROOT
HETATM    1  C   UNL     1     -41.654  56.891 -53.729  1.00  0.00     0.252 C 
HETATM    2  N   UNL     1     -42.386  57.241 -54.841  1.00  0.00    -0.346 N 
HETATM    3  O   UNL     1     -41.385  57.692 -52.840  1.00  0.00    -0.268 OA
HETATM    4  H   UNL     1     -42.455  56.618 -55.631  1.00  0.00     0.163 HD
ENDROOT
BRANCH   1   5
HETATM    5  C   UNL     1     -41.181  55.477 -53.636  1.00  0.00     0.033 A 
HETATM    6  C   UNL     1     -40.837  54.825 -54.825  1.00  0.00     0.019 A 
HETATM    7  C   UNL     1     -40.343  53.515 -54.823  1.00  0.00     0.031 A 
HETATM    8  C   UNL     1     -40.202  52.881 -53.586  1.00  0.00     0.043 A 
HETATM    9  C   UNL     1     -40.534  53.491 -52.378  1.00  0.00    -0.001 A 
HETATM   10  N   UNL     1     -39.733  51.623 -53.289  1.00  0.00    -0.359 N 
HETATM   11  C   UNL     1     -40.260  52.550 -51.332  1.00  0.00    -0.027 A 
HETATM   12  C   UNL     1     -41.026  54.816 -52.405  1.00  0.00     0.031 A 
HETATM   13  C   UNL     1     -40.470  52.747 -49.872  1.00  0.00     0.051 C 
HETATM   14  C   UNL     1     -39.757  51.407 -51.934  1.00  0.00     0.012 A 
HETATM   15  C   UNL     1     -39.288  50.129 -51.340  1.00  0.00     0.068 C 
HETATM   16  H   UNL     1     -39.408  50.961 -53.979  1.00  0.00     0.166 HD
ENDBRANCH   1   5
BRANCH   2  17
HETATM   17  C   UNL     1     -42.928  58.578 -54.990  1.00  0.00     0.147 C 
HETATM   18  C   UNL     1     -41.952  59.574 -55.684  1.00  0.00     0.149 C 
HETATM   19  C   UNL     1     -42.243  59.500 -57.196  1.00  0.00     0.073 C 
HETATM   20  C   UNL     1     -43.684  59.082 -57.210  1.00  0.00    -0.047 A 
HETATM   21  C   UNL     1     -44.070  58.559 -55.970  1.00  0.00    -0.027 A 
HETATM   22  C   UNL     1     -44.572  59.125 -58.271  1.00  0.00     0.008 A 
HETATM   23  C   UNL     1     -45.352  58.070 -55.767  1.00  0.00     0.010 A 
HETATM   24  C   UNL     1     -46.255  58.120 -56.828  1.00  0.00     0.001 A 
HETATM   25  C   UNL     1     -45.869  58.643 -58.072  1.00  0.00     0.001 A 
BRANCH  18  26
HETATM   26  O   UNL     1     -42.174  60.920 -55.229  1.00  0.00    -0.393 OA
HETATM   27  H   UNL     1     -43.079  60.965 -54.872  1.00  0.00     0.210 HD
ENDBRANCH  18  26
ENDBRANCH   2  17
TORSDOF 3
ENDMDL
MODEL 7
REMARK VINA RESULT:      -7.8      3.581      8.138
REMARK  3 active torsions:
REMARK  status: ('A' for Active; 'I' for Inactive)
REMARK    1  A    between atoms: C_7  and  C_8 
REMARK       I    between atoms: C_8  and  N_9 
REMARK    2  A    between atoms: N_9  and  C_10 
REMARK    3  A    between atoms: C_11  and  O_12 
ROOT
HETATM    1  C   UNL     1     -42.759  55.352 -55.554  1.00  0.00     0.252 C 
HETATM    2  N   UNL     1     -43.388  56.514 -55.169  1.00  0.00    -0.346 N 
HETATM    3  O   UNL     1     -42.854  54.897 -56.689  1.00  0.00    -0.268 OA
HETATM    4  H   UNL     1     -43.432  56.780 -54.197  1.00  0.00     0.163 HD
ENDROOT
BRANCH   1   5
HETATM    5  C   UNL     1     -41.942  54.640 -54.525  1.00  0.00     0.033 A 
HETATM    6  C   UNL     1     -41.606  55.340 -53.360  1.00  0.00     0.019 A 
HETATM    7  C   UNL     1     -40.882  54.734 -52.328  1.00  0.00     0.031 A 
HETATM    8  C   UNL     1     -40.507  53.398 -52.500  1.00  0.00     0.043 A 
HETATM    9  C   UNL     1     -40.819  52.664 -53.643  1.00  0.00    -0.001 A 
HETATM   10  N   UNL     1     -39.818  52.561 -51.656  1.00  0.00    -0.359 N 
HETATM   11  C   UNL     1     -40.279  51.348 -53.467  1.00  0.00    -0.027 A 
HETATM   12  C   UNL     1     -41.555  53.296 -54.670  1.00  0.00     0.031 A 
HETATM   13  C   UNL     1     -40.349  50.216 -54.431  1.00  0.00     0.051 C 
HETATM   14  C   UNL     1     -39.674  51.319 -52.221  1.00  0.00     0.012 A 
HETATM   15  C   UNL     1     -38.976  50.216 -51.511  1.00  0.00     0.068 C 
HETATM   16  H   UNL     1     -39.477  52.829 -50.743  1.00  0.00     0.166 HD
ENDBRANCH   1   5
BRANCH   2  17
HETATM   17  C   UNL     1     -44.160  57.296 -56.114  1.00  0.00     0.147 C 
HETATM   18  C   UNL     1     -45.467  57.893 -55.512  1.00  0.00     0.149 C 
HETATM   19  C   UNL     1     -45.104  59.285 -54.956  1.00  0.00     0.073 C 
HETATM   20  C   UNL     1     -43.943  59.668 -55.825  1.00  0.00    -0.047 A 
HETATM   21  C   UNL     1     -43.407  58.549 -56.474  1.00  0.00    -0.027 A 
HETATM   22  C   UNL     1     -43.377  60.922 -55.985  1.00  0.00     0.008 A 
HETATM   23  C   UNL     1     -42.297  58.662 -57.298  1.00  0.00     0.010 A 
HETATM   24  C   UNL     1     -41.729  59.924 -57.473  1.00  0.00     0.001 A 
HETATM   25  C   UNL     1     -42.265  61.046 -56.822  1.00  0.00     0.001 A 
BRANCH  18  26
HETATM   26  O   UNL     1     -46.483  58.040 -56.519  1.00  0.00    -0.393 OA
HETATM   27  H   UNL     1     -47.097  57.289 -56.430  1.00  0.00     0.210 HD
ENDBRANCH  18  26
ENDBRANCH   2  17
TORSDOF 3
ENDMDL
MODEL 8
REMARK VINA RESULT:      -7.7      2.264      8.235
REMARK  3 active torsions:
REMARK  status: ('A' for Active; 'I' for Inactive)
REMARK    1  A    between atoms: C_7  and  C_8 
REMARK       I    between atoms: C_8  and  N_9 
REMARK    2  A    between atoms: N_9  and  C_10 
REMARK    3  A    between atoms: C_11  and  O_12 
ROOT
HETATM    1  C   UNL     1     -43.509  56.778 -57.669  1.00  0.00     0.252 C 
HETATM    2  N   UNL     1     -44.620  56.394 -58.384  1.00  0.00    -0.346 N 
HETATM    3  O   UNL     1     -42.493  57.202 -58.210  1.00  0.00    -0.268 OA
HETATM    4  H   UNL     1     -45.376  55.899 -57.936  1.00  0.00     0.163 HD
ENDROOT
BRANCH   1   5
HETATM    5  C   UNL     1     -43.573  56.655 -56.181  1.00  0.00     0.033 A 
HETATM    6  C   UNL     1     -44.363  57.578 -55.485  1.00  0.00     0.019 A 
HETATM    7  C   UNL     1     -44.514  57.507 -54.095  1.00  0.00     0.031 A 
HETATM    8  C   UNL     1     -43.849  56.476 -53.426  1.00  0.00     0.043 A 
HETATM    9  C   UNL     1     -43.052  55.538 -54.078  1.00  0.00    -0.001 A 
HETATM   10  N   UNL     1     -43.833  56.161 -52.088  1.00  0.00    -0.359 N 
HETATM   11  C   UNL     1     -42.538  54.644 -53.081  1.00  0.00    -0.027 A 
HETATM   12  C   UNL     1     -42.918  55.627 -55.482  1.00  0.00     0.031 A 
HETATM   13  C   UNL     1     -41.627  53.488 -53.300  1.00  0.00     0.051 C 
HETATM   14  C   UNL     1     -43.050  55.057 -51.862  1.00  0.00     0.012 A 
HETATM   15  C   UNL     1     -42.872  54.493 -50.499  1.00  0.00     0.068 C 
HETATM   16  H   UNL     1     -44.339  56.672 -51.378  1.00  0.00     0.166 HD
ENDBRANCH   1   5
BRANCH   2  17
HETATM   17  C   UNL     1     -44.665  56.527 -59.827  1.00  0.00     0.147 C 
HETATM   18  C   UNL     1     -45.561  55.460 -60.524  1.00  0.00     0.149 C 
HETATM   19  C   UNL     1     -46.977  56.065 -60.622  1.00  0.00     0.073 C 
HETATM   20  C   UNL     1     -46.679  57.535 -60.653  1.00  0.00    -0.047 A 
HETATM   21  C   UNL     1     -45.380  57.797 -60.201  1.00  0.00    -0.027 A 
HETATM   22  C   UNL     1     -47.528  58.567 -61.015  1.00  0.00     0.008 A 
HETATM   23  C   UNL     1     -44.904  59.096 -60.104  1.00  0.00     0.010 A 
HETATM   24  C   UNL     1     -45.750  60.140 -60.478  1.00  0.00     0.001 A 
HETATM   25  C   UNL     1     -47.052  59.879 -60.930  1.00  0.00     0.001 A 
BRANCH  18  26
HETATM   26  O   UNL     1     -45.084  55.167 -61.849  1.00  0.00    -0.393 OA
HETATM   27  H   UNL     1     -44.285  55.703 -61.999  1.00  0.00     0.210 HD
ENDBRANCH  18  26
ENDBRANCH   2  17
TORSDOF 3
ENDMDL
MODEL 9
REMARK VINA RESULT:      -7.6      3.372      4.697
REMARK  3 active torsions:
REMARK  status: ('A' for Active; 'I' for Inactive)
REMARK    1  A    between atoms: C_7  and  C_8 
REMARK       I    between atoms: C_8  and  N_9 
REMARK    2  A    between atoms: N_9  and  C_10 
REMARK    3  A    between atoms: C_11  and  O_12 
ROOT
HETATM    1  C   UNL     1     -42.813  55.245 -55.025  1.00  0.00     0.252 C 
HETATM    2  N   UNL     1     -41.686  54.492 -54.787  1.00  0.00    -0.346 N 
HETATM    3  O   UNL     1     -43.936  54.866 -54.710  1.00  0.00    -0.268 OA
HETATM    4  H   UNL     1     -40.800  54.744 -55.197  1.00  0.00     0.163 HD
ENDROOT
BRANCH   1   5
HETATM    5  C   UNL     1     -42.626  56.566 -55.697  1.00  0.00     0.033 A 
HETATM    6  C   UNL     1     -42.462  57.695 -54.885  1.00  0.00     0.019 A 
HETATM    7  C   UNL     1     -42.237  58.962 -55.433  1.00  0.00     0.031 A 
HETATM    8  C   UNL     1     -42.178  59.061 -56.826  1.00  0.00     0.043 A 
HETATM    9  C   UNL     1     -42.336  57.966 -57.673  1.00  0.00    -0.001 A 
HETATM   10  N   UNL     1     -41.955  60.160 -57.623  1.00  0.00    -0.359 N 
HETATM   11  C   UNL     1     -42.215  58.443 -59.019  1.00  0.00    -0.027 A 
HETATM   12  C   UNL     1     -42.558  56.695 -57.096  1.00  0.00     0.031 A 
HETATM   13  C   UNL     1     -42.327  57.640 -60.267  1.00  0.00     0.051 C 
HETATM   14  C   UNL     1     -41.970  59.805 -58.948  1.00  0.00     0.012 A 
HETATM   15  C   UNL     1     -41.742  60.803 -60.024  1.00  0.00     0.068 C 
HETATM   16  H   UNL     1     -41.793  61.093 -57.271  1.00  0.00     0.166 HD
ENDBRANCH   1   5
BRANCH   2  17
HETATM   17  C   UNL     1     -41.767  53.221 -54.094  1.00  0.00     0.147 C 
HETATM   18  C   UNL     1     -40.634  52.225 -54.481  1.00  0.00     0.149 C 
HETATM   19  C   UNL     1     -39.474  52.465 -53.492  1.00  0.00     0.073 C 
HETATM   20  C   UNL     1     -40.202  52.991 -52.290  1.00  0.00    -0.047 A 
HETATM   21  C   UNL     1     -41.491  53.420 -52.628  1.00  0.00    -0.027 A 
HETATM   22  C   UNL     1     -39.726  53.118 -50.996  1.00  0.00     0.008 A 
HETATM   23  C   UNL     1     -42.329  53.984 -51.677  1.00  0.00     0.010 A 
HETATM   24  C   UNL     1     -41.861  54.104 -50.369  1.00  0.00     0.001 A 
HETATM   25  C   UNL     1     -40.569  53.675 -50.030  1.00  0.00     0.001 A 
BRANCH  18  26
HETATM   26  O   UNL     1     -41.077  50.862 -54.361  1.00  0.00    -0.393 OA
HETATM   27  H   UNL     1     -42.004  50.827 -54.656  1.00  0.00     0.210 HD
ENDBRANCH  18  26
ENDBRANCH   2  17
TORSDOF 3
ENDMDL
MODEL 10
REMARK VINA RESULT:      -7.5      1.330      2.186
REMARK  3 active torsions:
REMARK  status: ('A' for Active; 'I' for Inactive)
REMARK    1  A    between atoms: C_7  and  C_8 
REMARK       I    between atoms: C_8  and  N_9 
REMARK    2  A    between atoms: N_9  and  C_10 
REMARK    3  A    between atoms: C_11  and  O_12 
ROOT
HETATM    1  C   UNL     1     -42.568  58.098 -55.830  1.00  0.00     0.252 C 
HETATM    2  N   UNL     1     -42.471  57.031 -54.966  1.00  0.00    -0.346 N 
HETATM    3  O   UNL     1     -41.764  59.023 -55.826  1.00  0.00    -0.268 OA
HETATM    4  H   UNL     1     -43.227  56.370 -54.875  1.00  0.00     0.163 HD
ENDROOT
BRANCH   1   5
HETATM    5  C   UNL     1     -43.710  58.098 -56.794  1.00  0.00     0.033 A 
HETATM    6  C   UNL     1     -44.578  59.197 -56.777  1.00  0.00     0.019 A 
HETATM    7  C   UNL     1     -45.645  59.298 -57.675  1.00  0.00     0.031 A 
HETATM    8  C   UNL     1     -45.813  58.260 -58.597  1.00  0.00     0.043 A 
HETATM    9  C   UNL     1     -44.974  57.149 -58.649  1.00  0.00    -0.001 A 
HETATM   10  N   UNL     1     -46.750  58.108 -59.592  1.00  0.00    -0.359 N 
HETATM   11  C   UNL     1     -45.447  56.304 -59.708  1.00  0.00    -0.027 A 
HETATM   12  C   UNL     1     -43.900  57.071 -57.734  1.00  0.00     0.031 A 
HETATM   13  C   UNL     1     -44.877  54.996 -60.131  1.00  0.00     0.051 C 
HETATM   14  C   UNL     1     -46.542  56.936 -60.274  1.00  0.00     0.012 A 
HETATM   15  C   UNL     1     -47.408  56.533 -61.412  1.00  0.00     0.068 C 
HETATM   16  H   UNL     1     -47.480  58.777 -59.791  1.00  0.00     0.166 HD
ENDBRANCH   1   5
BRANCH   2  17
HETATM   17  C   UNL     1     -41.368  56.922 -54.032  1.00  0.00     0.147 C 
HETATM   18  C   UNL     1     -41.744  57.316 -52.572  1.00  0.00     0.149 C 
HETATM   19  C   UNL     1     -42.208  56.024 -51.869  1.00  0.00     0.073 C 
HETATM   20  C   UNL     1     -41.459  54.974 -52.635  1.00  0.00    -0.047 A 
HETATM   21  C   UNL     1     -40.989  55.477 -53.854  1.00  0.00    -0.027 A 
HETATM   22  C   UNL     1     -41.255  53.650 -52.285  1.00  0.00     0.008 A 
HETATM   23  C   UNL     1     -40.304  54.666 -54.747  1.00  0.00     0.010 A 
HETATM   24  C   UNL     1     -40.084  53.334 -54.396  1.00  0.00     0.001 A 
HETATM   25  C   UNL     1     -40.556  52.829 -53.175  1.00  0.00     0.001 A 
BRANCH  18  26
HETATM   26  O   UNL     1     -40.608  57.850 -51.869  1.00  0.00    -0.393 OA
HETATM   27  H   UNL     1     -39.809  57.448 -52.253  1.00  0.00     0.210 HD
ENDBRANCH  18  26
ENDBRANCH   2  17
TORSDOF 3
ENDMDL
