MODEL 1
REMARK VINA RESULT:      -9.5      0.000      0.000
REMARK  7 active torsions:
REMARK  status: ('A' for Active; 'I' for Inactive)
REMARK    1  A    between atoms: C_5  and  C_6 
REMARK    2  A    between atoms: C_6  and  C_7 
REMARK    3  A    between atoms: C_7  and  N_8 
REMARK       I    between atoms: N_8  and  C_9 
REMARK    4  A    between atoms: C_9  and  C_10 
REMARK    5  A    between atoms: C_13  and  O_14 
REMARK    6  A    between atoms: C_15  and  C_16 
REMARK    7  A    between atoms: C_16  and  C_17 
ROOT
HETATM    1  C   UNL     1     -41.405  57.854 -52.272  1.00  0.00     0.099 A 
HETATM    2  C   UNL     1     -42.267  58.119 -53.321  1.00  0.00     0.171 A 
HETATM    3  N   UNL     1     -41.666  59.116 -54.075  1.00  0.00    -0.192 N 
HETATM    4  C   UNL     1     -42.220  59.541 -55.288  1.00  0.00     0.174 C 
HETATM    5  C   UNL     1     -43.365  58.992 -55.745  1.00  0.00     0.023 C 
HETATM    6  C   UNL     1     -44.014  58.018 -54.782  1.00  0.00     0.044 C 
HETATM    7  C   UNL     1     -45.403  57.499 -55.082  1.00  0.00     0.071 C 
HETATM    8  N   UNL     1     -43.477  57.590 -53.671  1.00  0.00    -0.233 NA
HETATM    9  N   UNL     1     -40.499  59.548 -53.529  1.00  0.00    -0.175 NA
HETATM   10  C   UNL     1     -40.350  58.775 -52.450  1.00  0.00     0.160 A 
ENDROOT
BRANCH   1  11
HETATM   11  C   UNL     1     -41.533  56.852 -51.233  1.00  0.00     0.257 C 
HETATM   12  N   UNL     1     -41.952  55.618 -51.673  1.00  0.00    -0.356 N 
HETATM   13  H   UNL     1     -42.097  55.508 -52.676  1.00  0.00     0.162 HD
HETATM   14  O   UNL     1     -41.254  57.095 -50.063  1.00  0.00    -0.267 OA
BRANCH  12  15
HETATM   15  C   UNL     1     -41.966  54.460 -50.807  1.00  0.00     0.127 C 
BRANCH  15  16
HETATM   16  C   UNL     1     -40.576  53.842 -50.666  1.00  0.00     0.058 C 
BRANCH  16  17
HETATM   17  C   UNL     1     -40.323  52.778 -51.702  1.00  0.00    -0.057 A 
HETATM   18  C   UNL     1     -39.795  51.537 -51.330  1.00  0.00     0.007 A 
HETATM   19  C   UNL     1     -39.537  50.558 -52.292  1.00  0.00     0.007 A 
HETATM   20  C   UNL     1     -39.794  50.808 -53.645  1.00  0.00    -0.062 A 
HETATM   21  C   UNL     1     -39.535  49.760 -54.685  1.00  0.00     0.048 C 
HETATM   22  C   UNL     1     -40.325  52.048 -54.017  1.00  0.00     0.007 A 
HETATM   23  C   UNL     1     -40.584  53.027 -53.055  1.00  0.00     0.007 A 
ENDBRANCH  16  17
ENDBRANCH  15  16
ENDBRANCH  12  15
ENDBRANCH   1  11
BRANCH   4  24
HETATM   24  O   UNL     1     -41.520  60.488 -56.024  1.00  0.00    -0.344 OA
HETATM   25  H   UNL     1     -42.159  60.829 -56.689  1.00  0.00     0.219 HD
ENDBRANCH   4  24
BRANCH   5  26
HETATM   26  C   UNL     1     -43.954  59.292 -57.098  1.00  0.00     0.084 C 
BRANCH  26  27
HETATM   27  C   UNL     1     -43.448  58.414 -58.232  1.00  0.00    -0.047 A 
HETATM   28  C   UNL     1     -42.528  58.857 -59.207  1.00  0.00    -0.055 A 
HETATM   29  C   UNL     1     -41.975  60.256 -59.231  1.00  0.00     0.049 C 
HETATM   30  C   UNL     1     -42.081  57.955 -60.187  1.00  0.00     0.008 A 
HETATM   31  C   UNL     1     -42.560  56.646 -60.237  1.00  0.00     0.007 A 
HETATM   32  C   UNL     1     -43.495  56.203 -59.303  1.00  0.00    -0.061 A 
HETATM   33  C   UNL     1     -44.051  54.812 -59.376  1.00  0.00     0.048 C 
HETATM   34  C   UNL     1     -43.945  57.095 -58.322  1.00  0.00     0.014 A 
ENDBRANCH  26  27
ENDBRANCH   5  26
TORSDOF 7
ENDMDL
MODEL 2
REMARK VINA RESULT:      -9.4      1.366      2.137
REMARK  7 active torsions:
REMARK  status: ('A' for Active; 'I' for Inactive)
REMARK    1  A    between atoms: C_5  and  C_6 
REMARK    2  A    between atoms: C_6  and  C_7 
REMARK    3  A    between atoms: C_7  and  N_8 
REMARK       I    between atoms: N_8  and  C_9 
REMARK    4  A    between atoms: C_9  and  C_10 
REMARK    5  A    between atoms: C_13  and  O_14 
REMARK    6  A    between atoms: C_15  and  C_16 
REMARK    7  A    between atoms: C_16  and  C_17 
ROOT
HETATM    1  C   UNL     1     -41.540  57.819 -52.186  1.00  0.00     0.099 A 
HETATM    2  C   UNL     1     -41.928  57.559 -53.488  1.00  0.00     0.171 A 
HETATM    3  N   UNL     1     -41.827  58.762 -54.170  1.00  0.00    -0.192 N 
HETATM    4  C   UNL     1     -42.034  58.829 -55.553  1.00  0.00     0.174 C 
HETATM    5  C   UNL     1     -42.347  57.718 -56.251  1.00  0.00     0.023 C 
HETATM    6  C   UNL     1     -42.571  56.489 -55.394  1.00  0.00     0.044 C 
HETATM    7  C   UNL     1     -43.132  55.237 -56.032  1.00  0.00     0.071 C 
HETATM    8  N   UNL     1     -42.338  56.415 -54.111  1.00  0.00    -0.233 NA
HETATM    9  N   UNL     1     -41.461  59.790 -53.361  1.00  0.00    -0.175 NA
HETATM   10  C   UNL     1     -41.283  59.207 -52.172  1.00  0.00     0.160 A 
ENDROOT
BRANCH   1  11
HETATM   11  C   UNL     1     -41.405  56.889 -51.082  1.00  0.00     0.257 C 
HETATM   12  N   UNL     1     -41.776  55.596 -51.373  1.00  0.00    -0.356 N 
HETATM   13  H   UNL     1     -42.072  55.403 -52.328  1.00  0.00     0.162 HD
HETATM   14  O   UNL     1     -40.963  57.237 -49.993  1.00  0.00    -0.267 OA
BRANCH  12  15
HETATM   15  C   UNL     1     -41.544  54.507 -50.451  1.00  0.00     0.127 C 
BRANCH  15  16
HETATM   16  C   UNL     1     -40.140  53.925 -50.603  1.00  0.00     0.058 C 
BRANCH  16  17
HETATM   17  C   UNL     1     -40.081  52.867 -51.673  1.00  0.00    -0.057 A 
HETATM   18  C   UNL     1     -39.661  51.568 -51.364  1.00  0.00     0.007 A 
HETATM   19  C   UNL     1     -39.583  50.592 -52.360  1.00  0.00     0.007 A 
HETATM   20  C   UNL     1     -39.913  50.901 -53.685  1.00  0.00    -0.062 A 
HETATM   21  C   UNL     1     -39.846  49.857 -54.759  1.00  0.00     0.048 C 
HETATM   22  C   UNL     1     -40.335  52.199 -53.994  1.00  0.00     0.007 A 
HETATM   23  C   UNL     1     -40.413  53.175 -52.998  1.00  0.00     0.007 A 
ENDBRANCH  16  17
ENDBRANCH  15  16
ENDBRANCH  12  15
ENDBRANCH   1  11
BRANCH   4  24
HETATM   24  O   UNL     1     -41.841  60.055 -56.178  1.00  0.00    -0.344 OA
HETATM   25  H   UNL     1     -40.876  60.108 -56.358  1.00  0.00     0.219 HD
ENDBRANCH   4  24
BRANCH   5  26
HETATM   26  C   UNL     1     -42.451  57.677 -57.753  1.00  0.00     0.084 C 
BRANCH  26  27
HETATM   27  C   UNL     1     -43.864  57.529 -58.299  1.00  0.00    -0.047 A 
HETATM   28  C   UNL     1     -44.235  56.538 -59.233  1.00  0.00    -0.055 A 
HETATM   29  C   UNL     1     -43.258  55.543 -59.799  1.00  0.00     0.049 C 
HETATM   30  C   UNL     1     -45.577  56.449 -59.640  1.00  0.00     0.008 A 
HETATM   31  C   UNL     1     -46.536  57.345 -59.169  1.00  0.00     0.007 A 
HETATM   32  C   UNL     1     -46.178  58.351 -58.273  1.00  0.00    -0.061 A 
HETATM   33  C   UNL     1     -47.192  59.348 -57.797  1.00  0.00     0.048 C 
HETATM   34  C   UNL     1     -44.843  58.446 -57.861  1.00  0.00     0.014 A 
ENDBRANCH  26  27
ENDBRANCH   5  26
TORSDOF 7
ENDMDL
MODEL 3
REMARK VINA RESULT:      -9.3      1.702      7.600
REMARK  7 active torsions:
REMARK  status: ('A' for Active; 'I' for Inactive)
REMARK    1  A    between atoms: C_5  and  C_6 
REMARK    2  A    between atoms: C_6  and  C_7 
REMARK    3  A    between atoms: C_7  and  N_8 
REMARK       I    between atoms: N_8  and  C_9 
REMARK    4  A    between atoms: C_9  and  C_10 
REMARK    5  A    between atoms: C_13  and  O_14 
REMARK    6  A    between atoms: C_15  and  C_16 
REMARK    7  A    between atoms: C_16  and  C_17 
ROOT
HETATM    1  C   UNL     1     -42.141  59.551 -55.607  1.00  0.00     0.099 A 
HETATM    2  C   UNL     1     -42.290  58.237 -55.200  1.00  0.00     0.171 A 
HETATM    3  N   UNL     1     -42.224  58.251 -53.814  1.00  0.00    -0.192 N 
HETATM    4  C   UNL     1     -42.458  57.091 -53.066  1.00  0.00     0.174 C 
HETATM    5  C   UNL     1     -42.746  55.927 -53.685  1.00  0.00     0.023 C 
HETATM    6  C   UNL     1     -42.655  55.988 -55.195  1.00  0.00     0.044 C 
HETATM    7  C   UNL     1     -42.745  54.705 -55.992  1.00  0.00     0.071 C 
HETATM    8  N   UNL     1     -42.478  57.076 -55.895  1.00  0.00    -0.233 NA
HETATM    9  N   UNL     1     -41.973  59.491 -53.318  1.00  0.00    -0.175 NA
HETATM   10  C   UNL     1     -41.935  60.265 -54.407  1.00  0.00     0.160 A 
ENDROOT
BRANCH   1  11
HETATM   11  C   UNL     1     -42.200  60.089 -56.952  1.00  0.00     0.257 C 
HETATM   12  N   UNL     1     -43.344  59.772 -57.648  1.00  0.00    -0.356 N 
HETATM   13  H   UNL     1     -44.051  59.229 -57.154  1.00  0.00     0.162 HD
HETATM   14  O   UNL     1     -41.306  60.795 -57.405  1.00  0.00    -0.267 OA
BRANCH  12  15
HETATM   15  C   UNL     1     -43.649  60.365 -58.931  1.00  0.00     0.127 C 
BRANCH  15  16
HETATM   16  C   UNL     1     -43.079  59.542 -60.084  1.00  0.00     0.058 C 
BRANCH  16  17
HETATM   17  C   UNL     1     -43.483  58.093 -59.997  1.00  0.00    -0.057 A 
HETATM   18  C   UNL     1     -44.823  57.720 -60.140  1.00  0.00     0.007 A 
HETATM   19  C   UNL     1     -45.202  56.379 -60.035  1.00  0.00     0.007 A 
HETATM   20  C   UNL     1     -44.247  55.391 -59.775  1.00  0.00    -0.062 A 
HETATM   21  C   UNL     1     -44.640  53.947 -59.674  1.00  0.00     0.048 C 
HETATM   22  C   UNL     1     -42.906  55.763 -59.633  1.00  0.00     0.007 A 
HETATM   23  C   UNL     1     -42.527  57.103 -59.739  1.00  0.00     0.007 A 
ENDBRANCH  16  17
ENDBRANCH  15  16
ENDBRANCH  12  15
ENDBRANCH   1  11
BRANCH   4  24
HETATM   24  O   UNL     1     -42.449  57.200 -51.682  1.00  0.00    -0.344 OA
HETATM   25  H   UNL     1     -42.078  56.351 -51.354  1.00  0.00     0.219 HD
ENDBRANCH   4  24
BRANCH   5  26
HETATM   26  C   UNL     1     -43.144  54.670 -52.956  1.00  0.00     0.084 C 
BRANCH  26  27
HETATM   27  C   UNL     1     -41.986  53.823 -52.450  1.00  0.00    -0.047 A 
HETATM   28  C   UNL     1     -41.598  53.770 -51.094  1.00  0.00    -0.055 A 
HETATM   29  C   UNL     1     -42.281  54.568 -50.017  1.00  0.00     0.049 C 
HETATM   30  C   UNL     1     -40.546  52.918 -50.715  1.00  0.00     0.008 A 
HETATM   31  C   UNL     1     -39.857  52.158 -51.660  1.00  0.00     0.007 A 
HETATM   32  C   UNL     1     -40.205  52.227 -53.007  1.00  0.00    -0.061 A 
HETATM   33  C   UNL     1     -39.440  51.449 -54.036  1.00  0.00     0.048 C 
HETATM   34  C   UNL     1     -41.252  53.072 -53.393  1.00  0.00     0.014 A 
ENDBRANCH  26  27
ENDBRANCH   5  26
TORSDOF 7
ENDMDL
MODEL 4
REMARK VINA RESULT:      -8.9      1.749      7.734
REMARK  7 active torsions:
REMARK  status: ('A' for Active; 'I' for Inactive)
REMARK    1  A    between atoms: C_5  and  C_6 
REMARK    2  A    between atoms: C_6  and  C_7 
REMARK    3  A    between atoms: C_7  and  N_8 
REMARK       I    between atoms: N_8  and  C_9 
REMARK    4  A    between atoms: C_9  and  C_10 
REMARK    5  A    between atoms: C_13  and  O_14 
REMARK    6  A    between atoms: C_15  and  C_16 
REMARK    7  A    between atoms: C_16  and  C_17 
ROOT
HETATM    1  C   UNL     1     -42.169  59.610 -55.597  1.00  0.00     0.099 A 
HETATM    2  C   UNL     1     -42.283  58.285 -55.217  1.00  0.00     0.171 A 
HETATM    3  N   UNL     1     -42.289  58.278 -53.830  1.00  0.00    -0.192 N 
HETATM    4  C   UNL     1     -42.513  57.097 -53.113  1.00  0.00     0.174 C 
HETATM    5  C   UNL     1     -42.719  55.932 -53.763  1.00  0.00     0.023 C 
HETATM    6  C   UNL     1     -42.552  56.022 -55.265  1.00  0.00     0.044 C 
HETATM    7  C   UNL     1     -42.546  54.750 -56.085  1.00  0.00     0.071 C 
HETATM    8  N   UNL     1     -42.385  57.129 -55.938  1.00  0.00    -0.233 NA
HETATM    9  N   UNL     1     -42.118  59.519 -53.303  1.00  0.00    -0.175 NA
HETATM   10  C   UNL     1     -42.056  60.311 -54.377  1.00  0.00     0.160 A 
ENDROOT
BRANCH   1  11
HETATM   11  C   UNL     1     -42.181  60.168 -56.934  1.00  0.00     0.257 C 
HETATM   12  N   UNL     1     -43.264  59.803 -57.700  1.00  0.00    -0.356 N 
HETATM   13  H   UNL     1     -43.967  59.213 -57.256  1.00  0.00     0.162 HD
HETATM   14  O   UNL     1     -41.303  60.930 -57.325  1.00  0.00    -0.267 OA
BRANCH  12  15
HETATM   15  C   UNL     1     -43.528  60.401 -58.989  1.00  0.00     0.127 C 
BRANCH  15  16
HETATM   16  C   UNL     1     -42.970  59.554 -60.131  1.00  0.00     0.058 C 
BRANCH  16  17
HETATM   17  C   UNL     1     -43.395  58.113 -60.025  1.00  0.00    -0.057 A 
HETATM   18  C   UNL     1     -44.739  57.757 -60.176  1.00  0.00     0.007 A 
HETATM   19  C   UNL     1     -45.138  56.423 -60.054  1.00  0.00     0.007 A 
HETATM   20  C   UNL     1     -44.201  55.425 -59.767  1.00  0.00    -0.062 A 
HETATM   21  C   UNL     1     -44.615  53.989 -59.648  1.00  0.00     0.048 C 
HETATM   22  C   UNL     1     -42.855  55.781 -59.618  1.00  0.00     0.007 A 
HETATM   23  C   UNL     1     -42.456  57.113 -59.741  1.00  0.00     0.007 A 
ENDBRANCH  16  17
ENDBRANCH  15  16
ENDBRANCH  12  15
ENDBRANCH   1  11
BRANCH   4  24
HETATM   24  O   UNL     1     -42.580  57.183 -51.728  1.00  0.00    -0.344 OA
HETATM   25  H   UNL     1     -43.524  57.033 -51.501  1.00  0.00     0.219 HD
ENDBRANCH   4  24
BRANCH   5  26
HETATM   26  C   UNL     1     -43.100  54.648 -53.074  1.00  0.00     0.084 C 
BRANCH  26  27
HETATM   27  C   UNL     1     -41.992  53.998 -52.259  1.00  0.00    -0.047 A 
HETATM   28  C   UNL     1     -41.065  53.082 -52.801  1.00  0.00    -0.055 A 
HETATM   29  C   UNL     1     -41.098  52.640 -54.239  1.00  0.00     0.049 C 
HETATM   30  C   UNL     1     -40.045  52.573 -51.979  1.00  0.00     0.008 A 
HETATM   31  C   UNL     1     -39.959  52.926 -50.632  1.00  0.00     0.007 A 
HETATM   32  C   UNL     1     -40.888  53.802 -50.074  1.00  0.00    -0.061 A 
HETATM   33  C   UNL     1     -40.831  54.151 -48.617  1.00  0.00     0.048 C 
HETATM   34  C   UNL     1     -41.907  54.315 -50.886  1.00  0.00     0.014 A 
ENDBRANCH  26  27
ENDBRANCH   5  26
TORSDOF 7
ENDMDL
MODEL 5
REMARK VINA RESULT:      -8.8      1.525      2.464
REMARK  7 active torsions:
REMARK  status: ('A' for Active; 'I' for Inactive)
REMARK    1  A    between atoms: C_5  and  C_6 
REMARK    2  A    between atoms: C_6  and  C_7 
REMARK    3  A    between atoms: C_7  and  N_8 
REMARK       I    between atoms: N_8  and  C_9 
REMARK    4  A    between atoms: C_9  and  C_10 
REMARK    5  A    between atoms: C_13  and  O_14 
REMARK    6  A    between atoms: C_15  and  C_16 
REMARK    7  A    between atoms: C_16  and  C_17 
ROOT
HETATM    1  C   UNL     1     -42.512  57.701 -51.853  1.00  0.00     0.099 A 
HETATM    2  C   UNL     1     -42.950  57.316 -53.107  1.00  0.00     0.171 A 
HETATM    3  N   UNL     1     -43.966  58.195 -53.451  1.00  0.00    -0.192 N 
HETATM    4  C   UNL     1     -44.555  58.162 -54.720  1.00  0.00     0.174 C 
HETATM    5  C   UNL     1     -44.147  57.260 -55.637  1.00  0.00     0.023 C 
HETATM    6  C   UNL     1     -43.137  56.258 -55.117  1.00  0.00     0.044 C 
HETATM    7  C   UNL     1     -42.762  55.072 -55.979  1.00  0.00     0.071 C 
HETATM    8  N   UNL     1     -42.557  56.314 -53.948  1.00  0.00    -0.233 NA
HETATM    9  N   UNL     1     -44.247  59.078 -52.457  1.00  0.00    -0.175 NA
HETATM   10  C   UNL     1     -43.359  58.776 -51.505  1.00  0.00     0.160 A 
ENDROOT
BRANCH   1  11
HETATM   11  C   UNL     1     -41.424  57.151 -51.070  1.00  0.00     0.257 C 
HETATM   12  N   UNL     1     -41.462  55.784 -50.914  1.00  0.00    -0.356 N 
HETATM   13  H   UNL     1     -42.217  55.285 -51.383  1.00  0.00     0.162 HD
HETATM   14  O   UNL     1     -40.530  57.858 -50.617  1.00  0.00    -0.267 OA
BRANCH  12  15
HETATM   15  C   UNL     1     -40.370  55.050 -50.315  1.00  0.00     0.127 C 
BRANCH  15  16
HETATM   16  C   UNL     1     -40.760  53.606 -50.007  1.00  0.00     0.058 C 
BRANCH  16  17
HETATM   17  C   UNL     1     -40.428  52.677 -51.145  1.00  0.00    -0.057 A 
HETATM   18  C   UNL     1     -39.926  51.396 -50.891  1.00  0.00     0.007 A 
HETATM   19  C   UNL     1     -39.595  50.541 -51.946  1.00  0.00     0.007 A 
HETATM   20  C   UNL     1     -39.751  50.959 -53.273  1.00  0.00    -0.062 A 
HETATM   21  C   UNL     1     -39.412  50.045 -54.412  1.00  0.00     0.048 C 
HETATM   22  C   UNL     1     -40.255  52.239 -53.527  1.00  0.00     0.007 A 
HETATM   23  C   UNL     1     -40.587  53.093 -52.473  1.00  0.00     0.007 A 
ENDBRANCH  16  17
ENDBRANCH  15  16
ENDBRANCH  12  15
ENDBRANCH   1  11
BRANCH   4  24
HETATM   24  O   UNL     1     -45.513  59.123 -55.016  1.00  0.00    -0.344 OA
HETATM   25  H   UNL     1     -46.300  58.883 -54.478  1.00  0.00     0.219 HD
ENDBRANCH   4  24
BRANCH   5  26
HETATM   26  C   UNL     1     -44.629  57.244 -57.065  1.00  0.00     0.084 C 
BRANCH  26  27
HETATM   27  C   UNL     1     -43.620  57.734 -58.092  1.00  0.00    -0.047 A 
HETATM   28  C   UNL     1     -43.232  56.979 -59.220  1.00  0.00    -0.055 A 
HETATM   29  C   UNL     1     -43.765  55.600 -59.502  1.00  0.00     0.049 C 
HETATM   30  C   UNL     1     -42.330  57.538 -60.141  1.00  0.00     0.008 A 
HETATM   31  C   UNL     1     -41.783  58.805 -59.938  1.00  0.00     0.007 A 
HETATM   32  C   UNL     1     -42.129  59.548 -58.812  1.00  0.00    -0.061 A 
HETATM   33  C   UNL     1     -41.512  60.892 -58.561  1.00  0.00     0.048 C 
HETATM   34  C   UNL     1     -43.029  59.000 -57.890  1.00  0.00     0.014 A 
ENDBRANCH  26  27
ENDBRANCH   5  26
TORSDOF 7
ENDMDL
MODEL 6
REMARK VINA RESULT:      -8.7      5.408      8.887
REMARK  7 active torsions:
REMARK  status: ('A' for Active; 'I' for Inactive)
REMARK    1  A    between atoms: C_5  and  C_6 
REMARK    2  A    between atoms: C_6  and  C_7 
REMARK    3  A    between atoms: C_7  and  N_8 
REMARK       I    between atoms: N_8  and  C_9 
REMARK    4  A    between atoms: C_9  and  C_10 
REMARK    5  A    between atoms: C_13  and  O_14 
REMARK    6  A    between atoms: C_15  and  C_16 
REMARK    7  A    between atoms: C_16  and  C_17 
ROOT
HETATM    1  C   UNL     1     -43.547  60.346 -50.676  1.00  0.00     0.099 A 
HETATM    2  C   UNL     1     -43.257  59.370 -51.612  1.00  0.00     0.171 A 
HETATM    3  N   UNL     1     -41.901  59.482 -51.881  1.00  0.00    -0.192 N 
HETATM    4  C   UNL     1     -41.247  58.558 -52.706  1.00  0.00     0.174 C 
HETATM    5  C   UNL     1     -41.932  57.539 -53.265  1.00  0.00     0.023 C 
HETATM    6  C   UNL     1     -43.427  57.589 -53.023  1.00  0.00     0.044 C 
HETATM    7  C   UNL     1     -44.328  56.629 -53.770  1.00  0.00     0.071 C 
HETATM    8  N   UNL     1     -44.031  58.424 -52.222  1.00  0.00    -0.233 NA
HETATM    9  N   UNL     1     -41.324  60.519 -51.220  1.00  0.00    -0.175 NA
HETATM   10  C   UNL     1     -42.323  61.025 -50.492  1.00  0.00     0.160 A 
ENDROOT
BRANCH   1  11
HETATM   11  C   UNL     1     -44.809  60.612 -50.013  1.00  0.00     0.257 C 
HETATM   12  N   UNL     1     -44.702  60.913 -48.675  1.00  0.00    -0.356 N 
HETATM   13  H   UNL     1     -43.763  60.956 -48.283  1.00  0.00     0.162 HD
HETATM   14  O   UNL     1     -45.874  60.598 -50.621  1.00  0.00    -0.267 OA
BRANCH  12  15
HETATM   15  C   UNL     1     -45.833  61.374 -47.901  1.00  0.00     0.127 C 
BRANCH  15  16
HETATM   16  C   UNL     1     -45.867  60.737 -46.513  1.00  0.00     0.058 C 
BRANCH  16  17
HETATM   17  C   UNL     1     -45.164  61.585 -45.486  1.00  0.00    -0.057 A 
HETATM   18  C   UNL     1     -44.217  61.019 -44.625  1.00  0.00     0.007 A 
HETATM   19  C   UNL     1     -43.582  61.800 -43.656  1.00  0.00     0.007 A 
HETATM   20  C   UNL     1     -43.892  63.158 -43.524  1.00  0.00    -0.062 A 
HETATM   21  C   UNL     1     -43.207  64.008 -42.497  1.00  0.00     0.048 C 
HETATM   22  C   UNL     1     -44.837  63.725 -44.386  1.00  0.00     0.007 A 
HETATM   23  C   UNL     1     -45.471  62.945 -45.356  1.00  0.00     0.007 A 
ENDBRANCH  16  17
ENDBRANCH  15  16
ENDBRANCH  12  15
ENDBRANCH   1  11
BRANCH   4  24
HETATM   24  O   UNL     1     -39.874  58.692 -52.867  1.00  0.00    -0.344 OA
HETATM   25  H   UNL     1     -39.687  58.386 -53.782  1.00  0.00     0.219 HD
ENDBRANCH   4  24
BRANCH   5  26
HETATM   26  C   UNL     1     -41.284  56.429 -54.050  1.00  0.00     0.084 C 
BRANCH  26  27
HETATM   27  C   UNL     1     -40.999  55.161 -53.260  1.00  0.00    -0.047 A 
HETATM   28  C   UNL     1     -40.545  53.963 -53.852  1.00  0.00    -0.055 A 
HETATM   29  C   UNL     1     -40.322  53.817 -55.333  1.00  0.00     0.049 C 
HETATM   30  C   UNL     1     -40.261  52.858 -53.031  1.00  0.00     0.008 A 
HETATM   31  C   UNL     1     -40.457  52.913 -51.652  1.00  0.00     0.007 A 
HETATM   32  C   UNL     1     -40.938  54.077 -51.056  1.00  0.00    -0.061 A 
HETATM   33  C   UNL     1     -41.196  54.132 -49.580  1.00  0.00     0.048 C 
HETATM   34  C   UNL     1     -41.223  55.184 -51.866  1.00  0.00     0.014 A 
ENDBRANCH  26  27
ENDBRANCH   5  26
TORSDOF 7
ENDMDL
MODEL 7
REMARK VINA RESULT:      -8.6      1.485      7.784
REMARK  7 active torsions:
REMARK  status: ('A' for Active; 'I' for Inactive)
REMARK    1  A    between atoms: C_5  and  C_6 
REMARK    2  A    between atoms: C_6  and  C_7 
REMARK    3  A    between atoms: C_7  and  N_8 
REMARK       I    between atoms: N_8  and  C_9 
REMARK    4  A    between atoms: C_9  and  C_10 
REMARK    5  A    between atoms: C_13  and  O_14 
REMARK    6  A    between atoms: C_15  and  C_16 
REMARK    7  A    between atoms: C_16  and  C_17 
ROOT
HETATM    1  C   UNL     1     -43.280  59.198 -54.932  1.00  0.00     0.099 A 
HETATM    2  C   UNL     1     -42.723  58.719 -53.760  1.00  0.00     0.171 A 
HETATM    3  N   UNL     1     -43.631  57.808 -53.243  1.00  0.00    -0.192 N 
HETATM    4  C   UNL     1     -43.324  57.041 -52.113  1.00  0.00     0.174 C 
HETATM    5  C   UNL     1     -42.134  57.184 -51.494  1.00  0.00     0.023 C 
HETATM    6  C   UNL     1     -41.275  58.302 -52.051  1.00  0.00     0.044 C 
HETATM    7  C   UNL     1     -40.016  58.702 -51.314  1.00  0.00     0.071 C 
HETATM    8  N   UNL     1     -41.541  58.988 -53.129  1.00  0.00    -0.233 NA
HETATM    9  N   UNL     1     -44.767  57.728 -53.985  1.00  0.00    -0.175 NA
HETATM   10  C   UNL     1     -44.539  58.563 -55.003  1.00  0.00     0.160 A 
ENDROOT
BRANCH   1  11
HETATM   11  C   UNL     1     -42.708  60.125 -55.889  1.00  0.00     0.257 C 
HETATM   12  N   UNL     1     -42.038  59.532 -56.934  1.00  0.00    -0.356 N 
HETATM   13  H   UNL     1     -42.034  58.513 -56.962  1.00  0.00     0.162 HD
HETATM   14  O   UNL     1     -42.849  61.339 -55.777  1.00  0.00    -0.267 OA
BRANCH  12  15
HETATM   15  C   UNL     1     -41.558  60.292 -58.066  1.00  0.00     0.127 C 
BRANCH  15  16
HETATM   16  C   UNL     1     -42.393  60.030 -59.318  1.00  0.00     0.058 C 
BRANCH  16  17
HETATM   17  C   UNL     1     -42.883  58.607 -59.382  1.00  0.00    -0.057 A 
HETATM   18  C   UNL     1     -42.034  57.583 -59.815  1.00  0.00     0.007 A 
HETATM   19  C   UNL     1     -42.495  56.266 -59.897  1.00  0.00     0.007 A 
HETATM   20  C   UNL     1     -43.816  55.954 -59.558  1.00  0.00    -0.062 A 
HETATM   21  C   UNL     1     -44.317  54.543 -59.629  1.00  0.00     0.048 C 
HETATM   22  C   UNL     1     -44.665  56.978 -59.123  1.00  0.00     0.007 A 
HETATM   23  C   UNL     1     -44.204  58.294 -59.040  1.00  0.00     0.007 A 
ENDBRANCH  16  17
ENDBRANCH  15  16
ENDBRANCH  12  15
ENDBRANCH   1  11
BRANCH   4  24
HETATM   24  O   UNL     1     -44.254  56.095 -51.700  1.00  0.00    -0.344 OA
HETATM   25  H   UNL     1     -43.813  55.225 -51.820  1.00  0.00     0.219 HD
ENDBRANCH   4  24
BRANCH   5  26
HETATM   26  C   UNL     1     -41.671  56.308 -50.360  1.00  0.00     0.084 C 
BRANCH  26  27
HETATM   27  C   UNL     1     -41.088  54.966 -50.777  1.00  0.00    -0.047 A 
HETATM   28  C   UNL     1     -40.573  54.025 -49.860  1.00  0.00    -0.055 A 
HETATM   29  C   UNL     1     -40.530  54.270 -48.376  1.00  0.00     0.049 C 
HETATM   30  C   UNL     1     -40.101  52.790 -50.338  1.00  0.00     0.008 A 
HETATM   31  C   UNL     1     -40.096  52.497 -51.701  1.00  0.00     0.007 A 
HETATM   32  C   UNL     1     -40.569  53.430 -52.622  1.00  0.00    -0.061 A 
HETATM   33  C   UNL     1     -40.525  53.143 -54.094  1.00  0.00     0.048 C 
HETATM   34  C   UNL     1     -41.042  54.662 -52.155  1.00  0.00     0.014 A 
ENDBRANCH  26  27
ENDBRANCH   5  26
TORSDOF 7
ENDMDL
MODEL 8
REMARK VINA RESULT:      -8.6      3.938      6.630
REMARK  7 active torsions:
REMARK  status: ('A' for Active; 'I' for Inactive)
REMARK    1  A    between atoms: C_5  and  C_6 
REMARK    2  A    between atoms: C_6  and  C_7 
REMARK    3  A    between atoms: C_7  and  N_8 
REMARK       I    between atoms: N_8  and  C_9 
REMARK    4  A    between atoms: C_9  and  C_10 
REMARK    5  A    between atoms: C_13  and  O_14 
REMARK    6  A    between atoms: C_15  and  C_16 
REMARK    7  A    between atoms: C_16  and  C_17 
ROOT
HETATM    1  C   UNL     1     -43.501  56.557 -52.522  1.00  0.00     0.099 A 
HETATM    2  C   UNL     1     -43.108  57.805 -52.072  1.00  0.00     0.171 A 
HETATM    3  N   UNL     1     -43.910  58.725 -52.730  1.00  0.00    -0.192 N 
HETATM    4  C   UNL     1     -43.857  60.088 -52.417  1.00  0.00     0.174 C 
HETATM    5  C   UNL     1     -43.009  60.537 -51.468  1.00  0.00     0.023 C 
HETATM    6  C   UNL     1     -42.081  59.476 -50.913  1.00  0.00     0.044 C 
HETATM    7  C   UNL     1     -40.946  59.892 -50.002  1.00  0.00     0.071 C 
HETATM    8  N   UNL     1     -42.158  58.199 -51.173  1.00  0.00    -0.233 NA
HETATM    9  N   UNL     1     -44.748  58.138 -53.625  1.00  0.00    -0.175 NA
HETATM   10  C   UNL     1     -44.497  56.833 -53.483  1.00  0.00     0.160 A 
ENDROOT
BRANCH   1  11
HETATM   11  C   UNL     1     -43.022  55.256 -52.100  1.00  0.00     0.257 C 
HETATM   12  N   UNL     1     -42.093  55.286 -51.087  1.00  0.00    -0.356 N 
HETATM   13  H   UNL     1     -41.854  56.201 -50.704  1.00  0.00     0.162 HD
HETATM   14  O   UNL     1     -43.448  54.218 -52.597  1.00  0.00    -0.267 OA
BRANCH  12  15
HETATM   15  C   UNL     1     -41.640  54.083 -50.425  1.00  0.00     0.127 C 
BRANCH  15  16
HETATM   16  C   UNL     1     -40.175  53.783 -50.737  1.00  0.00     0.058 C 
BRANCH  16  17
HETATM   17  C   UNL     1     -40.029  52.719 -51.794  1.00  0.00    -0.057 A 
HETATM   18  C   UNL     1     -40.257  53.022 -53.141  1.00  0.00     0.007 A 
HETATM   19  C   UNL     1     -40.145  52.031 -54.119  1.00  0.00     0.007 A 
HETATM   20  C   UNL     1     -39.815  50.718 -53.765  1.00  0.00    -0.062 A 
HETATM   21  C   UNL     1     -39.679  49.649 -54.808  1.00  0.00     0.048 C 
HETATM   22  C   UNL     1     -39.586  50.415 -52.418  1.00  0.00     0.007 A 
HETATM   23  C   UNL     1     -39.696  51.406 -51.440  1.00  0.00     0.007 A 
ENDBRANCH  16  17
ENDBRANCH  15  16
ENDBRANCH  12  15
ENDBRANCH   1  11
BRANCH   4  24
HETATM   24  O   UNL     1     -44.745  60.938 -53.065  1.00  0.00    -0.344 OA
HETATM   25  H   UNL     1     -44.816  60.592 -53.982  1.00  0.00     0.219 HD
ENDBRANCH   4  24
BRANCH   5  26
HETATM   26  C   UNL     1     -42.985  61.960 -50.975  1.00  0.00     0.084 C 
BRANCH  26  27
HETATM   27  C   UNL     1     -44.080  62.319 -49.982  1.00  0.00    -0.047 A 
HETATM   28  C   UNL     1     -44.972  63.397 -50.166  1.00  0.00    -0.055 A 
HETATM   29  C   UNL     1     -44.910  64.313 -51.358  1.00  0.00     0.049 C 
HETATM   30  C   UNL     1     -45.983  63.619 -49.216  1.00  0.00     0.008 A 
HETATM   31  C   UNL     1     -46.094  62.819 -48.079  1.00  0.00     0.007 A 
HETATM   32  C   UNL     1     -45.199  61.773 -47.865  1.00  0.00    -0.061 A 
HETATM   33  C   UNL     1     -45.281  60.937 -46.623  1.00  0.00     0.048 C 
HETATM   34  C   UNL     1     -44.189  61.544 -48.807  1.00  0.00     0.014 A 
ENDBRANCH  26  27
ENDBRANCH   5  26
TORSDOF 7
ENDMDL
MODEL 9
REMARK VINA RESULT:      -8.5      2.460      4.363
REMARK  7 active torsions:
REMARK  status: ('A' for Active; 'I' for Inactive)
REMARK    1  A    between atoms: C_5  and  C_6 
REMARK    2  A    between atoms: C_6  and  C_7 
REMARK    3  A    between atoms: C_7  and  N_8 
REMARK       I    between atoms: N_8  and  C_9 
REMARK    4  A    between atoms: C_9  and  C_10 
REMARK    5  A    between atoms: C_13  and  O_14 
REMARK    6  A    between atoms: C_15  and  C_16 
REMARK    7  A    between atoms: C_16  and  C_17 
ROOT
HETATM    1  C   UNL     1     -43.850  57.243 -55.531  1.00  0.00     0.099 A 
HETATM    2  C   UNL     1     -43.695  57.499 -56.881  1.00  0.00     0.171 A 
HETATM    3  N   UNL     1     -44.739  58.338 -57.240  1.00  0.00    -0.192 N 
HETATM    4  C   UNL     1     -44.815  58.892 -58.523  1.00  0.00     0.174 C 
HETATM    5  C   UNL     1     -43.872  58.610 -59.445  1.00  0.00     0.023 C 
HETATM    6  C   UNL     1     -42.858  57.576 -59.000  1.00  0.00     0.044 C 
HETATM    7  C   UNL     1     -41.880  57.017 -60.010  1.00  0.00     0.071 C 
HETATM    8  N   UNL     1     -42.761  57.091 -57.791  1.00  0.00    -0.233 NA
HETATM    9  N   UNL     1     -45.590  58.578 -56.208  1.00  0.00    -0.175 NA
HETATM   10  C   UNL     1     -45.039  57.920 -55.185  1.00  0.00     0.160 A 
ENDROOT
BRANCH   1  11
HETATM   11  C   UNL     1     -42.989  56.473 -54.655  1.00  0.00     0.257 C 
HETATM   12  N   UNL     1     -41.911  55.888 -55.278  1.00  0.00    -0.356 N 
HETATM   13  H   UNL     1     -41.795  56.073 -56.273  1.00  0.00     0.162 HD
HETATM   14  O   UNL     1     -43.203  56.388 -53.450  1.00  0.00    -0.267 OA
BRANCH  12  15
HETATM   15  C   UNL     1     -40.859  55.233 -54.534  1.00  0.00     0.127 C 
BRANCH  15  16
HETATM   16  C   UNL     1     -40.507  53.871 -55.129  1.00  0.00     0.058 C 
BRANCH  16  17
HETATM   17  C   UNL     1     -40.247  52.839 -54.063  1.00  0.00    -0.057 A 
HETATM   18  C   UNL     1     -40.198  53.209 -52.715  1.00  0.00     0.007 A 
HETATM   19  C   UNL     1     -39.933  52.257 -51.727  1.00  0.00     0.007 A 
HETATM   20  C   UNL     1     -39.703  50.921 -52.073  1.00  0.00    -0.062 A 
HETATM   21  C   UNL     1     -39.432  49.888 -51.020  1.00  0.00     0.048 C 
HETATM   22  C   UNL     1     -39.755  50.550 -53.421  1.00  0.00     0.007 A 
HETATM   23  C   UNL     1     -40.020  51.501 -54.409  1.00  0.00     0.007 A 
ENDBRANCH  16  17
ENDBRANCH  15  16
ENDBRANCH  12  15
ENDBRANCH   1  11
BRANCH   4  24
HETATM   24  O   UNL     1     -45.848  59.784 -58.784  1.00  0.00    -0.344 OA
HETATM   25  H   UNL     1     -45.414  60.657 -58.912  1.00  0.00     0.219 HD
ENDBRANCH   4  24
BRANCH   5  26
HETATM   26  C   UNL     1     -43.803  59.267 -60.799  1.00  0.00     0.084 C 
BRANCH  26  27
HETATM   27  C   UNL     1     -42.855  60.452 -60.894  1.00  0.00    -0.047 A 
HETATM   28  C   UNL     1     -42.728  61.254 -62.049  1.00  0.00    -0.055 A 
HETATM   29  C   UNL     1     -43.506  60.997 -63.311  1.00  0.00     0.049 C 
HETATM   30  C   UNL     1     -41.860  62.359 -62.024  1.00  0.00     0.008 A 
HETATM   31  C   UNL     1     -41.095  62.651 -60.894  1.00  0.00     0.007 A 
HETATM   32  C   UNL     1     -41.183  61.849 -59.759  1.00  0.00    -0.061 A 
HETATM   33  C   UNL     1     -40.332  62.127 -58.556  1.00  0.00     0.048 C 
HETATM   34  C   UNL     1     -42.046  60.746 -59.775  1.00  0.00     0.014 A 
ENDBRANCH  26  27
ENDBRANCH   5  26
TORSDOF 7
ENDMDL
MODEL 10
REMARK VINA RESULT:      -8.5     15.770     18.136
REMARK  7 active torsions:
REMARK  status: ('A' for Active; 'I' for Inactive)
REMARK    1  A    between atoms: C_5  and  C_6 
REMARK    2  A    between atoms: C_6  and  C_7 
REMARK    3  A    between atoms: C_7  and  N_8 
REMARK       I    between atoms: N_8  and  C_9 
REMARK    4  A    between atoms: C_9  and  C_10 
REMARK    5  A    between atoms: C_13  and  O_14 
REMARK    6  A    between atoms: C_15  and  C_16 
REMARK    7  A    between atoms: C_16  and  C_17 
ROOT
HETATM    1  C   UNL     1     -35.765  40.480 -51.837  1.00  0.00     0.099 A 
HETATM    2  C   UNL     1     -35.881  40.737 -53.191  1.00  0.00     0.171 A 
HETATM    3  N   UNL     1     -37.240  40.836 -53.451  1.00  0.00    -0.192 N 
HETATM    4  C   UNL     1     -37.709  41.212 -54.716  1.00  0.00     0.174 C 
HETATM    5  C   UNL     1     -36.842  41.477 -55.714  1.00  0.00     0.023 C 
HETATM    6  C   UNL     1     -35.393  41.202 -55.367  1.00  0.00     0.044 C 
HETATM    7  C   UNL     1     -34.349  41.256 -56.462  1.00  0.00     0.071 C 
HETATM    8  N   UNL     1     -34.950  40.893 -54.178  1.00  0.00    -0.233 NA
HETATM    9  N   UNL     1     -37.999  40.590 -52.352  1.00  0.00    -0.175 NA
HETATM   10  C   UNL     1     -37.099  40.386 -51.386  1.00  0.00     0.160 A 
ENDROOT
BRANCH   1  11
HETATM   11  C   UNL     1     -34.558  40.352 -51.044  1.00  0.00     0.257 C 
HETATM   12  N   UNL     1     -34.200  39.057 -50.748  1.00  0.00    -0.356 N 
HETATM   13  H   UNL     1     -34.783  38.315 -51.134  1.00  0.00     0.162 HD
HETATM   14  O   UNL     1     -33.902  41.330 -50.702  1.00  0.00    -0.267 OA
BRANCH  12  15
HETATM   15  C   UNL     1     -32.938  38.735 -50.120  1.00  0.00     0.127 C 
BRANCH  15  16
HETATM   16  C   UNL     1     -33.136  37.994 -48.800  1.00  0.00     0.058 C 
BRANCH  16  17
HETATM   17  C   UNL     1     -32.254  38.541 -47.708  1.00  0.00    -0.057 A 
HETATM   18  C   UNL     1     -32.316  38.012 -46.414  1.00  0.00     0.007 A 
HETATM   19  C   UNL     1     -31.516  38.534 -45.395  1.00  0.00     0.007 A 
HETATM   20  C   UNL     1     -30.648  39.602 -45.650  1.00  0.00    -0.062 A 
HETATM   21  C   UNL     1     -29.775  40.162 -44.567  1.00  0.00     0.048 C 
HETATM   22  C   UNL     1     -30.584  40.130 -46.944  1.00  0.00     0.007 A 
HETATM   23  C   UNL     1     -31.384  39.608 -47.964  1.00  0.00     0.007 A 
ENDBRANCH  16  17
ENDBRANCH  15  16
ENDBRANCH  12  15
ENDBRANCH   1  11
BRANCH   4  24
HETATM   24  O   UNL     1     -39.080  41.364 -54.879  1.00  0.00    -0.344 OA
HETATM   25  H   UNL     1     -39.209  42.296 -55.164  1.00  0.00     0.219 HD
ENDBRANCH   4  24
BRANCH   5  26
HETATM   26  C   UNL     1     -37.255  42.017 -57.058  1.00  0.00     0.084 C 
BRANCH  26  27
HETATM   27  C   UNL     1     -37.451  40.969 -58.143  1.00  0.00    -0.047 A 
HETATM   28  C   UNL     1     -37.447  41.269 -59.522  1.00  0.00    -0.055 A 
HETATM   29  C   UNL     1     -37.271  42.665 -60.054  1.00  0.00     0.049 C 
HETATM   30  C   UNL     1     -37.586  40.223 -60.451  1.00  0.00     0.008 A 
HETATM   31  C   UNL     1     -37.768  38.905 -60.033  1.00  0.00     0.007 A 
HETATM   32  C   UNL     1     -37.809  38.597 -58.675  1.00  0.00    -0.061 A 
HETATM   33  C   UNL     1     -38.050  37.190 -58.215  1.00  0.00     0.048 C 
HETATM   34  C   UNL     1     -37.670  39.633 -57.742  1.00  0.00     0.014 A 
ENDBRANCH  26  27
ENDBRANCH   5  26
TORSDOF 7
ENDMDL
