MODEL 1
REMARK VINA RESULT:      -9.5      0.000      0.000
REMARK  3 active torsions:
REMARK  status: ('A' for Active; 'I' for Inactive)
REMARK    1  A    between atoms: C_2  and  C_3 
REMARK    2  A    between atoms: C_7  and  C_8 
REMARK       I    between atoms: C_8  and  N_9 
REMARK    3  A    between atoms: N_9  and  N_10 
ROOT
HETATM    1  C   UNL     1     -40.746  54.164 -54.483  1.00  0.00     0.272 C 
HETATM    2  N   UNL     1     -42.045  54.185 -54.965  1.00  0.00    -0.242 N 
HETATM    3  O   UNL     1     -39.765  54.587 -55.091  1.00  0.00    -0.266 OA
HETATM    4  H   UNL     1     -42.827  53.810 -54.429  1.00  0.00     0.192 HD
ENDROOT
BRANCH   1   5
HETATM    5  C   UNL     1     -40.532  53.524 -53.158  1.00  0.00     0.048 A 
HETATM    6  C   UNL     1     -40.190  52.162 -52.960  1.00  0.00     0.008 A 
HETATM    7  C   UNL     1     -39.995  51.765 -51.619  1.00  0.00     0.068 A 
HETATM    8  C   UNL     1     -40.065  51.176 -53.975  1.00  0.00     0.015 A 
HETATM    9  N   UNL     1     -40.168  52.588 -50.572  1.00  0.00    -0.253 NA
HETATM   10  C   UNL     1     -39.626  50.455 -51.347  1.00  0.00     0.032 A 
HETATM   11  C   UNL     1     -40.562  53.861 -50.788  1.00  0.00     0.036 A 
HETATM   12  C   UNL     1     -40.734  54.368 -52.061  1.00  0.00     0.045 A 
HETATM   13  C   UNL     1     -39.463  49.506 -52.356  1.00  0.00     0.002 A 
HETATM   14  C   UNL     1     -39.692  49.865 -53.674  1.00  0.00     0.001 A 
BRANCH  11  15
HETATM   15  C   UNL     1     -40.818  54.716 -49.575  1.00  0.00     0.055 C 
HETATM   16  C   UNL     1     -40.304  54.065 -48.301  1.00  0.00     0.011 C 
ENDBRANCH  11  15
ENDBRANCH   1   5
BRANCH   2  17
HETATM   17  N   UNL     1     -42.283  54.716 -56.201  1.00  0.00    -0.166 NA
HETATM   18  C   UNL     1     -42.952  55.823 -56.259  1.00  0.00     0.157 A 
HETATM   19  C   UNL     1     -43.475  56.688 -55.111  1.00  0.00     0.277 A 
HETATM   20  C   UNL     1     -43.300  56.530 -57.484  1.00  0.00     0.027 A 
HETATM   21  O   UNL     1     -43.398  56.401 -53.935  1.00  0.00    -0.266 OA
HETATM   22  N   UNL     1     -44.018  57.805 -55.708  1.00  0.00    -0.321 N 
HETATM   23  C   UNL     1     -43.922  57.716 -57.095  1.00  0.00     0.048 A 
HETATM   24  H   UNL     1     -44.435  58.566 -55.192  1.00  0.00     0.169 HD
HETATM   25  C   UNL     1     -44.359  58.631 -58.029  1.00  0.00     0.030 A 
HETATM   26  C   UNL     1     -44.164  58.315 -59.380  1.00  0.00     0.002 A 
HETATM   27  C   UNL     1     -43.542  57.107 -59.765  1.00  0.00     0.001 A 
HETATM   28  C   UNL     1     -43.096  56.195 -58.805  1.00  0.00     0.016 A 
ENDBRANCH   2  17
TORSDOF 3
ENDMDL
MODEL 2
REMARK VINA RESULT:      -8.8      1.381      2.025
REMARK  3 active torsions:
REMARK  status: ('A' for Active; 'I' for Inactive)
REMARK    1  A    between atoms: C_2  and  C_3 
REMARK    2  A    between atoms: C_7  and  C_8 
REMARK       I    between atoms: C_8  and  N_9 
REMARK    3  A    between atoms: N_9  and  N_10 
ROOT
HETATM    1  C   UNL     1     -41.377  56.195 -53.504  1.00  0.00     0.272 C 
HETATM    2  N   UNL     1     -42.686  56.206 -53.958  1.00  0.00    -0.242 N 
HETATM    3  O   UNL     1     -40.496  56.963 -53.883  1.00  0.00    -0.266 OA
HETATM    4  H   UNL     1     -43.381  55.538 -53.623  1.00  0.00     0.192 HD
ENDROOT
BRANCH   1   5
HETATM    5  C   UNL     1     -41.014  55.129 -52.533  1.00  0.00     0.048 A 
HETATM    6  C   UNL     1     -40.564  53.831 -52.883  1.00  0.00     0.008 A 
HETATM    7  C   UNL     1     -40.234  52.982 -51.803  1.00  0.00     0.068 A 
HETATM    8  C   UNL     1     -40.455  53.311 -54.200  1.00  0.00     0.015 A 
HETATM    9  N   UNL     1     -40.377  53.335 -50.515  1.00  0.00    -0.253 NA
HETATM   10  C   UNL     1     -39.755  51.707 -52.066  1.00  0.00     0.032 A 
HETATM   11  C   UNL     1     -40.873  54.553 -50.213  1.00  0.00     0.036 A 
HETATM   12  C   UNL     1     -41.182  55.480 -51.188  1.00  0.00     0.045 A 
HETATM   13  C   UNL     1     -39.610  51.222 -53.366  1.00  0.00     0.002 A 
HETATM   14  C   UNL     1     -39.969  52.024 -54.437  1.00  0.00     0.001 A 
BRANCH  11  15
HETATM   15  C   UNL     1     -41.087  54.865 -48.755  1.00  0.00     0.055 C 
HETATM   16  C   UNL     1     -40.298  53.932 -47.851  1.00  0.00     0.011 C 
ENDBRANCH  11  15
ENDBRANCH   1   5
BRANCH   2  17
HETATM   17  N   UNL     1     -43.055  57.133 -54.891  1.00  0.00    -0.166 NA
HETATM   18  C   UNL     1     -43.255  56.719 -56.100  1.00  0.00     0.157 A 
HETATM   19  C   UNL     1     -43.204  55.292 -56.645  1.00  0.00     0.277 A 
HETATM   20  C   UNL     1     -43.649  57.562 -57.221  1.00  0.00     0.027 A 
HETATM   21  O   UNL     1     -42.878  54.315 -56.004  1.00  0.00    -0.266 OA
HETATM   22  N   UNL     1     -43.600  55.384 -57.962  1.00  0.00    -0.321 N 
HETATM   23  C   UNL     1     -43.858  56.710 -58.305  1.00  0.00     0.048 A 
HETATM   24  H   UNL     1     -43.674  54.589 -58.580  1.00  0.00     0.169 HD
HETATM   25  C   UNL     1     -44.265  57.198 -59.528  1.00  0.00     0.030 A 
HETATM   26  C   UNL     1     -44.448  58.584 -59.639  1.00  0.00     0.002 A 
HETATM   27  C   UNL     1     -44.225  59.440 -58.539  1.00  0.00     0.001 A 
HETATM   28  C   UNL     1     -43.822  58.927 -57.304  1.00  0.00     0.016 A 
ENDBRANCH   2  17
TORSDOF 3
ENDMDL
MODEL 3
REMARK VINA RESULT:      -8.7      1.055      3.205
REMARK  3 active torsions:
REMARK  status: ('A' for Active; 'I' for Inactive)
REMARK    1  A    between atoms: C_2  and  C_3 
REMARK    2  A    between atoms: C_7  and  C_8 
REMARK       I    between atoms: C_8  and  N_9 
REMARK    3  A    between atoms: N_9  and  N_10 
ROOT
HETATM    1  C   UNL     1     -41.044  54.630 -54.277  1.00  0.00     0.272 C 
HETATM    2  N   UNL     1     -42.338  54.539 -54.764  1.00  0.00    -0.242 N 
HETATM    3  O   UNL     1     -40.186  55.400 -54.704  1.00  0.00    -0.266 OA
HETATM    4  H   UNL     1     -43.014  53.874 -54.387  1.00  0.00     0.192 HD
ENDROOT
BRANCH   1   5
HETATM    5  C   UNL     1     -40.664  53.677 -53.201  1.00  0.00     0.048 A 
HETATM    6  C   UNL     1     -40.672  53.972 -51.815  1.00  0.00     0.008 A 
HETATM    7  C   UNL     1     -40.312  52.910 -50.958  1.00  0.00     0.068 A 
HETATM    8  C   UNL     1     -40.971  55.232 -51.230  1.00  0.00     0.015 A 
HETATM    9  N   UNL     1     -39.929  51.701 -51.399  1.00  0.00    -0.253 NA
HETATM   10  C   UNL     1     -40.327  53.112 -49.585  1.00  0.00     0.032 A 
HETATM   11  C   UNL     1     -39.865  51.470 -52.728  1.00  0.00     0.036 A 
HETATM   12  C   UNL     1     -40.241  52.422 -53.655  1.00  0.00     0.045 A 
HETATM   13  C   UNL     1     -40.666  54.341 -49.020  1.00  0.00     0.002 A 
HETATM   14  C   UNL     1     -40.980  55.408 -49.846  1.00  0.00     0.001 A 
BRANCH  11  15
HETATM   15  C   UNL     1     -39.353  50.124 -53.168  1.00  0.00     0.055 C 
HETATM   16  C   UNL     1     -39.793  49.782 -54.582  1.00  0.00     0.011 C 
ENDBRANCH  11  15
ENDBRANCH   1   5
BRANCH   2  17
HETATM   17  N   UNL     1     -42.718  55.359 -55.789  1.00  0.00    -0.166 NA
HETATM   18  C   UNL     1     -43.522  56.334 -55.510  1.00  0.00     0.157 A 
HETATM   19  C   UNL     1     -44.076  56.760 -54.150  1.00  0.00     0.277 A 
HETATM   20  C   UNL     1     -44.033  57.302 -56.471  1.00  0.00     0.027 A 
HETATM   21  O   UNL     1     -43.890  56.166 -53.108  1.00  0.00    -0.266 OA
HETATM   22  N   UNL     1     -44.791  57.914 -54.387  1.00  0.00    -0.321 N 
HETATM   23  C   UNL     1     -44.772  58.233 -55.743  1.00  0.00     0.048 A 
HETATM   24  H   UNL     1     -45.266  58.434 -53.664  1.00  0.00     0.169 HD
HETATM   25  C   UNL     1     -45.378  59.305 -56.363  1.00  0.00     0.030 A 
HETATM   26  C   UNL     1     -45.230  59.412 -57.753  1.00  0.00     0.002 A 
HETATM   27  C   UNL     1     -44.488  58.459 -58.483  1.00  0.00     0.001 A 
HETATM   28  C   UNL     1     -43.872  57.385 -57.838  1.00  0.00     0.016 A 
ENDBRANCH   2  17
TORSDOF 3
ENDMDL
MODEL 4
REMARK VINA RESULT:      -8.5      1.978      3.827
REMARK  3 active torsions:
REMARK  status: ('A' for Active; 'I' for Inactive)
REMARK    1  A    between atoms: C_2  and  C_3 
REMARK    2  A    between atoms: C_7  and  C_8 
REMARK       I    between atoms: C_8  and  N_9 
REMARK    3  A    between atoms: N_9  and  N_10 
ROOT
HETATM    1  C   UNL     1     -42.165  54.919 -54.104  1.00  0.00     0.272 C 
HETATM    2  N   UNL     1     -41.492  55.908 -54.802  1.00  0.00    -0.242 N 
HETATM    3  O   UNL     1     -43.380  54.737 -54.140  1.00  0.00    -0.266 OA
HETATM    4  H   UNL     1     -40.482  56.030 -54.730  1.00  0.00     0.192 HD
ENDROOT
BRANCH   1   5
HETATM    5  C   UNL     1     -41.350  54.061 -53.203  1.00  0.00     0.048 A 
HETATM    6  C   UNL     1     -41.129  54.312 -51.825  1.00  0.00     0.008 A 
HETATM    7  C   UNL     1     -40.355  53.349 -51.141  1.00  0.00     0.068 A 
HETATM    8  C   UNL     1     -41.582  55.446 -51.098  1.00  0.00     0.015 A 
HETATM    9  N   UNL     1     -39.804  52.282 -51.741  1.00  0.00    -0.253 NA
HETATM   10  C   UNL     1     -40.122  53.508 -49.782  1.00  0.00     0.032 A 
HETATM   11  C   UNL     1     -39.974  52.106 -53.069  1.00  0.00     0.036 A 
HETATM   12  C   UNL     1     -40.753  52.960 -53.826  1.00  0.00     0.045 A 
HETATM   13  C   UNL     1     -40.609  54.603 -49.070  1.00  0.00     0.002 A 
HETATM   14  C   UNL     1     -41.334  55.581 -49.731  1.00  0.00     0.001 A 
BRANCH  11  15
HETATM   15  C   UNL     1     -39.268  50.938 -53.704  1.00  0.00     0.055 C 
HETATM   16  C   UNL     1     -40.240  49.986 -54.383  1.00  0.00     0.011 C 
ENDBRANCH  11  15
ENDBRANCH   1   5
BRANCH   2  17
HETATM   17  N   UNL     1     -42.206  56.755 -55.602  1.00  0.00    -0.166 NA
HETATM   18  C   UNL     1     -42.209  58.012 -55.292  1.00  0.00     0.157 A 
HETATM   19  C   UNL     1     -41.456  58.723 -54.168  1.00  0.00     0.277 A 
HETATM   20  C   UNL     1     -42.913  59.055 -56.026  1.00  0.00     0.027 A 
HETATM   21  O   UNL     1     -40.782  58.170 -53.325  1.00  0.00    -0.266 OA
HETATM   22  N   UNL     1     -41.714  60.066 -54.342  1.00  0.00    -0.321 N 
HETATM   23  C   UNL     1     -42.569  60.265 -55.424  1.00  0.00     0.048 A 
HETATM   24  H   UNL     1     -41.337  60.789 -53.747  1.00  0.00     0.169 HD
HETATM   25  C   UNL     1     -43.058  61.463 -55.901  1.00  0.00     0.030 A 
HETATM   26  C   UNL     1     -43.921  61.412 -57.004  1.00  0.00     0.002 A 
HETATM   27  C   UNL     1     -44.271  60.182 -57.600  1.00  0.00     0.001 A 
HETATM   28  C   UNL     1     -43.759  58.978 -57.112  1.00  0.00     0.016 A 
ENDBRANCH   2  17
TORSDOF 3
ENDMDL
MODEL 5
REMARK VINA RESULT:      -8.5      3.110      4.825
REMARK  3 active torsions:
REMARK  status: ('A' for Active; 'I' for Inactive)
REMARK    1  A    between atoms: C_2  and  C_3 
REMARK    2  A    between atoms: C_7  and  C_8 
REMARK       I    between atoms: C_8  and  N_9 
REMARK    3  A    between atoms: N_9  and  N_10 
ROOT
HETATM    1  C   UNL     1     -41.827  56.199 -53.234  1.00  0.00     0.272 C 
HETATM    2  N   UNL     1     -43.204  56.350 -53.196  1.00  0.00    -0.242 N 
HETATM    3  O   UNL     1     -41.041  57.033 -53.679  1.00  0.00    -0.266 OA
HETATM    4  H   UNL     1     -43.819  55.624 -52.829  1.00  0.00     0.192 HD
ENDROOT
BRANCH   1   5
HETATM    5  C   UNL     1     -41.282  54.902 -52.754  1.00  0.00     0.048 A 
HETATM    6  C   UNL     1     -41.048  54.573 -51.395  1.00  0.00     0.008 A 
HETATM    7  C   UNL     1     -40.561  53.270 -51.152  1.00  0.00     0.068 A 
HETATM    8  C   UNL     1     -41.225  55.439 -50.282  1.00  0.00     0.015 A 
HETATM    9  N   UNL     1     -40.277  52.393 -52.129  1.00  0.00    -0.253 NA
HETATM   10  C   UNL     1     -40.339  52.862 -49.844  1.00  0.00     0.032 A 
HETATM   11  C   UNL     1     -40.444  52.759 -53.417  1.00  0.00     0.036 A 
HETATM   12  C   UNL     1     -40.960  53.992 -53.767  1.00  0.00     0.045 A 
HETATM   13  C   UNL     1     -40.558  53.707 -48.757  1.00  0.00     0.002 A 
HETATM   14  C   UNL     1     -40.994  55.003 -48.976  1.00  0.00     0.001 A 
BRANCH  11  15
HETATM   15  C   UNL     1     -40.034  51.767 -54.473  1.00  0.00     0.055 C 
HETATM   16  C   UNL     1     -40.308  50.334 -54.044  1.00  0.00     0.011 C 
ENDBRANCH  11  15
ENDBRANCH   1   5
BRANCH   2  17
HETATM   17  N   UNL     1     -43.755  57.505 -53.676  1.00  0.00    -0.166 NA
HETATM   18  C   UNL     1     -44.534  58.170 -52.885  1.00  0.00     0.157 A 
HETATM   19  C   UNL     1     -44.889  57.884 -51.425  1.00  0.00     0.277 A 
HETATM   20  C   UNL     1     -45.210  59.416 -53.224  1.00  0.00     0.027 A 
HETATM   21  O   UNL     1     -44.532  56.905 -50.803  1.00  0.00    -0.266 OA
HETATM   22  N   UNL     1     -45.662  58.949 -51.017  1.00  0.00    -0.321 N 
HETATM   23  C   UNL     1     -45.856  59.845 -52.066  1.00  0.00     0.048 A 
HETATM   24  H   UNL     1     -46.038  59.041 -50.085  1.00  0.00     0.169 HD
HETATM   25  C   UNL     1     -46.577  61.020 -52.046  1.00  0.00     0.030 A 
HETATM   26  C   UNL     1     -46.643  61.755 -53.238  1.00  0.00     0.002 A 
HETATM   27  C   UNL     1     -45.993  61.307 -54.408  1.00  0.00     0.001 A 
HETATM   28  C   UNL     1     -45.258  60.119 -54.409  1.00  0.00     0.016 A 
ENDBRANCH   2  17
TORSDOF 3
ENDMDL
MODEL 6
REMARK VINA RESULT:      -8.4      3.592      7.691
REMARK  3 active torsions:
REMARK  status: ('A' for Active; 'I' for Inactive)
REMARK    1  A    between atoms: C_2  and  C_3 
REMARK    2  A    between atoms: C_7  and  C_8 
REMARK       I    between atoms: C_8  and  N_9 
REMARK    3  A    between atoms: N_9  and  N_10 
ROOT
HETATM    1  C   UNL     1     -41.392  56.760 -52.994  1.00  0.00     0.272 C 
HETATM    2  N   UNL     1     -41.153  55.583 -52.304  1.00  0.00    -0.242 N 
HETATM    3  O   UNL     1     -41.422  56.862 -54.218  1.00  0.00    -0.266 OA
HETATM    4  H   UNL     1     -41.125  55.549 -51.284  1.00  0.00     0.192 HD
ENDROOT
BRANCH   1   5
HETATM    5  C   UNL     1     -41.562  57.993 -52.179  1.00  0.00     0.048 A 
HETATM    6  C   UNL     1     -42.762  58.739 -52.076  1.00  0.00     0.008 A 
HETATM    7  C   UNL     1     -42.719  59.858 -51.216  1.00  0.00     0.068 A 
HETATM    8  C   UNL     1     -43.970  58.482 -52.779  1.00  0.00     0.015 A 
HETATM    9  N   UNL     1     -41.612  60.248 -50.564  1.00  0.00    -0.253 NA
HETATM   10  C   UNL     1     -43.865  60.620 -51.037  1.00  0.00     0.032 A 
HETATM   11  C   UNL     1     -40.464  59.557 -50.736  1.00  0.00     0.036 A 
HETATM   12  C   UNL     1     -40.405  58.419 -51.516  1.00  0.00     0.045 A 
HETATM   13  C   UNL     1     -45.058  60.331 -51.699  1.00  0.00     0.002 A 
HETATM   14  C   UNL     1     -45.109  59.263 -52.580  1.00  0.00     0.001 A 
BRANCH  11  15
HETATM   15  C   UNL     1     -39.235  60.085 -50.046  1.00  0.00     0.055 C 
HETATM   16  C   UNL     1     -37.976  59.357 -50.491  1.00  0.00     0.011 C 
ENDBRANCH  11  15
ENDBRANCH   1   5
BRANCH   2  17
HETATM   17  N   UNL     1     -40.939  54.434 -53.011  1.00  0.00    -0.166 NA
HETATM   18  C   UNL     1     -40.486  53.408 -52.364  1.00  0.00     0.157 A 
HETATM   19  C   UNL     1     -40.209  53.265 -50.867  1.00  0.00     0.277 A 
HETATM   20  C   UNL     1     -40.197  52.106 -52.951  1.00  0.00     0.027 A 
HETATM   21  O   UNL     1     -40.307  54.161 -50.054  1.00  0.00    -0.266 OA
HETATM   22  N   UNL     1     -39.846  51.948 -50.682  1.00  0.00    -0.321 N 
HETATM   23  C   UNL     1     -39.834  51.268 -51.898  1.00  0.00     0.048 A 
HETATM   24  H   UNL     1     -39.613  51.555 -49.782  1.00  0.00     0.169 HD
HETATM   25  C   UNL     1     -39.516  49.944 -52.118  1.00  0.00     0.030 A 
HETATM   26  C   UNL     1     -39.561  49.483 -53.440  1.00  0.00     0.002 A 
HETATM   27  C   UNL     1     -39.920  50.342 -54.501  1.00  0.00     0.001 A 
HETATM   28  C   UNL     1     -40.249  51.678 -54.260  1.00  0.00     0.016 A 
ENDBRANCH   2  17
TORSDOF 3
ENDMDL
MODEL 7
REMARK VINA RESULT:      -8.3      1.477      3.634
REMARK  3 active torsions:
REMARK  status: ('A' for Active; 'I' for Inactive)
REMARK    1  A    between atoms: C_2  and  C_3 
REMARK    2  A    between atoms: C_7  and  C_8 
REMARK       I    between atoms: C_8  and  N_9 
REMARK    3  A    between atoms: N_9  and  N_10 
ROOT
HETATM    1  C   UNL     1     -42.436  55.654 -53.402  1.00  0.00     0.272 C 
HETATM    2  N   UNL     1     -41.829  56.393 -54.405  1.00  0.00    -0.242 N 
HETATM    3  O   UNL     1     -43.549  55.886 -52.936  1.00  0.00    -0.266 OA
HETATM    4  H   UNL     1     -40.896  56.171 -54.752  1.00  0.00     0.192 HD
ENDROOT
BRANCH   1   5
HETATM    5  C   UNL     1     -41.643  54.541 -52.816  1.00  0.00     0.048 A 
HETATM    6  C   UNL     1     -41.266  54.443 -51.453  1.00  0.00     0.008 A 
HETATM    7  C   UNL     1     -40.546  53.283 -51.095  1.00  0.00     0.068 A 
HETATM    8  C   UNL     1     -41.516  55.413 -50.445  1.00  0.00     0.015 A 
HETATM    9  N   UNL     1     -40.179  52.339 -51.978  1.00  0.00    -0.253 NA
HETATM   10  C   UNL     1     -40.170  53.099 -49.772  1.00  0.00     0.032 A 
HETATM   11  C   UNL     1     -40.493  52.494 -53.282  1.00  0.00     0.036 A 
HETATM   12  C   UNL     1     -41.237  53.566 -53.733  1.00  0.00     0.045 A 
HETATM   13  C   UNL     1     -40.460  54.038 -48.782  1.00  0.00     0.002 A 
HETATM   14  C   UNL     1     -41.127  55.203 -49.121  1.00  0.00     0.001 A 
BRANCH  11  15
HETATM   15  C   UNL     1     -39.988  51.447 -54.239  1.00  0.00     0.055 C 
HETATM   16  C   UNL     1     -39.731  50.118 -53.545  1.00  0.00     0.011 C 
ENDBRANCH  11  15
ENDBRANCH   1   5
BRANCH   2  17
HETATM   17  N   UNL     1     -42.498  57.458 -54.939  1.00  0.00    -0.166 NA
HETATM   18  C   UNL     1     -43.044  57.301 -56.101  1.00  0.00     0.157 A 
HETATM   19  C   UNL     1     -43.113  56.042 -56.966  1.00  0.00     0.277 A 
HETATM   20  C   UNL     1     -43.792  58.323 -56.822  1.00  0.00     0.027 A 
HETATM   21  O   UNL     1     -42.572  54.988 -56.702  1.00  0.00    -0.266 OA
HETATM   22  N   UNL     1     -43.897  56.379 -58.049  1.00  0.00    -0.321 N 
HETATM   23  C   UNL     1     -44.292  57.712 -57.972  1.00  0.00     0.048 A 
HETATM   24  H   UNL     1     -44.128  55.736 -58.791  1.00  0.00     0.169 HD
HETATM   25  C   UNL     1     -45.071  58.412 -58.869  1.00  0.00     0.030 A 
HETATM   26  C   UNL     1     -45.328  59.760 -58.584  1.00  0.00     0.002 A 
HETATM   27  C   UNL     1     -44.808  60.372 -57.423  1.00  0.00     0.001 A 
HETATM   28  C   UNL     1     -44.029  59.647 -56.519  1.00  0.00     0.016 A 
ENDBRANCH   2  17
TORSDOF 3
ENDMDL
MODEL 8
REMARK VINA RESULT:      -8.2      1.958      8.635
REMARK  3 active torsions:
REMARK  status: ('A' for Active; 'I' for Inactive)
REMARK    1  A    between atoms: C_2  and  C_3 
REMARK    2  A    between atoms: C_7  and  C_8 
REMARK       I    between atoms: C_8  and  N_9 
REMARK    3  A    between atoms: N_9  and  N_10 
ROOT
HETATM    1  C   UNL     1     -42.804  56.902 -55.524  1.00  0.00     0.272 C 
HETATM    2  N   UNL     1     -41.615  56.447 -54.979  1.00  0.00    -0.242 N 
HETATM    3  O   UNL     1     -43.804  57.203 -54.875  1.00  0.00    -0.266 OA
HETATM    4  H   UNL     1     -40.814  56.196 -55.559  1.00  0.00     0.192 HD
ENDROOT
BRANCH   1   5
HETATM    5  C   UNL     1     -42.880  56.967 -57.007  1.00  0.00     0.048 A 
HETATM    6  C   UNL     1     -42.512  58.090 -57.791  1.00  0.00     0.008 A 
HETATM    7  C   UNL     1     -42.625  57.928 -59.189  1.00  0.00     0.068 A 
HETATM    8  C   UNL     1     -42.082  59.350 -57.296  1.00  0.00     0.015 A 
HETATM    9  N   UNL     1     -43.099  56.813 -59.768  1.00  0.00    -0.253 NA
HETATM   10  C   UNL     1     -42.252  58.972 -60.024  1.00  0.00     0.032 A 
HETATM   11  C   UNL     1     -43.507  55.786 -58.993  1.00  0.00     0.036 A 
HETATM   12  C   UNL     1     -43.395  55.818 -57.617  1.00  0.00     0.045 A 
HETATM   13  C   UNL     1     -41.789  60.190 -59.527  1.00  0.00     0.002 A 
HETATM   14  C   UNL     1     -41.712  60.383 -58.158  1.00  0.00     0.001 A 
BRANCH  11  15
HETATM   15  C   UNL     1     -44.104  54.593 -59.692  1.00  0.00     0.055 C 
HETATM   16  C   UNL     1     -44.925  54.996 -60.906  1.00  0.00     0.011 C 
ENDBRANCH  11  15
ENDBRANCH   1   5
BRANCH   2  17
HETATM   17  N   UNL     1     -41.515  56.320 -53.622  1.00  0.00    -0.166 NA
HETATM   18  C   UNL     1     -41.148  55.171 -53.153  1.00  0.00     0.157 A 
HETATM   19  C   UNL     1     -40.732  53.913 -53.917  1.00  0.00     0.277 A 
HETATM   20  C   UNL     1     -40.990  54.852 -51.741  1.00  0.00     0.027 A 
HETATM   21  O   UNL     1     -40.765  53.791 -55.124  1.00  0.00    -0.266 OA
HETATM   22  N   UNL     1     -40.332  53.011 -52.954  1.00  0.00    -0.321 N 
HETATM   23  C   UNL     1     -40.485  53.554 -51.680  1.00  0.00     0.048 A 
HETATM   24  H   UNL     1     -39.991  52.085 -53.165  1.00  0.00     0.169 HD
HETATM   25  C   UNL     1     -40.201  52.955 -50.471  1.00  0.00     0.030 A 
HETATM   26  C   UNL     1     -40.451  53.699 -49.310  1.00  0.00     0.002 A 
HETATM   27  C   UNL     1     -40.973  55.008 -49.381  1.00  0.00     0.001 A 
HETATM   28  C   UNL     1     -41.246  55.604 -50.614  1.00  0.00     0.016 A 
ENDBRANCH   2  17
TORSDOF 3
ENDMDL
MODEL 9
REMARK VINA RESULT:      -8.2      1.798      8.068
REMARK  3 active torsions:
REMARK  status: ('A' for Active; 'I' for Inactive)
REMARK    1  A    between atoms: C_2  and  C_3 
REMARK    2  A    between atoms: C_7  and  C_8 
REMARK       I    between atoms: C_8  and  N_9 
REMARK    3  A    between atoms: N_9  and  N_10 
ROOT
HETATM    1  C   UNL     1     -42.701  55.872 -56.642  1.00  0.00     0.272 C 
HETATM    2  N   UNL     1     -41.662  55.737 -55.736  1.00  0.00    -0.242 N 
HETATM    3  O   UNL     1     -43.256  54.939 -57.218  1.00  0.00    -0.266 OA
HETATM    4  H   UNL     1     -41.222  56.544 -55.292  1.00  0.00     0.192 HD
ENDROOT
BRANCH   1   5
HETATM    5  C   UNL     1     -43.122  57.258 -56.979  1.00  0.00     0.048 A 
HETATM    6  C   UNL     1     -42.830  57.922 -58.197  1.00  0.00     0.008 A 
HETATM    7  C   UNL     1     -43.358  59.225 -58.329  1.00  0.00     0.068 A 
HETATM    8  C   UNL     1     -42.038  57.410 -59.259  1.00  0.00     0.015 A 
HETATM    9  N   UNL     1     -44.051  59.844 -57.359  1.00  0.00    -0.253 NA
HETATM   10  C   UNL     1     -43.143  59.927 -59.507  1.00  0.00     0.032 A 
HETATM   11  C   UNL     1     -44.253  59.213 -56.183  1.00  0.00     0.036 A 
HETATM   12  C   UNL     1     -43.823  57.919 -55.964  1.00  0.00     0.045 A 
HETATM   13  C   UNL     1     -42.401  59.396 -60.561  1.00  0.00     0.002 A 
HETATM   14  C   UNL     1     -41.838  58.137 -60.434  1.00  0.00     0.001 A 
BRANCH  11  15
HETATM   15  C   UNL     1     -44.965  59.983 -55.103  1.00  0.00     0.055 C 
HETATM   16  C   UNL     1     -45.127  59.165 -53.833  1.00  0.00     0.011 C 
ENDBRANCH  11  15
ENDBRANCH   1   5
BRANCH   2  17
HETATM   17  N   UNL     1     -41.205  54.485 -55.435  1.00  0.00    -0.166 NA
HETATM   18  C   UNL     1     -40.922  54.232 -54.198  1.00  0.00     0.157 A 
HETATM   19  C   UNL     1     -41.090  55.132 -52.973  1.00  0.00     0.277 A 
HETATM   20  C   UNL     1     -40.423  52.959 -53.694  1.00  0.00     0.027 A 
HETATM   21  O   UNL     1     -41.457  56.288 -53.006  1.00  0.00    -0.266 OA
HETATM   22  N   UNL     1     -40.747  54.350 -51.890  1.00  0.00    -0.321 N 
HETATM   23  C   UNL     1     -40.352  53.081 -52.307  1.00  0.00     0.048 A 
HETATM   24  H   UNL     1     -40.773  54.678 -50.936  1.00  0.00     0.169 HD
HETATM   25  C   UNL     1     -39.932  52.030 -51.520  1.00  0.00     0.030 A 
HETATM   26  C   UNL     1     -39.570  50.843 -52.171  1.00  0.00     0.002 A 
HETATM   27  C   UNL     1     -39.635  50.732 -53.577  1.00  0.00     0.001 A 
HETATM   28  C   UNL     1     -40.073  51.803 -54.359  1.00  0.00     0.016 A 
ENDBRANCH   2  17
TORSDOF 3
ENDMDL
MODEL 10
REMARK VINA RESULT:      -8.1      2.381      3.435
REMARK  3 active torsions:
REMARK  status: ('A' for Active; 'I' for Inactive)
REMARK    1  A    between atoms: C_2  and  C_3 
REMARK    2  A    between atoms: C_7  and  C_8 
REMARK       I    between atoms: C_8  and  N_9 
REMARK    3  A    between atoms: N_9  and  N_10 
ROOT
HETATM    1  C   UNL     1     -42.637  55.297 -54.031  1.00  0.00     0.272 C 
HETATM    2  N   UNL     1     -41.960  55.422 -55.233  1.00  0.00    -0.242 N 
HETATM    3  O   UNL     1     -43.770  54.835 -53.908  1.00  0.00    -0.266 OA
HETATM    4  H   UNL     1     -41.024  55.824 -55.289  1.00  0.00     0.192 HD
ENDROOT
BRANCH   1   5
HETATM    5  C   UNL     1     -41.955  55.823 -52.819  1.00  0.00     0.048 A 
HETATM    6  C   UNL     1     -41.412  55.023 -51.782  1.00  0.00     0.008 A 
HETATM    7  C   UNL     1     -40.770  55.724 -50.738  1.00  0.00     0.068 A 
HETATM    8  C   UNL     1     -41.490  53.608 -51.690  1.00  0.00     0.015 A 
HETATM    9  N   UNL     1     -40.708  57.064 -50.674  1.00  0.00    -0.253 NA
HETATM   10  C   UNL     1     -40.185  55.008 -49.702  1.00  0.00     0.032 A 
HETATM   11  C   UNL     1     -41.294  57.800 -51.641  1.00  0.00     0.036 A 
HETATM   12  C   UNL     1     -41.907  57.219 -52.734  1.00  0.00     0.045 A 
HETATM   13  C   UNL     1     -40.229  53.616 -49.645  1.00  0.00     0.002 A 
HETATM   14  C   UNL     1     -40.892  52.913 -50.638  1.00  0.00     0.001 A 
BRANCH  11  15
HETATM   15  C   UNL     1     -41.264  59.297 -51.479  1.00  0.00     0.055 C 
HETATM   16  C   UNL     1     -41.244  59.710 -50.016  1.00  0.00     0.011 C 
ENDBRANCH  11  15
ENDBRANCH   1   5
BRANCH   2  17
HETATM   17  N   UNL     1     -42.569  55.001 -56.382  1.00  0.00    -0.166 NA
HETATM   18  C   UNL     1     -42.988  55.908 -57.204  1.00  0.00     0.157 A 
HETATM   19  C   UNL     1     -42.841  57.427 -57.112  1.00  0.00     0.277 A 
HETATM   20  C   UNL     1     -43.659  55.647 -58.471  1.00  0.00     0.027 A 
HETATM   21  O   UNL     1     -42.356  58.022 -56.172  1.00  0.00    -0.266 OA
HETATM   22  N   UNL     1     -43.361  57.922 -58.289  1.00  0.00    -0.321 N 
HETATM   23  C   UNL     1     -43.844  56.885 -59.085  1.00  0.00     0.048 A 
HETATM   24  H   UNL     1     -43.389  58.904 -58.517  1.00  0.00     0.169 HD
HETATM   25  C   UNL     1     -44.440  56.984 -60.324  1.00  0.00     0.030 A 
HETATM   26  C   UNL     1     -44.861  55.794 -60.932  1.00  0.00     0.002 A 
HETATM   27  C   UNL     1     -44.679  54.546 -60.298  1.00  0.00     0.001 A 
HETATM   28  C   UNL     1     -44.064  54.462 -59.047  1.00  0.00     0.016 A 
ENDBRANCH   2  17
TORSDOF 3
ENDMDL
