MODEL 1
REMARK VINA RESULT:      -8.6      0.000      0.000
REMARK  11 active torsions:
REMARK  status: ('A' for Active; 'I' for Inactive)
REMARK    1  A    between atoms: C_2  and  O_3 
REMARK    2  A    between atoms: C_2  and  C_4 
REMARK    3  A    between atoms: C_8  and  C_9 
REMARK    4  A    between atoms: C_12  and  C_13 
REMARK    5  A    between atoms: C_13  and  C_14 
REMARK    6  A    between atoms: C_14  and  N_15 
REMARK    7  A    between atoms: C_14  and  C_29 
REMARK       I    between atoms: N_15  and  C_16 
REMARK    8  A    between atoms: C_16  and  C_17 
REMARK    9  A    between atoms: C_21  and  O_22 
REMARK   10  A    between atoms: O_22  and  C_23 
REMARK   11  A    between atoms: C_29  and  N_30 
ROOT
HETATM    1  C   UNL     1     -43.759  57.716 -55.781  1.00  0.00     0.114 C 
ENDROOT
BRANCH   1   2
HETATM    2  C   UNL     1     -45.061  58.025 -54.994  1.00  0.00     0.065 C 
BRANCH   2   3
HETATM    3  C   UNL     1     -44.989  58.810 -53.697  1.00  0.00    -0.056 A 
HETATM    4  C   UNL     1     -45.150  60.197 -53.585  1.00  0.00     0.008 A 
HETATM    5  C   UNL     1     -45.175  60.823 -52.330  1.00  0.00     0.014 A 
HETATM    6  C   UNL     1     -45.021  60.083 -51.156  1.00  0.00    -0.006 A 
HETATM    7  C   UNL     1     -44.792  58.708 -51.264  1.00  0.00     0.014 A 
HETATM    8  C   UNL     1     -44.778  58.080 -52.515  1.00  0.00     0.008 A 
BRANCH   6   9
HETATM    9  C   UNL     1     -45.118  60.693 -49.841  1.00  0.00     0.085 A 
HETATM   10  C   UNL     1     -44.876  62.017 -49.538  1.00  0.00     0.130 A 
HETATM   11  N   UNL     1     -45.160  62.148 -48.201  1.00  0.00    -0.315 N 
HETATM   12  C   UNL     1     -45.551  60.896 -47.749  1.00  0.00     0.143 A 
HETATM   13  C   UNL     1     -45.101  63.276 -47.394  1.00  0.00     0.098 A 
HETATM   14  C   UNL     1     -45.891  60.742 -46.355  1.00  0.00     0.017 A 
HETATM   15  N   UNL     1     -45.532  60.007 -48.723  1.00  0.00    -0.228 NA
HETATM   16  C   UNL     1     -45.824  61.857 -45.582  1.00  0.00     0.015 A 
HETATM   17  C   UNL     1     -45.429  63.160 -46.097  1.00  0.00     0.018 A 
BRANCH  14  18
HETATM   18  C   UNL     1     -46.310  59.376 -45.816  1.00  0.00     0.150 C 
HETATM   19  C   UNL     1     -47.795  59.151 -45.558  1.00  0.00     0.044 C 
BRANCH  18  20
HETATM   20  O   UNL     1     -45.629  59.138 -44.579  1.00  0.00    -0.391 OA
HETATM   21  H   UNL     1     -46.078  58.371 -44.170  1.00  0.00     0.210 HD
ENDBRANCH  18  20
ENDBRANCH  14  18
ENDBRANCH   6   9
ENDBRANCH   2   3
ENDBRANCH   1   2
BRANCH   1  22
HETATM   22  N   UNL     1     -43.116  56.510 -55.226  1.00  0.00    -0.350 N 
HETATM   23  C   UNL     1     -42.035  56.471 -54.381  1.00  0.00     0.252 C 
HETATM   24  O   UNL     1     -41.536  57.498 -53.930  1.00  0.00    -0.268 OA
HETATM   25  H   UNL     1     -43.626  55.642 -55.361  1.00  0.00     0.163 HD
BRANCH  23  26
HETATM   26  C   UNL     1     -41.432  55.134 -54.099  1.00  0.00     0.033 A 
HETATM   27  C   UNL     1     -41.291  54.740 -52.765  1.00  0.00     0.043 A 
HETATM   28  C   UNL     1     -40.621  53.553 -52.450  1.00  0.00     0.068 A 
HETATM   29 CL   UNL     1     -40.454  53.144 -50.779  1.00  0.00    -0.081 Cl
HETATM   30  C   UNL     1     -40.071  52.747 -53.459  1.00  0.00     0.091 A 
HETATM   31  C   UNL     1     -40.250  53.123 -54.791  1.00  0.00     0.039 A 
HETATM   32  C   UNL     1     -40.915  54.315 -55.111  1.00  0.00     0.020 A 
BRANCH  30  33
HETATM   33  O   UNL     1     -39.396  51.625 -53.061  1.00  0.00    -0.345 OA
BRANCH  33  34
HETATM   34  C   UNL     1     -39.977  50.334 -53.284  1.00  0.00     0.121 C 
HETATM   35  C   UNL     1     -39.484  49.728 -54.598  1.00  0.00     0.040 C 
HETATM   36  C   UNL     1     -39.537  49.452 -52.117  1.00  0.00     0.040 C 
ENDBRANCH  33  34
ENDBRANCH  30  33
ENDBRANCH  23  26
ENDBRANCH   1  22
BRANCH   1  37
HETATM   37  C   UNL     1     -44.052  57.695 -57.308  1.00  0.00     0.254 C 
BRANCH  37  38
HETATM   38  N   UNL     1     -44.005  56.311 -57.851  1.00  0.00    -0.077 N 
HETATM   39  H   UNL     1     -43.576  55.631 -57.216  1.00  0.00     0.274 HD
HETATM   40  H   UNL     1     -44.982  55.977 -58.004  1.00  0.00     0.274 HD
HETATM   41  H   UNL     1     -43.539  56.255 -58.764  1.00  0.00     0.274 HD
ENDBRANCH  37  38
ENDBRANCH   1  37
TORSDOF 11
ENDMDL
MODEL 2
REMARK VINA RESULT:      -8.4      3.901      8.543
REMARK  11 active torsions:
REMARK  status: ('A' for Active; 'I' for Inactive)
REMARK    1  A    between atoms: C_2  and  O_3 
REMARK    2  A    between atoms: C_2  and  C_4 
REMARK    3  A    between atoms: C_8  and  C_9 
REMARK    4  A    between atoms: C_12  and  C_13 
REMARK    5  A    between atoms: C_13  and  C_14 
REMARK    6  A    between atoms: C_14  and  N_15 
REMARK    7  A    between atoms: C_14  and  C_29 
REMARK       I    between atoms: N_15  and  C_16 
REMARK    8  A    between atoms: C_16  and  C_17 
REMARK    9  A    between atoms: C_21  and  O_22 
REMARK   10  A    between atoms: O_22  and  C_23 
REMARK   11  A    between atoms: C_29  and  N_30 
ROOT
HETATM    1  C   UNL     1     -41.968  58.850 -51.069  1.00  0.00     0.114 C 
ENDROOT
BRANCH   1   2
HETATM    2  C   UNL     1     -42.182  59.842 -52.243  1.00  0.00     0.065 C 
BRANCH   2   3
HETATM    3  C   UNL     1     -42.561  59.315 -53.615  1.00  0.00    -0.056 A 
HETATM    4  C   UNL     1     -41.693  59.221 -54.709  1.00  0.00     0.008 A 
HETATM    5  C   UNL     1     -42.101  58.619 -55.909  1.00  0.00     0.014 A 
HETATM    6  C   UNL     1     -43.395  58.112 -56.051  1.00  0.00    -0.006 A 
HETATM    7  C   UNL     1     -44.288  58.263 -54.987  1.00  0.00     0.014 A 
HETATM    8  C   UNL     1     -43.877  58.854 -53.786  1.00  0.00     0.008 A 
BRANCH   6   9
HETATM    9  C   UNL     1     -43.822  57.417 -57.253  1.00  0.00     0.085 A 
HETATM   10  C   UNL     1     -43.378  56.183 -57.682  1.00  0.00     0.130 A 
HETATM   11  N   UNL     1     -44.105  55.901 -58.813  1.00  0.00    -0.315 N 
HETATM   12  C   UNL     1     -44.951  56.980 -59.027  1.00  0.00     0.143 A 
HETATM   13  C   UNL     1     -44.066  54.778 -59.628  1.00  0.00     0.098 A 
HETATM   14  C   UNL     1     -45.824  56.955 -60.175  1.00  0.00     0.017 A 
HETATM   15  N   UNL     1     -44.795  57.903 -58.097  1.00  0.00    -0.228 NA
HETATM   16  C   UNL     1     -45.768  55.849 -60.961  1.00  0.00     0.015 A 
HETATM   17  C   UNL     1     -44.881  54.725 -60.694  1.00  0.00     0.018 A 
BRANCH  14  18
HETATM   18  C   UNL     1     -46.757  58.132 -60.453  1.00  0.00     0.150 C 
HETATM   19  C   UNL     1     -47.891  57.905 -61.446  1.00  0.00     0.044 C 
BRANCH  18  20
HETATM   20  O   UNL     1     -45.981  59.230 -60.946  1.00  0.00    -0.391 OA
HETATM   21  H   UNL     1     -45.641  58.948 -61.818  1.00  0.00     0.210 HD
ENDBRANCH  18  20
ENDBRANCH  14  18
ENDBRANCH   6   9
ENDBRANCH   2   3
ENDBRANCH   1   2
BRANCH   1  22
HETATM   22  N   UNL     1     -41.581  57.528 -51.597  1.00  0.00    -0.350 N 
HETATM   23  C   UNL     1     -42.335  56.381 -51.573  1.00  0.00     0.252 C 
HETATM   24  O   UNL     1     -43.490  56.381 -51.157  1.00  0.00    -0.268 OA
HETATM   25  H   UNL     1     -40.743  57.515 -52.171  1.00  0.00     0.163 HD
BRANCH  23  26
HETATM   26  C   UNL     1     -41.668  55.112 -51.992  1.00  0.00     0.033 A 
HETATM   27  C   UNL     1     -41.405  54.149 -51.014  1.00  0.00     0.043 A 
HETATM   28  C   UNL     1     -40.674  53.001 -51.338  1.00  0.00     0.068 A 
HETATM   29 CL   UNL     1     -40.357  51.867 -50.072  1.00  0.00    -0.081 Cl
HETATM   30  C   UNL     1     -40.182  52.803 -52.637  1.00  0.00     0.091 A 
HETATM   31  C   UNL     1     -40.481  53.748 -53.619  1.00  0.00     0.039 A 
HETATM   32  C   UNL     1     -41.209  54.902 -53.298  1.00  0.00     0.020 A 
BRANCH  30  33
HETATM   33  O   UNL     1     -39.440  51.674 -52.856  1.00  0.00    -0.345 OA
BRANCH  33  34
HETATM   34  C   UNL     1     -40.097  50.463 -53.253  1.00  0.00     0.121 C 
HETATM   35  C   UNL     1     -39.731  50.083 -54.687  1.00  0.00     0.040 C 
HETATM   36  C   UNL     1     -39.614  49.375 -52.296  1.00  0.00     0.040 C 
ENDBRANCH  33  34
ENDBRANCH  30  33
ENDBRANCH  23  26
ENDBRANCH   1  22
BRANCH   1  37
HETATM   37  C   UNL     1     -41.011  59.473 -50.013  1.00  0.00     0.254 C 
BRANCH  37  38
HETATM   38  N   UNL     1     -39.623  59.582 -50.535  1.00  0.00    -0.077 N 
HETATM   39  H   UNL     1     -39.500  60.323 -51.233  1.00  0.00     0.274 HD
HETATM   40  H   UNL     1     -38.986  59.830 -49.746  1.00  0.00     0.274 HD
HETATM   41  H   UNL     1     -39.270  58.699 -50.920  1.00  0.00     0.274 HD
ENDBRANCH  37  38
ENDBRANCH   1  37
TORSDOF 11
ENDMDL
MODEL 3
REMARK VINA RESULT:      -8.3      4.526      9.436
REMARK  11 active torsions:
REMARK  status: ('A' for Active; 'I' for Inactive)
REMARK    1  A    between atoms: C_2  and  O_3 
REMARK    2  A    between atoms: C_2  and  C_4 
REMARK    3  A    between atoms: C_8  and  C_9 
REMARK    4  A    between atoms: C_12  and  C_13 
REMARK    5  A    between atoms: C_13  and  C_14 
REMARK    6  A    between atoms: C_14  and  N_15 
REMARK    7  A    between atoms: C_14  and  C_29 
REMARK       I    between atoms: N_15  and  C_16 
REMARK    8  A    between atoms: C_16  and  C_17 
REMARK    9  A    between atoms: C_21  and  O_22 
REMARK   10  A    between atoms: O_22  and  C_23 
REMARK   11  A    between atoms: C_29  and  N_30 
ROOT
HETATM    1  C   UNL     1     -39.671  52.508 -51.726  1.00  0.00     0.114 C 
ENDROOT
BRANCH   1   2
HETATM    2  C   UNL     1     -39.995  52.074 -53.180  1.00  0.00     0.065 C 
BRANCH   2   3
HETATM    3  C   UNL     1     -40.774  53.008 -54.089  1.00  0.00    -0.056 A 
HETATM    4  C   UNL     1     -42.141  52.900 -54.372  1.00  0.00     0.008 A 
HETATM    5  C   UNL     1     -42.801  53.873 -55.138  1.00  0.00     0.014 A 
HETATM    6  C   UNL     1     -42.107  54.969 -55.655  1.00  0.00    -0.006 A 
HETATM    7  C   UNL     1     -40.729  55.048 -55.433  1.00  0.00     0.014 A 
HETATM    8  C   UNL     1     -40.072  54.083 -54.659  1.00  0.00     0.008 A 
BRANCH   6   9
HETATM    9  C   UNL     1     -42.777  56.030 -56.387  1.00  0.00     0.085 A 
HETATM   10  C   UNL     1     -42.996  57.316 -55.938  1.00  0.00     0.130 A 
HETATM   11  N   UNL     1     -43.593  57.976 -56.984  1.00  0.00    -0.315 N 
HETATM   12  C   UNL     1     -43.720  57.059 -58.018  1.00  0.00     0.143 A 
HETATM   13  C   UNL     1     -44.007  59.298 -57.072  1.00  0.00     0.098 A 
HETATM   14  C   UNL     1     -44.341  57.488 -59.248  1.00  0.00     0.017 A 
HETATM   15  N   UNL     1     -43.233  55.881 -57.676  1.00  0.00    -0.228 NA
HETATM   16  C   UNL     1     -44.741  58.784 -59.311  1.00  0.00     0.015 A 
HETATM   17  C   UNL     1     -44.573  59.724 -58.212  1.00  0.00     0.018 A 
BRANCH  14  18
HETATM   18  C   UNL     1     -44.514  56.503 -60.402  1.00  0.00     0.150 C 
HETATM   19  C   UNL     1     -45.724  55.577 -60.355  1.00  0.00     0.044 C 
BRANCH  18  20
HETATM   20  O   UNL     1     -43.352  55.670 -60.477  1.00  0.00    -0.391 OA
HETATM   21  H   UNL     1     -42.608  56.268 -60.692  1.00  0.00     0.210 HD
ENDBRANCH  18  20
ENDBRANCH  14  18
ENDBRANCH   6   9
ENDBRANCH   2   3
ENDBRANCH   1   2
BRANCH   1  22
HETATM   22  N   UNL     1     -40.211  53.859 -51.476  1.00  0.00    -0.350 N 
HETATM   23  C   UNL     1     -41.496  54.175 -51.113  1.00  0.00     0.252 C 
HETATM   24  O   UNL     1     -42.328  53.304 -50.874  1.00  0.00    -0.268 OA
HETATM   25  H   UNL     1     -39.520  54.601 -51.416  1.00  0.00     0.163 HD
BRANCH  23  26
HETATM   26  C   UNL     1     -41.871  55.621 -51.101  1.00  0.00     0.033 A 
HETATM   27  C   UNL     1     -43.017  56.013 -51.797  1.00  0.00     0.043 A 
HETATM   28  C   UNL     1     -43.337  57.370 -51.916  1.00  0.00     0.068 A 
HETATM   29 CL   UNL     1     -44.752  57.786 -52.818  1.00  0.00    -0.081 Cl
HETATM   30  C   UNL     1     -42.512  58.357 -51.355  1.00  0.00     0.091 A 
HETATM   31  C   UNL     1     -41.390  57.958 -50.627  1.00  0.00     0.039 A 
HETATM   32  C   UNL     1     -41.062  56.600 -50.510  1.00  0.00     0.020 A 
BRANCH  30  33
HETATM   33  O   UNL     1     -42.876  59.660 -51.555  1.00  0.00    -0.345 OA
BRANCH  33  34
HETATM   34  C   UNL     1     -42.109  60.479 -52.447  1.00  0.00     0.121 C 
HETATM   35  C   UNL     1     -41.658  59.686 -53.673  1.00  0.00     0.040 C 
HETATM   36  C   UNL     1     -43.027  61.619 -52.885  1.00  0.00     0.040 C 
ENDBRANCH  33  34
ENDBRANCH  30  33
ENDBRANCH  23  26
ENDBRANCH   1  22
BRANCH   1  37
HETATM   37  C   UNL     1     -40.112  51.400 -50.728  1.00  0.00     0.254 C 
BRANCH  37  38
HETATM   38  N   UNL     1     -39.478  50.094 -51.053  1.00  0.00    -0.077 N 
HETATM   39  H   UNL     1     -39.249  49.528 -50.229  1.00  0.00     0.274 HD
HETATM   40  H   UNL     1     -40.153  49.523 -51.607  1.00  0.00     0.274 HD
HETATM   41  H   UNL     1     -38.640  50.190 -51.635  1.00  0.00     0.274 HD
ENDBRANCH  37  38
ENDBRANCH   1  37
TORSDOF 11
ENDMDL
MODEL 4
REMARK VINA RESULT:      -8.3      4.517      9.959
REMARK  11 active torsions:
REMARK  status: ('A' for Active; 'I' for Inactive)
REMARK    1  A    between atoms: C_2  and  O_3 
REMARK    2  A    between atoms: C_2  and  C_4 
REMARK    3  A    between atoms: C_8  and  C_9 
REMARK    4  A    between atoms: C_12  and  C_13 
REMARK    5  A    between atoms: C_13  and  C_14 
REMARK    6  A    between atoms: C_14  and  N_15 
REMARK    7  A    between atoms: C_14  and  C_29 
REMARK       I    between atoms: N_15  and  C_16 
REMARK    8  A    between atoms: C_16  and  C_17 
REMARK    9  A    between atoms: C_21  and  O_22 
REMARK   10  A    between atoms: O_22  and  C_23 
REMARK   11  A    between atoms: C_29  and  N_30 
ROOT
HETATM    1  C   UNL     1     -39.994  53.703 -50.579  1.00  0.00     0.114 C 
ENDROOT
BRANCH   1   2
HETATM    2  C   UNL     1     -40.487  52.815 -51.753  1.00  0.00     0.065 C 
BRANCH   2   3
HETATM    3  C   UNL     1     -41.114  53.463 -52.974  1.00  0.00    -0.056 A 
HETATM    4  C   UNL     1     -42.470  53.784 -53.108  1.00  0.00     0.008 A 
HETATM    5  C   UNL     1     -42.941  54.481 -54.231  1.00  0.00     0.014 A 
HETATM    6  C   UNL     1     -42.072  54.857 -55.258  1.00  0.00    -0.006 A 
HETATM    7  C   UNL     1     -40.730  54.479 -55.163  1.00  0.00     0.014 A 
HETATM    8  C   UNL     1     -40.257  53.794 -54.037  1.00  0.00     0.008 A 
BRANCH   6   9
HETATM    9  C   UNL     1     -42.518  55.643 -56.396  1.00  0.00     0.085 A 
HETATM   10  C   UNL     1     -42.402  57.011 -56.536  1.00  0.00     0.130 A 
HETATM   11  N   UNL     1     -42.888  57.296 -57.788  1.00  0.00    -0.315 N 
HETATM   12  C   UNL     1     -43.288  56.092 -58.349  1.00  0.00     0.143 A 
HETATM   13  C   UNL     1     -42.985  58.519 -58.438  1.00  0.00     0.098 A 
HETATM   14  C   UNL     1     -43.863  56.104 -59.672  1.00  0.00     0.017 A 
HETATM   15  N   UNL     1     -43.071  55.084 -57.524  1.00  0.00    -0.228 NA
HETATM   16  C   UNL     1     -43.951  57.311 -60.289  1.00  0.00     0.015 A 
HETATM   17  C   UNL     1     -43.502  58.553 -59.676  1.00  0.00     0.018 A 
BRANCH  14  18
HETATM   18  C   UNL     1     -44.330  54.800 -60.315  1.00  0.00     0.150 C 
HETATM   19  C   UNL     1     -45.123  54.906 -61.613  1.00  0.00     0.044 C 
BRANCH  18  20
HETATM   20  O   UNL     1     -45.150  54.091 -59.381  1.00  0.00    -0.391 OA
HETATM   21  H   UNL     1     -45.720  54.764 -58.959  1.00  0.00     0.210 HD
ENDBRANCH  18  20
ENDBRANCH  14  18
ENDBRANCH   6   9
ENDBRANCH   2   3
ENDBRANCH   1   2
BRANCH   1  22
HETATM   22  N   UNL     1     -40.190  55.126 -50.914  1.00  0.00    -0.350 N 
HETATM   23  C   UNL     1     -41.305  55.884 -50.655  1.00  0.00     0.252 C 
HETATM   24  O   UNL     1     -42.253  55.435 -50.016  1.00  0.00    -0.268 OA
HETATM   25  H   UNL     1     -39.359  55.622 -51.220  1.00  0.00     0.163 HD
BRANCH  23  26
HETATM   26  C   UNL     1     -41.360  57.252 -51.253  1.00  0.00     0.033 A 
HETATM   27  C   UNL     1     -41.856  58.297 -50.470  1.00  0.00     0.043 A 
HETATM   28  C   UNL     1     -42.040  59.567 -51.028  1.00  0.00     0.068 A 
HETATM   29 CL   UNL     1     -42.689  60.806 -50.011  1.00  0.00    -0.081 Cl
HETATM   30  C   UNL     1     -41.747  59.810 -52.379  1.00  0.00     0.091 A 
HETATM   31  C   UNL     1     -41.214  58.773 -53.146  1.00  0.00     0.039 A 
HETATM   32  C   UNL     1     -41.033  57.497 -52.593  1.00  0.00     0.020 A 
BRANCH  30  33
HETATM   33  O   UNL     1     -41.996  61.068 -52.854  1.00  0.00    -0.345 OA
BRANCH  33  34
HETATM   34  C   UNL     1     -43.007  61.259 -53.853  1.00  0.00     0.121 C 
HETATM   35  C   UNL     1     -44.339  60.656 -53.410  1.00  0.00     0.040 C 
HETATM   36  C   UNL     1     -43.162  62.769 -54.029  1.00  0.00     0.040 C 
ENDBRANCH  33  34
ENDBRANCH  30  33
ENDBRANCH  23  26
ENDBRANCH   1  22
BRANCH   1  37
HETATM   37  C   UNL     1     -40.626  53.220 -49.243  1.00  0.00     0.254 C 
BRANCH  37  38
HETATM   38  N   UNL     1     -40.138  54.022 -48.089  1.00  0.00    -0.077 N 
HETATM   39  H   UNL     1     -40.020  53.479 -47.228  1.00  0.00     0.274 HD
HETATM   40  H   UNL     1     -39.190  54.395 -48.318  1.00  0.00     0.274 HD
HETATM   41  H   UNL     1     -40.726  54.838 -47.891  1.00  0.00     0.274 HD
ENDBRANCH  37  38
ENDBRANCH   1  37
TORSDOF 11
ENDMDL
MODEL 5
REMARK VINA RESULT:      -7.9      4.089      9.567
REMARK  11 active torsions:
REMARK  status: ('A' for Active; 'I' for Inactive)
REMARK    1  A    between atoms: C_2  and  O_3 
REMARK    2  A    between atoms: C_2  and  C_4 
REMARK    3  A    between atoms: C_8  and  C_9 
REMARK    4  A    between atoms: C_12  and  C_13 
REMARK    5  A    between atoms: C_13  and  C_14 
REMARK    6  A    between atoms: C_14  and  N_15 
REMARK    7  A    between atoms: C_14  and  C_29 
REMARK       I    between atoms: N_15  and  C_16 
REMARK    8  A    between atoms: C_16  and  C_17 
REMARK    9  A    between atoms: C_21  and  O_22 
REMARK   10  A    between atoms: O_22  and  C_23 
REMARK   11  A    between atoms: C_29  and  N_30 
ROOT
HETATM    1  C   UNL     1     -39.885  52.881 -51.655  1.00  0.00     0.114 C 
ENDROOT
BRANCH   1   2
HETATM    2  C   UNL     1     -40.267  52.385 -53.076  1.00  0.00     0.065 C 
BRANCH   2   3
HETATM    3  C   UNL     1     -41.000  53.314 -54.026  1.00  0.00    -0.056 A 
HETATM    4  C   UNL     1     -42.345  53.191 -54.396  1.00  0.00     0.008 A 
HETATM    5  C   UNL     1     -42.968  54.160 -55.196  1.00  0.00     0.014 A 
HETATM    6  C   UNL     1     -42.257  55.268 -55.662  1.00  0.00    -0.006 A 
HETATM    7  C   UNL     1     -40.897  55.363 -55.353  1.00  0.00     0.014 A 
HETATM    8  C   UNL     1     -40.278  54.402 -54.546  1.00  0.00     0.008 A 
BRANCH   6   9
HETATM    9  C   UNL     1     -42.894  56.326 -56.429  1.00  0.00     0.085 A 
HETATM   10  C   UNL     1     -44.070  56.971 -56.106  1.00  0.00     0.130 A 
HETATM   11  N   UNL     1     -44.241  57.932 -57.071  1.00  0.00    -0.315 N 
HETATM   12  C   UNL     1     -43.169  57.822 -57.943  1.00  0.00     0.143 A 
HETATM   13  C   UNL     1     -45.254  58.872 -57.209  1.00  0.00     0.098 A 
HETATM   14  C   UNL     1     -43.108  58.712 -59.078  1.00  0.00     0.017 A 
HETATM   15  N   UNL     1     -42.346  56.859 -57.572  1.00  0.00    -0.228 NA
HETATM   16  C   UNL     1     -44.109  59.621 -59.196  1.00  0.00     0.015 A 
HETATM   17  C   UNL     1     -45.210  59.721 -58.248  1.00  0.00     0.018 A 
BRANCH  14  18
HETATM   18  C   UNL     1     -41.951  58.609 -60.070  1.00  0.00     0.150 C 
HETATM   19  C   UNL     1     -41.938  59.595 -61.232  1.00  0.00     0.044 C 
BRANCH  18  20
HETATM   20  O   UNL     1     -41.942  57.294 -60.635  1.00  0.00    -0.391 OA
HETATM   21  H   UNL     1     -42.878  57.073 -60.813  1.00  0.00     0.210 HD
ENDBRANCH  18  20
ENDBRANCH  14  18
ENDBRANCH   6   9
ENDBRANCH   2   3
ENDBRANCH   1   2
BRANCH   1  22
HETATM   22  N   UNL     1     -40.347  54.270 -51.472  1.00  0.00    -0.350 N 
HETATM   23  C   UNL     1     -41.618  54.678 -51.152  1.00  0.00     0.252 C 
HETATM   24  O   UNL     1     -42.506  53.870 -50.900  1.00  0.00    -0.268 OA
HETATM   25  H   UNL     1     -39.613  54.972 -51.424  1.00  0.00     0.163 HD
BRANCH  23  26
HETATM   26  C   UNL     1     -41.903  56.143 -51.205  1.00  0.00     0.033 A 
HETATM   27  C   UNL     1     -40.878  57.029 -50.862  1.00  0.00     0.043 A 
HETATM   28  C   UNL     1     -41.135  58.402 -50.778  1.00  0.00     0.068 A 
HETATM   29 CL   UNL     1     -39.830  59.437 -50.315  1.00  0.00    -0.081 Cl
HETATM   30  C   UNL     1     -42.420  58.911 -51.024  1.00  0.00     0.091 A 
HETATM   31  C   UNL     1     -43.430  58.026 -51.406  1.00  0.00     0.039 A 
HETATM   32  C   UNL     1     -43.179  56.649 -51.485  1.00  0.00     0.020 A 
BRANCH  30  33
HETATM   33  O   UNL     1     -42.594  60.260 -50.879  1.00  0.00    -0.345 OA
BRANCH  33  34
HETATM   34  C   UNL     1     -43.471  60.960 -51.772  1.00  0.00     0.121 C 
HETATM   35  C   UNL     1     -43.871  62.318 -51.198  1.00  0.00     0.040 C 
HETATM   36  C   UNL     1     -42.695  61.161 -53.072  1.00  0.00     0.040 C 
ENDBRANCH  33  34
ENDBRANCH  30  33
ENDBRANCH  23  26
ENDBRANCH   1  22
BRANCH   1  37
HETATM   37  C   UNL     1     -40.360  51.855 -50.587  1.00  0.00     0.254 C 
BRANCH  37  38
HETATM   38  N   UNL     1     -39.767  50.511 -50.824  1.00  0.00    -0.077 N 
HETATM   39  H   UNL     1     -38.819  50.539 -51.211  1.00  0.00     0.274 HD
HETATM   40  H   UNL     1     -39.683  50.016 -49.909  1.00  0.00     0.274 HD
HETATM   41  H   UNL     1     -40.353  49.915 -51.418  1.00  0.00     0.274 HD
ENDBRANCH  37  38
ENDBRANCH   1  37
TORSDOF 11
ENDMDL
MODEL 6
REMARK VINA RESULT:      -7.9      4.194      9.555
REMARK  11 active torsions:
REMARK  status: ('A' for Active; 'I' for Inactive)
REMARK    1  A    between atoms: C_2  and  O_3 
REMARK    2  A    between atoms: C_2  and  C_4 
REMARK    3  A    between atoms: C_8  and  C_9 
REMARK    4  A    between atoms: C_12  and  C_13 
REMARK    5  A    between atoms: C_13  and  C_14 
REMARK    6  A    between atoms: C_14  and  N_15 
REMARK    7  A    between atoms: C_14  and  C_29 
REMARK       I    between atoms: N_15  and  C_16 
REMARK    8  A    between atoms: C_16  and  C_17 
REMARK    9  A    between atoms: C_21  and  O_22 
REMARK   10  A    between atoms: O_22  and  C_23 
REMARK   11  A    between atoms: C_29  and  N_30 
ROOT
HETATM    1  C   UNL     1     -40.109  53.830 -50.354  1.00  0.00     0.114 C 
ENDROOT
BRANCH   1   2
HETATM    2  C   UNL     1     -40.607  52.953 -51.533  1.00  0.00     0.065 C 
BRANCH   2   3
HETATM    3  C   UNL     1     -41.187  53.613 -52.771  1.00  0.00    -0.056 A 
HETATM    4  C   UNL     1     -42.549  53.850 -52.993  1.00  0.00     0.008 A 
HETATM    5  C   UNL     1     -42.985  54.566 -54.118  1.00  0.00     0.014 A 
HETATM    6  C   UNL     1     -42.073  55.045 -55.060  1.00  0.00    -0.006 A 
HETATM    7  C   UNL     1     -40.718  54.754 -54.880  1.00  0.00     0.014 A 
HETATM    8  C   UNL     1     -40.281  54.050 -53.751  1.00  0.00     0.008 A 
BRANCH   6   9
HETATM    9  C   UNL     1     -42.488  55.853 -56.194  1.00  0.00     0.085 A 
HETATM   10  C   UNL     1     -42.974  55.380 -57.396  1.00  0.00     0.130 A 
HETATM   11  N   UNL     1     -43.300  56.496 -58.127  1.00  0.00    -0.315 N 
HETATM   12  C   UNL     1     -42.988  57.597 -57.342  1.00  0.00     0.143 A 
HETATM   13  C   UNL     1     -43.846  56.587 -59.400  1.00  0.00     0.098 A 
HETATM   14  C   UNL     1     -43.215  58.916 -57.882  1.00  0.00     0.017 A 
HETATM   15  N   UNL     1     -42.498  57.229 -56.173  1.00  0.00    -0.228 NA
HETATM   16  C   UNL     1     -43.746  58.982 -59.130  1.00  0.00     0.015 A 
HETATM   17  C   UNL     1     -44.081  57.803 -59.917  1.00  0.00     0.018 A 
BRANCH  14  18
HETATM   18  C   UNL     1     -42.868  60.151 -57.054  1.00  0.00     0.150 C 
HETATM   19  C   UNL     1     -42.730  61.475 -57.799  1.00  0.00     0.044 C 
BRANCH  18  20
HETATM   20  O   UNL     1     -41.628  59.921 -56.376  1.00  0.00    -0.391 OA
HETATM   21  H   UNL     1     -41.010  59.587 -57.056  1.00  0.00     0.210 HD
ENDBRANCH  18  20
ENDBRANCH  14  18
ENDBRANCH   6   9
ENDBRANCH   2   3
ENDBRANCH   1   2
BRANCH   1  22
HETATM   22  N   UNL     1     -40.453  55.243 -50.604  1.00  0.00    -0.350 N 
HETATM   23  C   UNL     1     -41.652  55.856 -50.339  1.00  0.00     0.252 C 
HETATM   24  O   UNL     1     -42.562  55.264 -49.765  1.00  0.00    -0.268 OA
HETATM   25  H   UNL     1     -39.673  55.846 -50.848  1.00  0.00     0.163 HD
BRANCH  23  26
HETATM   26  C   UNL     1     -41.841  57.246 -50.850  1.00  0.00     0.033 A 
HETATM   27  C   UNL     1     -42.806  57.462 -51.838  1.00  0.00     0.043 A 
HETATM   28  C   UNL     1     -42.932  58.722 -52.433  1.00  0.00     0.068 A 
HETATM   29 CL   UNL     1     -44.124  58.910 -53.672  1.00  0.00    -0.081 Cl
HETATM   30  C   UNL     1     -42.089  59.781 -52.063  1.00  0.00     0.091 A 
HETATM   31  C   UNL     1     -41.154  59.571 -51.049  1.00  0.00     0.039 A 
HETATM   32  C   UNL     1     -41.020  58.309 -50.453  1.00  0.00     0.020 A 
BRANCH  30  33
HETATM   33  O   UNL     1     -42.252  60.967 -52.726  1.00  0.00    -0.345 OA
BRANCH  33  34
HETATM   34  C   UNL     1     -43.309  61.854 -52.338  1.00  0.00     0.121 C 
HETATM   35  C   UNL     1     -43.123  62.338 -50.900  1.00  0.00     0.040 C 
HETATM   36  C   UNL     1     -43.246  63.047 -53.291  1.00  0.00     0.040 C 
ENDBRANCH  33  34
ENDBRANCH  30  33
ENDBRANCH  23  26
ENDBRANCH   1  22
BRANCH   1  37
HETATM   37  C   UNL     1     -40.599  53.235 -49.003  1.00  0.00     0.254 C 
BRANCH  37  38
HETATM   38  N   UNL     1     -40.210  54.098 -47.856  1.00  0.00    -0.077 N 
HETATM   39  H   UNL     1     -39.270  54.497 -47.938  1.00  0.00     0.274 HD
HETATM   40  H   UNL     1     -40.859  54.915 -47.815  1.00  0.00     0.274 HD
HETATM   41  H   UNL     1     -40.293  53.622 -46.951  1.00  0.00     0.274 HD
ENDBRANCH  37  38
ENDBRANCH   1  37
TORSDOF 11
ENDMDL
MODEL 7
REMARK VINA RESULT:      -7.8      4.235      8.176
REMARK  11 active torsions:
REMARK  status: ('A' for Active; 'I' for Inactive)
REMARK    1  A    between atoms: C_2  and  O_3 
REMARK    2  A    between atoms: C_2  and  C_4 
REMARK    3  A    between atoms: C_8  and  C_9 
REMARK    4  A    between atoms: C_12  and  C_13 
REMARK    5  A    between atoms: C_13  and  C_14 
REMARK    6  A    between atoms: C_14  and  N_15 
REMARK    7  A    between atoms: C_14  and  C_29 
REMARK       I    between atoms: N_15  and  C_16 
REMARK    8  A    between atoms: C_16  and  C_17 
REMARK    9  A    between atoms: C_21  and  O_22 
REMARK   10  A    between atoms: O_22  and  C_23 
REMARK   11  A    between atoms: C_29  and  N_30 
ROOT
HETATM    1  C   UNL     1     -45.069  61.741 -52.771  1.00  0.00     0.114 C 
ENDROOT
BRANCH   1   2
HETATM    2  C   UNL     1     -44.698  61.193 -51.367  1.00  0.00     0.065 C 
BRANCH   2   3
HETATM    3  C   UNL     1     -44.085  59.810 -51.236  1.00  0.00    -0.056 A 
HETATM    4  C   UNL     1     -44.803  58.608 -51.242  1.00  0.00     0.008 A 
HETATM    5  C   UNL     1     -44.143  57.371 -51.226  1.00  0.00     0.014 A 
HETATM    6  C   UNL     1     -42.748  57.303 -51.183  1.00  0.00    -0.006 A 
HETATM    7  C   UNL     1     -42.028  58.498 -51.108  1.00  0.00     0.014 A 
HETATM    8  C   UNL     1     -42.686  59.734 -51.136  1.00  0.00     0.008 A 
BRANCH   6   9
HETATM    9  C   UNL     1     -42.036  56.038 -51.241  1.00  0.00     0.085 A 
HETATM   10  C   UNL     1     -41.543  55.331 -50.163  1.00  0.00     0.130 A 
HETATM   11  N   UNL     1     -41.017  54.177 -50.688  1.00  0.00    -0.315 N 
HETATM   12  C   UNL     1     -41.204  54.238 -52.062  1.00  0.00     0.143 A 
HETATM   13  C   UNL     1     -40.411  53.109 -50.040  1.00  0.00     0.098 A 
HETATM   14  C   UNL     1     -40.720  53.147 -52.873  1.00  0.00     0.017 A 
HETATM   15  N   UNL     1     -41.817  55.352 -52.413  1.00  0.00    -0.228 NA
HETATM   16  C   UNL     1     -40.128  52.114 -52.219  1.00  0.00     0.015 A 
HETATM   17  C   UNL     1     -39.967  52.076 -50.772  1.00  0.00     0.018 A 
BRANCH  14  18
HETATM   18  C   UNL     1     -40.892  53.186 -54.390  1.00  0.00     0.150 C 
HETATM   19  C   UNL     1     -40.006  54.152 -55.169  1.00  0.00     0.044 C 
BRANCH  18  20
HETATM   20  O   UNL     1     -42.249  53.525 -54.692  1.00  0.00    -0.391 OA
HETATM   21  H   UNL     1     -42.342  53.422 -55.660  1.00  0.00     0.210 HD
ENDBRANCH  18  20
ENDBRANCH  14  18
ENDBRANCH   6   9
ENDBRANCH   2   3
ENDBRANCH   1   2
BRANCH   1  22
HETATM   22  N   UNL     1     -44.863  60.691 -53.786  1.00  0.00    -0.350 N 
HETATM   23  C   UNL     1     -43.752  60.518 -54.574  1.00  0.00     0.252 C 
HETATM   24  O   UNL     1     -42.751  61.214 -54.434  1.00  0.00    -0.268 OA
HETATM   25  H   UNL     1     -45.545  59.939 -53.782  1.00  0.00     0.163 HD
BRANCH  23  26
HETATM   26  C   UNL     1     -43.838  59.505 -55.669  1.00  0.00     0.033 A 
HETATM   27  C   UNL     1     -44.291  59.923 -56.923  1.00  0.00     0.043 A 
HETATM   28  C   UNL     1     -44.505  58.988 -57.941  1.00  0.00     0.068 A 
HETATM   29 CL   UNL     1     -45.098  59.571 -59.457  1.00  0.00    -0.081 Cl
HETATM   30  C   UNL     1     -44.283  57.620 -57.720  1.00  0.00     0.091 A 
HETATM   31  C   UNL     1     -43.792  57.212 -56.479  1.00  0.00     0.039 A 
HETATM   32  C   UNL     1     -43.582  58.145 -55.454  1.00  0.00     0.020 A 
BRANCH  30  33
HETATM   33  O   UNL     1     -44.557  56.769 -58.756  1.00  0.00    -0.345 OA
BRANCH  33  34
HETATM   34  C   UNL     1     -43.706  55.639 -58.987  1.00  0.00     0.121 C 
HETATM   35  C   UNL     1     -44.439  54.548 -59.766  1.00  0.00     0.040 C 
HETATM   36  C   UNL     1     -42.523  56.148 -59.810  1.00  0.00     0.040 C 
ENDBRANCH  33  34
ENDBRANCH  30  33
ENDBRANCH  23  26
ENDBRANCH   1  22
BRANCH   1  37
HETATM   37  C   UNL     1     -46.482  62.390 -52.733  1.00  0.00     0.254 C 
BRANCH  37  38
HETATM   38  N   UNL     1     -47.425  61.690 -53.646  1.00  0.00    -0.077 N 
HETATM   39  H   UNL     1     -47.002  61.395 -54.532  1.00  0.00     0.274 HD
HETATM   40  H   UNL     1     -47.751  60.814 -53.183  1.00  0.00     0.274 HD
HETATM   41  H   UNL     1     -48.269  62.238 -53.846  1.00  0.00     0.274 HD
ENDBRANCH  37  38
ENDBRANCH   1  37
TORSDOF 11
ENDMDL
MODEL 8
REMARK VINA RESULT:      -7.8      2.943      8.616
REMARK  11 active torsions:
REMARK  status: ('A' for Active; 'I' for Inactive)
REMARK    1  A    between atoms: C_2  and  O_3 
REMARK    2  A    between atoms: C_2  and  C_4 
REMARK    3  A    between atoms: C_8  and  C_9 
REMARK    4  A    between atoms: C_12  and  C_13 
REMARK    5  A    between atoms: C_13  and  C_14 
REMARK    6  A    between atoms: C_14  and  N_15 
REMARK    7  A    between atoms: C_14  and  C_29 
REMARK       I    between atoms: N_15  and  C_16 
REMARK    8  A    between atoms: C_16  and  C_17 
REMARK    9  A    between atoms: C_21  and  O_22 
REMARK   10  A    between atoms: O_22  and  C_23 
REMARK   11  A    between atoms: C_29  and  N_30 
ROOT
HETATM    1  C   UNL     1     -43.999  60.284 -50.864  1.00  0.00     0.114 C 
ENDROOT
BRANCH   1   2
HETATM    2  C   UNL     1     -43.782  61.088 -52.174  1.00  0.00     0.065 C 
BRANCH   2   3
HETATM    3  C   UNL     1     -43.843  60.375 -53.513  1.00  0.00    -0.056 A 
HETATM    4  C   UNL     1     -42.738  60.094 -54.326  1.00  0.00     0.008 A 
HETATM    5  C   UNL     1     -42.875  59.334 -55.497  1.00  0.00     0.014 A 
HETATM    6  C   UNL     1     -44.124  58.853 -55.897  1.00  0.00    -0.006 A 
HETATM    7  C   UNL     1     -45.242  59.188 -55.127  1.00  0.00     0.014 A 
HETATM    8  C   UNL     1     -45.103  59.936 -53.951  1.00  0.00     0.008 A 
BRANCH   6   9
HETATM    9  C   UNL     1     -44.285  58.002 -57.063  1.00  0.00     0.085 A 
HETATM   10  C   UNL     1     -43.480  56.937 -57.411  1.00  0.00     0.130 A 
HETATM   11  N   UNL     1     -44.052  56.394 -58.535  1.00  0.00    -0.315 N 
HETATM   12  C   UNL     1     -45.172  57.159 -58.827  1.00  0.00     0.143 A 
HETATM   13  C   UNL     1     -43.654  55.293 -59.283  1.00  0.00     0.098 A 
HETATM   14  C   UNL     1     -45.959  56.816 -59.987  1.00  0.00     0.017 A 
HETATM   15  N   UNL     1     -45.328  58.132 -57.950  1.00  0.00    -0.228 NA
HETATM   16  C   UNL     1     -45.551  55.739 -60.706  1.00  0.00     0.015 A 
HETATM   17  C   UNL     1     -44.380  54.946 -60.357  1.00  0.00     0.018 A 
BRANCH  14  18
HETATM   18  C   UNL     1     -47.189  57.646 -60.349  1.00  0.00     0.150 C 
HETATM   19  C   UNL     1     -47.905  57.302 -61.651  1.00  0.00     0.044 C 
BRANCH  18  20
HETATM   20  O   UNL     1     -46.810  59.024 -60.431  1.00  0.00    -0.391 OA
HETATM   21  H   UNL     1     -47.370  59.494 -59.782  1.00  0.00     0.210 HD
ENDBRANCH  18  20
ENDBRANCH  14  18
ENDBRANCH   6   9
ENDBRANCH   2   3
ENDBRANCH   1   2
BRANCH   1  22
HETATM   22  N   UNL     1     -43.476  58.914 -51.027  1.00  0.00    -0.350 N 
HETATM   23  C   UNL     1     -42.158  58.546 -51.135  1.00  0.00     0.252 C 
HETATM   24  O   UNL     1     -41.252  59.365 -51.017  1.00  0.00    -0.268 OA
HETATM   25  H   UNL     1     -44.152  58.169 -50.887  1.00  0.00     0.163 HD
BRANCH  23  26
HETATM   26  C   UNL     1     -41.869  57.123 -51.486  1.00  0.00     0.033 A 
HETATM   27  C   UNL     1     -41.358  56.846 -52.757  1.00  0.00     0.043 A 
HETATM   28  C   UNL     1     -41.188  55.521 -53.173  1.00  0.00     0.068 A 
HETATM   29 CL   UNL     1     -40.582  55.251 -54.769  1.00  0.00    -0.081 Cl
HETATM   30  C   UNL     1     -41.539  54.452 -52.334  1.00  0.00     0.091 A 
HETATM   31  C   UNL     1     -42.011  54.734 -51.051  1.00  0.00     0.039 A 
HETATM   32  C   UNL     1     -42.188  56.060 -50.632  1.00  0.00     0.020 A 
BRANCH  30  33
HETATM   33  O   UNL     1     -41.381  53.189 -52.835  1.00  0.00    -0.345 OA
BRANCH  33  34
HETATM   34  C   UNL     1     -40.084  52.578 -52.815  1.00  0.00     0.121 C 
HETATM   35  C   UNL     1     -39.839  51.850 -51.495  1.00  0.00     0.040 C 
HETATM   36  C   UNL     1     -40.061  51.573 -53.966  1.00  0.00     0.040 C 
ENDBRANCH  33  34
ENDBRANCH  30  33
ENDBRANCH  23  26
ENDBRANCH   1  22
BRANCH   1  37
HETATM   37  C   UNL     1     -43.451  61.086 -49.650  1.00  0.00     0.254 C 
BRANCH  37  38
HETATM   38  N   UNL     1     -44.368  60.997 -48.482  1.00  0.00    -0.077 N 
HETATM   39  H   UNL     1     -44.011  60.414 -47.718  1.00  0.00     0.274 HD
HETATM   40  H   UNL     1     -44.488  61.951 -48.076  1.00  0.00     0.274 HD
HETATM   41  H   UNL     1     -45.309  60.675 -48.735  1.00  0.00     0.274 HD
ENDBRANCH  37  38
ENDBRANCH   1  37
TORSDOF 11
ENDMDL
MODEL 9
REMARK VINA RESULT:      -7.7      2.714      8.310
REMARK  11 active torsions:
REMARK  status: ('A' for Active; 'I' for Inactive)
REMARK    1  A    between atoms: C_2  and  O_3 
REMARK    2  A    between atoms: C_2  and  C_4 
REMARK    3  A    between atoms: C_8  and  C_9 
REMARK    4  A    between atoms: C_12  and  C_13 
REMARK    5  A    between atoms: C_13  and  C_14 
REMARK    6  A    between atoms: C_14  and  N_15 
REMARK    7  A    between atoms: C_14  and  C_29 
REMARK       I    between atoms: N_15  and  C_16 
REMARK    8  A    between atoms: C_16  and  C_17 
REMARK    9  A    between atoms: C_21  and  O_22 
REMARK   10  A    between atoms: O_22  and  C_23 
REMARK   11  A    between atoms: C_29  and  N_30 
ROOT
HETATM    1  C   UNL     1     -45.049  60.537 -50.132  1.00  0.00     0.114 C 
ENDROOT
BRANCH   1   2
HETATM    2  C   UNL     1     -45.290  61.590 -51.246  1.00  0.00     0.065 C 
BRANCH   2   3
HETATM    3  C   UNL     1     -44.788  61.324 -52.654  1.00  0.00    -0.056 A 
HETATM    4  C   UNL     1     -43.477  61.539 -53.095  1.00  0.00     0.008 A 
HETATM    5  C   UNL     1     -43.076  61.162 -54.385  1.00  0.00     0.014 A 
HETATM    6  C   UNL     1     -43.981  60.579 -55.275  1.00  0.00    -0.006 A 
HETATM    7  C   UNL     1     -45.309  60.424 -54.865  1.00  0.00     0.014 A 
HETATM    8  C   UNL     1     -45.706  60.790 -53.573  1.00  0.00     0.008 A 
BRANCH   6   9
HETATM    9  C   UNL     1     -43.577  60.111 -56.589  1.00  0.00     0.085 A 
HETATM   10  C   UNL     1     -42.870  60.832 -57.529  1.00  0.00     0.130 A 
HETATM   11  N   UNL     1     -42.658  59.968 -58.575  1.00  0.00    -0.315 N 
HETATM   12  C   UNL     1     -43.253  58.764 -58.229  1.00  0.00     0.143 A 
HETATM   13  C   UNL     1     -41.983  60.179 -59.770  1.00  0.00     0.098 A 
HETATM   14  C   UNL     1     -43.197  57.671 -59.170  1.00  0.00     0.017 A 
HETATM   15  N   UNL     1     -43.812  58.830 -57.036  1.00  0.00    -0.228 NA
HETATM   16  C   UNL     1     -42.535  57.899 -60.333  1.00  0.00     0.015 A 
HETATM   17  C   UNL     1     -41.903  59.172 -60.654  1.00  0.00     0.018 A 
BRANCH  14  18
HETATM   18  C   UNL     1     -43.856  56.335 -58.832  1.00  0.00     0.150 C 
HETATM   19  C   UNL     1     -43.857  55.263 -59.916  1.00  0.00     0.044 C 
BRANCH  18  20
HETATM   20  O   UNL     1     -45.222  56.571 -58.474  1.00  0.00    -0.391 OA
HETATM   21  H   UNL     1     -45.614  57.061 -59.224  1.00  0.00     0.210 HD
ENDBRANCH  18  20
ENDBRANCH  14  18
ENDBRANCH   6   9
ENDBRANCH   2   3
ENDBRANCH   1   2
BRANCH   1  22
HETATM   22  N   UNL     1     -44.235  59.427 -50.662  1.00  0.00    -0.350 N 
HETATM   23  C   UNL     1     -44.677  58.169 -50.991  1.00  0.00     0.252 C 
HETATM   24  O   UNL     1     -45.868  57.875 -50.942  1.00  0.00    -0.268 OA
HETATM   25  H   UNL     1     -43.296  59.675 -50.957  1.00  0.00     0.163 HD
BRANCH  23  26
HETATM   26  C   UNL     1     -43.644  57.145 -51.328  1.00  0.00     0.033 A 
HETATM   27  C   UNL     1     -42.676  57.471 -52.282  1.00  0.00     0.043 A 
HETATM   28  C   UNL     1     -41.766  56.502 -52.719  1.00  0.00     0.068 A 
HETATM   29 CL   UNL     1     -40.617  56.965 -53.925  1.00  0.00    -0.081 Cl
HETATM   30  C   UNL     1     -41.815  55.191 -52.221  1.00  0.00     0.091 A 
HETATM   31  C   UNL     1     -42.758  54.881 -51.239  1.00  0.00     0.039 A 
HETATM   32  C   UNL     1     -43.676  55.846 -50.803  1.00  0.00     0.020 A 
BRANCH  30  33
HETATM   33  O   UNL     1     -40.916  54.296 -52.732  1.00  0.00    -0.345 OA
BRANCH  33  34
HETATM   34  C   UNL     1     -41.386  53.180 -53.499  1.00  0.00     0.121 C 
HETATM   35  C   UNL     1     -42.087  53.645 -54.775  1.00  0.00     0.040 C 
HETATM   36  C   UNL     1     -40.154  52.354 -53.864  1.00  0.00     0.040 C 
ENDBRANCH  33  34
ENDBRANCH  30  33
ENDBRANCH  23  26
ENDBRANCH   1  22
BRANCH   1  37
HETATM   37  C   UNL     1     -44.506  61.232 -48.850  1.00  0.00     0.254 C 
BRANCH  37  38
HETATM   38  N   UNL     1     -45.104  60.648 -47.620  1.00  0.00    -0.077 N 
HETATM   39  H   UNL     1     -45.728  59.855 -47.799  1.00  0.00     0.274 HD
HETATM   40  H   UNL     1     -44.337  60.272 -47.020  1.00  0.00     0.274 HD
HETATM   41  H   UNL     1     -45.600  61.340 -47.049  1.00  0.00     0.274 HD
ENDBRANCH  37  38
ENDBRANCH   1  37
TORSDOF 11
ENDMDL
MODEL 10
REMARK VINA RESULT:      -7.7      1.780      2.069
REMARK  11 active torsions:
REMARK  status: ('A' for Active; 'I' for Inactive)
REMARK    1  A    between atoms: C_2  and  O_3 
REMARK    2  A    between atoms: C_2  and  C_4 
REMARK    3  A    between atoms: C_8  and  C_9 
REMARK    4  A    between atoms: C_12  and  C_13 
REMARK    5  A    between atoms: C_13  and  C_14 
REMARK    6  A    between atoms: C_14  and  N_15 
REMARK    7  A    between atoms: C_14  and  C_29 
REMARK       I    between atoms: N_15  and  C_16 
REMARK    8  A    between atoms: C_16  and  C_17 
REMARK    9  A    between atoms: C_21  and  O_22 
REMARK   10  A    between atoms: O_22  and  C_23 
REMARK   11  A    between atoms: C_29  and  N_30 
ROOT
HETATM    1  C   UNL     1     -42.227  59.847 -55.653  1.00  0.00     0.114 C 
ENDROOT
BRANCH   1   2
HETATM    2  C   UNL     1     -43.620  60.460 -55.351  1.00  0.00     0.065 C 
BRANCH   2   3
HETATM    3  C   UNL     1     -44.032  60.724 -53.914  1.00  0.00    -0.056 A 
HETATM    4  C   UNL     1     -43.157  61.072 -52.877  1.00  0.00     0.008 A 
HETATM    5  C   UNL     1     -43.641  61.404 -51.603  1.00  0.00     0.014 A 
HETATM    6  C   UNL     1     -45.010  61.377 -51.327  1.00  0.00    -0.006 A 
HETATM    7  C   UNL     1     -45.883  60.965 -52.338  1.00  0.00     0.014 A 
HETATM    8  C   UNL     1     -45.402  60.645 -53.613  1.00  0.00     0.008 A 
BRANCH   6   9
HETATM    9  C   UNL     1     -45.545  61.788 -50.040  1.00  0.00     0.085 A 
HETATM   10  C   UNL     1     -46.101  63.015 -49.743  1.00  0.00     0.130 A 
HETATM   11  N   UNL     1     -46.529  62.921 -48.442  1.00  0.00    -0.315 N 
HETATM   12  C   UNL     1     -46.205  61.646 -48.002  1.00  0.00     0.143 A 
HETATM   13  C   UNL     1     -47.175  63.866 -47.656  1.00  0.00     0.098 A 
HETATM   14  C   UNL     1     -46.528  61.281 -46.644  1.00  0.00     0.017 A 
HETATM   15  N   UNL     1     -45.611  60.948 -48.952  1.00  0.00    -0.228 NA
HETATM   16  C   UNL     1     -47.156  62.221 -45.892  1.00  0.00     0.015 A 
HETATM   17  C   UNL     1     -47.500  63.544 -46.394  1.00  0.00     0.018 A 
BRANCH  14  18
HETATM   18  C   UNL     1     -46.170  59.893 -46.119  1.00  0.00     0.150 C 
HETATM   19  C   UNL     1     -47.302  59.053 -45.536  1.00  0.00     0.044 C 
BRANCH  18  20
HETATM   20  O   UNL     1     -45.178  60.026 -45.095  1.00  0.00    -0.391 OA
HETATM   21  H   UNL     1     -45.260  60.941 -44.761  1.00  0.00     0.210 HD
ENDBRANCH  18  20
ENDBRANCH  14  18
ENDBRANCH   6   9
ENDBRANCH   2   3
ENDBRANCH   1   2
BRANCH   1  22
HETATM   22  N   UNL     1     -42.211  58.426 -55.257  1.00  0.00    -0.350 N 
HETATM   23  C   UNL     1     -41.492  57.867 -54.230  1.00  0.00     0.252 C 
HETATM   24  O   UNL     1     -40.827  58.557 -53.463  1.00  0.00    -0.268 OA
HETATM   25  H   UNL     1     -42.923  57.844 -55.691  1.00  0.00     0.163 HD
BRANCH  23  26
HETATM   26  C   UNL     1     -41.480  56.377 -54.132  1.00  0.00     0.033 A 
HETATM   27  C   UNL     1     -41.656  55.795 -52.874  1.00  0.00     0.043 A 
HETATM   28  C   UNL     1     -41.529  54.411 -52.715  1.00  0.00     0.068 A 
HETATM   29 CL   UNL     1     -41.726  53.763 -51.125  1.00  0.00    -0.081 Cl
HETATM   30  C   UNL     1     -41.212  53.587 -53.806  1.00  0.00     0.091 A 
HETATM   31  C   UNL     1     -41.078  54.168 -55.068  1.00  0.00     0.039 A 
HETATM   32  C   UNL     1     -41.198  55.555 -55.231  1.00  0.00     0.020 A 
BRANCH  30  33
HETATM   33  O   UNL     1     -41.065  52.250 -53.555  1.00  0.00    -0.345 OA
BRANCH  33  34
HETATM   34  C   UNL     1     -39.752  51.676 -53.531  1.00  0.00     0.121 C 
HETATM   35  C   UNL     1     -39.286  51.430 -52.096  1.00  0.00     0.040 C 
HETATM   36  C   UNL     1     -39.848  50.344 -54.273  1.00  0.00     0.040 C 
ENDBRANCH  33  34
ENDBRANCH  30  33
ENDBRANCH  23  26
ENDBRANCH   1  22
BRANCH   1  37
HETATM   37  C   UNL     1     -41.816  60.154 -57.121  1.00  0.00     0.254 C 
BRANCH  37  38
HETATM   38  N   UNL     1     -41.543  61.603 -57.317  1.00  0.00    -0.077 N 
HETATM   39  H   UNL     1     -42.357  62.139 -57.632  1.00  0.00     0.274 HD
HETATM   40  H   UNL     1     -41.268  62.020 -56.400  1.00  0.00     0.274 HD
HETATM   41  H   UNL     1     -40.760  61.780 -57.956  1.00  0.00     0.274 HD
ENDBRANCH  37  38
ENDBRANCH   1  37
TORSDOF 11
ENDMDL
