MODEL 1
REMARK VINA RESULT:      -8.3      0.000      0.000
REMARK  3 active torsions:
REMARK  status: ('A' for Active; 'I' for Inactive)
REMARK    1  A    between atoms: O_2  and  C_3 
REMARK    2  A    between atoms: C_9  and  C_10 
REMARK       I    between atoms: C_10  and  N_11 
REMARK    3  A    between atoms: N_11  and  C_12 
ROOT
HETATM    1  C   UNL     1     -39.840  51.654 -51.493  1.00  0.00     0.068 A 
HETATM    2  C   UNL     1     -39.910  52.006 -52.844  1.00  0.00     0.044 A 
HETATM    3  C   UNL     1     -40.427  53.248 -53.235  1.00  0.00    -0.043 A 
HETATM    4  C   UNL     1     -40.907  54.138 -52.248  1.00  0.00    -0.001 A 
HETATM    5  C   UNL     1     -41.415  55.415 -52.721  1.00  0.00     0.069 A 
HETATM    6  C   UNL     1     -41.264  55.884 -54.007  1.00  0.00     0.007 A 
HETATM    7  C   UNL     1     -41.874  57.162 -54.023  1.00  0.00     0.153 A 
HETATM    8  N   UNL     1     -42.404  57.453 -52.809  1.00  0.00    -0.168 NA
HETATM    9  N   UNL     1     -42.108  56.375 -52.053  1.00  0.00    -0.276 N 
HETATM   10  H   UNL     1     -42.415  56.366 -51.086  1.00  0.00     0.189 HD
HETATM   11  C   UNL     1     -40.528  55.104 -55.039  1.00  0.00     0.048 C 
HETATM   12  C   UNL     1     -40.559  53.590 -54.716  1.00  0.00     0.044 C 
HETATM   13  C   UNL     1     -40.843  53.783 -50.901  1.00  0.00     0.017 A 
HETATM   14  C   UNL     1     -40.308  52.545 -50.525  1.00  0.00     0.037 A 
ENDROOT
BRANCH   7  15
HETATM   15  C   UNL     1     -41.953  58.121 -55.144  1.00  0.00     0.277 C 
HETATM   16  N   UNL     1     -42.562  57.558 -56.249  1.00  0.00    -0.322 N 
HETATM   17  H   UNL     1     -42.835  56.589 -56.100  1.00  0.00     0.169 HD
HETATM   18  O   UNL     1     -41.523  59.266 -55.051  1.00  0.00    -0.266 OA
BRANCH  16  19
HETATM   19  C   UNL     1     -42.853  58.150 -57.489  1.00  0.00     0.037 A 
HETATM   20  C   UNL     1     -41.968  58.174 -58.566  1.00  0.00     0.071 A 
HETATM   21  C   UNL     1     -42.345  58.796 -59.755  1.00  0.00     0.118 A 
HETATM   22  F   UNL     1     -41.489  58.818 -60.785  1.00  0.00    -0.206 F 
HETATM   23  C   UNL     1     -43.591  59.395 -59.894  1.00  0.00     0.042 A 
HETATM   24  C   UNL     1     -44.482  59.373 -58.826  1.00  0.00     0.005 A 
HETATM   25  C   UNL     1     -44.113  58.753 -57.628  1.00  0.00     0.029 A 
ENDBRANCH  16  19
ENDBRANCH   7  15
BRANCH   1  26
HETATM   26  O   UNL     1     -39.302  50.418 -51.254  1.00  0.00    -0.356 OA
HETATM   27  C   UNL     1     -39.547  49.409 -52.225  1.00  0.00     0.210 C 
ENDBRANCH   1  26
TORSDOF 3
ENDMDL
MODEL 2
REMARK VINA RESULT:      -8.1      3.755      4.813
REMARK  3 active torsions:
REMARK  status: ('A' for Active; 'I' for Inactive)
REMARK    1  A    between atoms: O_2  and  C_3 
REMARK    2  A    between atoms: C_9  and  C_10 
REMARK       I    between atoms: C_10  and  N_11 
REMARK    3  A    between atoms: N_11  and  C_12 
ROOT
HETATM    1  C   UNL     1     -39.691  50.830 -52.634  1.00  0.00     0.068 A 
HETATM    2  C   UNL     1     -39.875  51.886 -51.738  1.00  0.00     0.044 A 
HETATM    3  C   UNL     1     -40.293  53.145 -52.189  1.00  0.00    -0.043 A 
HETATM    4  C   UNL     1     -40.501  53.349 -53.572  1.00  0.00    -0.001 A 
HETATM    5  C   UNL     1     -40.949  54.673 -53.970  1.00  0.00     0.069 A 
HETATM    6  C   UNL     1     -41.376  55.646 -53.094  1.00  0.00     0.007 A 
HETATM    7  C   UNL     1     -41.743  56.751 -53.899  1.00  0.00     0.153 A 
HETATM    8  N   UNL     1     -41.523  56.482 -55.209  1.00  0.00    -0.168 NA
HETATM    9  N   UNL     1     -41.042  55.221 -55.211  1.00  0.00    -0.276 N 
HETATM   10  H   UNL     1     -40.798  54.800 -56.100  1.00  0.00     0.189 HD
HETATM   11  C   UNL     1     -41.434  55.401 -51.627  1.00  0.00     0.048 C 
HETATM   12  C   UNL     1     -40.424  54.305 -51.208  1.00  0.00     0.044 C 
HETATM   13  C   UNL     1     -40.311  52.296 -54.467  1.00  0.00     0.017 A 
HETATM   14  C   UNL     1     -39.910  51.039 -53.997  1.00  0.00     0.037 A 
ENDROOT
BRANCH   7  15
HETATM   15  C   UNL     1     -42.313  58.044 -53.467  1.00  0.00     0.277 C 
HETATM   16  N   UNL     1     -43.605  57.897 -53.000  1.00  0.00    -0.322 N 
HETATM   17  H   UNL     1     -43.936  56.935 -53.047  1.00  0.00     0.169 HD
HETATM   18  O   UNL     1     -41.674  59.089 -53.528  1.00  0.00    -0.266 OA
BRANCH  16  19
HETATM   19  C   UNL     1     -44.465  58.873 -52.472  1.00  0.00     0.037 A 
HETATM   20  C   UNL     1     -44.631  59.108 -51.107  1.00  0.00     0.071 A 
HETATM   21  C   UNL     1     -45.517  60.094 -50.679  1.00  0.00     0.118 A 
HETATM   22  F   UNL     1     -45.674  60.314 -49.367  1.00  0.00    -0.206 F 
HETATM   23  C   UNL     1     -46.243  60.856 -51.586  1.00  0.00     0.042 A 
HETATM   24  C   UNL     1     -46.083  60.631 -52.950  1.00  0.00     0.005 A 
HETATM   25  C   UNL     1     -45.197  59.643 -53.389  1.00  0.00     0.029 A 
ENDBRANCH  16  19
ENDBRANCH   7  15
BRANCH   1  26
HETATM   26  O   UNL     1     -39.295  49.654 -52.056  1.00  0.00    -0.356 OA
HETATM   27  C   UNL     1     -39.478  49.533 -50.651  1.00  0.00     0.210 C 
ENDBRANCH   1  26
TORSDOF 3
ENDMDL
MODEL 3
REMARK VINA RESULT:      -8.1      4.418      8.673
REMARK  3 active torsions:
REMARK  status: ('A' for Active; 'I' for Inactive)
REMARK    1  A    between atoms: O_2  and  C_3 
REMARK    2  A    between atoms: C_9  and  C_10 
REMARK       I    between atoms: C_10  and  N_11 
REMARK    3  A    between atoms: N_11  and  C_12 
ROOT
HETATM    1  C   UNL     1     -43.559  61.989 -52.138  1.00  0.00     0.068 A 
HETATM    2  C   UNL     1     -43.685  60.926 -53.036  1.00  0.00     0.044 A 
HETATM    3  C   UNL     1     -43.204  59.651 -52.711  1.00  0.00    -0.043 A 
HETATM    4  C   UNL     1     -42.559  59.453 -51.469  1.00  0.00    -0.001 A 
HETATM    5  C   UNL     1     -42.099  58.103 -51.188  1.00  0.00     0.069 A 
HETATM    6  C   UNL     1     -42.431  56.996 -51.937  1.00  0.00     0.007 A 
HETATM    7  C   UNL     1     -41.800  55.900 -51.301  1.00  0.00     0.153 A 
HETATM    8  N   UNL     1     -41.086  56.317 -50.226  1.00  0.00    -0.168 NA
HETATM    9  N   UNL     1     -41.290  57.651 -50.193  1.00  0.00    -0.276 N 
HETATM   10  H   UNL     1     -40.841  58.188 -49.459  1.00  0.00     0.189 HD
HETATM   11  C   UNL     1     -43.332  57.096 -53.117  1.00  0.00     0.048 C 
HETATM   12  C   UNL     1     -43.289  58.518 -53.728  1.00  0.00     0.044 C 
HETATM   13  C   UNL     1     -42.428  60.515 -50.575  1.00  0.00     0.017 A 
HETATM   14  C   UNL     1     -42.929  61.779 -50.909  1.00  0.00     0.037 A 
ENDROOT
BRANCH   7  15
HETATM   15  C   UNL     1     -41.868  54.470 -51.668  1.00  0.00     0.277 C 
HETATM   16  N   UNL     1     -40.614  53.955 -51.932  1.00  0.00    -0.322 N 
HETATM   17  H   UNL     1     -39.874  54.647 -51.839  1.00  0.00     0.169 HD
HETATM   18  O   UNL     1     -42.932  53.860 -51.710  1.00  0.00    -0.266 OA
BRANCH  16  19
HETATM   19  C   UNL     1     -40.259  52.640 -52.276  1.00  0.00     0.037 A 
HETATM   20  C   UNL     1     -39.771  51.703 -51.366  1.00  0.00     0.071 A 
HETATM   21  C   UNL     1     -39.436  50.424 -51.806  1.00  0.00     0.118 A 
HETATM   22  F   UNL     1     -38.965  49.529 -50.928  1.00  0.00    -0.206 F 
HETATM   23  C   UNL     1     -39.578  50.057 -53.138  1.00  0.00     0.042 A 
HETATM   24  C   UNL     1     -40.066  50.985 -54.053  1.00  0.00     0.005 A 
HETATM   25  C   UNL     1     -40.405  52.272 -53.622  1.00  0.00     0.029 A 
ENDBRANCH  16  19
ENDBRANCH   7  15
BRANCH   1  26
HETATM   26  O   UNL     1     -44.084  63.173 -52.579  1.00  0.00    -0.356 OA
HETATM   27  C   UNL     1     -43.284  64.336 -52.410  1.00  0.00     0.210 C 
ENDBRANCH   1  26
TORSDOF 3
ENDMDL
MODEL 4
REMARK VINA RESULT:      -8.1      4.451      8.392
REMARK  3 active torsions:
REMARK  status: ('A' for Active; 'I' for Inactive)
REMARK    1  A    between atoms: O_2  and  C_3 
REMARK    2  A    between atoms: C_9  and  C_10 
REMARK       I    between atoms: C_10  and  N_11 
REMARK    3  A    between atoms: N_11  and  C_12 
ROOT
HETATM    1  C   UNL     1     -44.143  61.287 -50.389  1.00  0.00     0.068 A 
HETATM    2  C   UNL     1     -44.772  60.043 -50.496  1.00  0.00     0.044 A 
HETATM    3  C   UNL     1     -44.132  58.968 -51.126  1.00  0.00    -0.043 A 
HETATM    4  C   UNL     1     -42.847  59.160 -51.683  1.00  0.00    -0.001 A 
HETATM    5  C   UNL     1     -42.234  58.000 -52.308  1.00  0.00     0.069 A 
HETATM    6  C   UNL     1     -42.717  56.715 -52.206  1.00  0.00     0.007 A 
HETATM    7  C   UNL     1     -41.809  55.906 -52.932  1.00  0.00     0.153 A 
HETATM    8  N   UNL     1     -40.829  56.663 -53.482  1.00  0.00    -0.168 NA
HETATM    9  N   UNL     1     -41.121  57.919 -53.085  1.00  0.00    -0.276 N 
HETATM   10  H   UNL     1     -40.512  58.673 -53.386  1.00  0.00     0.189 HD
HETATM   11  C   UNL     1     -43.931  56.401 -51.405  1.00  0.00     0.048 C 
HETATM   12  C   UNL     1     -44.857  57.637 -51.294  1.00  0.00     0.044 C 
HETATM   13  C   UNL     1     -42.223  60.403 -51.582  1.00  0.00     0.017 A 
HETATM   14  C   UNL     1     -42.870  61.463 -50.933  1.00  0.00     0.037 A 
ENDROOT
BRANCH   7  15
HETATM   15  C   UNL     1     -41.833  54.438 -53.103  1.00  0.00     0.277 C 
HETATM   16  N   UNL     1     -40.604  53.876 -52.817  1.00  0.00    -0.322 N 
HETATM   17  H   UNL     1     -39.905  54.566 -52.552  1.00  0.00     0.169 HD
HETATM   18  O   UNL     1     -42.846  53.840 -53.451  1.00  0.00    -0.266 OA
BRANCH  16  19
HETATM   19  C   UNL     1     -40.234  52.521 -52.827  1.00  0.00     0.037 A 
HETATM   20  C   UNL     1     -40.186  51.737 -53.979  1.00  0.00     0.071 A 
HETATM   21  C   UNL     1     -39.816  50.397 -53.887  1.00  0.00     0.118 A 
HETATM   22  F   UNL     1     -39.774  49.647 -54.996  1.00  0.00    -0.206 F 
HETATM   23  C   UNL     1     -39.489  49.819 -52.666  1.00  0.00     0.042 A 
HETATM   24  C   UNL     1     -39.531  50.595 -51.512  1.00  0.00     0.005 A 
HETATM   25  C   UNL     1     -39.903  51.940 -51.593  1.00  0.00     0.029 A 
ENDBRANCH  16  19
ENDBRANCH   7  15
BRANCH   1  26
HETATM   26  O   UNL     1     -44.877  62.242 -49.738  1.00  0.00    -0.356 OA
HETATM   27  C   UNL     1     -46.266  62.301 -50.035  1.00  0.00     0.210 C 
ENDBRANCH   1  26
TORSDOF 3
ENDMDL
MODEL 5
REMARK VINA RESULT:      -8.0      5.098      6.549
REMARK  3 active torsions:
REMARK  status: ('A' for Active; 'I' for Inactive)
REMARK    1  A    between atoms: O_2  and  C_3 
REMARK    2  A    between atoms: C_9  and  C_10 
REMARK       I    between atoms: C_10  and  N_11 
REMARK    3  A    between atoms: N_11  and  C_12 
ROOT
HETATM    1  C   UNL     1     -40.711  52.911 -54.190  1.00  0.00     0.068 A 
HETATM    2  C   UNL     1     -40.808  53.269 -52.843  1.00  0.00     0.044 A 
HETATM    3  C   UNL     1     -40.877  54.616 -52.462  1.00  0.00    -0.043 A 
HETATM    4  C   UNL     1     -40.819  55.618 -53.457  1.00  0.00    -0.001 A 
HETATM    5  C   UNL     1     -40.913  56.993 -52.995  1.00  0.00     0.069 A 
HETATM    6  C   UNL     1     -41.259  57.362 -51.714  1.00  0.00     0.007 A 
HETATM    7  C   UNL     1     -41.257  58.778 -51.709  1.00  0.00     0.153 A 
HETATM    8  N   UNL     1     -40.895  59.259 -52.923  1.00  0.00    -0.168 NA
HETATM    9  N   UNL     1     -40.694  58.153 -53.670  1.00  0.00    -0.276 N 
HETATM   10  H   UNL     1     -40.407  58.269 -54.636  1.00  0.00     0.189 HD
HETATM   11  C   UNL     1     -41.595  56.349 -50.677  1.00  0.00     0.048 C 
HETATM   12  C   UNL     1     -40.915  54.992 -50.985  1.00  0.00     0.044 C 
HETATM   13  C   UNL     1     -40.716  55.260 -54.801  1.00  0.00     0.017 A 
HETATM   14  C   UNL     1     -40.665  53.909 -55.165  1.00  0.00     0.037 A 
ENDROOT
BRANCH   7  15
HETATM   15  C   UNL     1     -41.604  59.686 -50.596  1.00  0.00     0.277 C 
HETATM   16  N   UNL     1     -42.585  60.585 -50.965  1.00  0.00    -0.322 N 
HETATM   17  H   UNL     1     -42.884  60.472 -51.932  1.00  0.00     0.169 HD
HETATM   18  O   UNL     1     -41.065  59.604 -49.498  1.00  0.00    -0.266 OA
BRANCH  16  19
HETATM   19  C   UNL     1     -43.205  61.578 -50.188  1.00  0.00     0.037 A 
HETATM   20  C   UNL     1     -44.190  61.318 -49.236  1.00  0.00     0.071 A 
HETATM   21  C   UNL     1     -44.753  62.372 -48.520  1.00  0.00     0.118 A 
HETATM   22  F   UNL     1     -45.701  62.117 -47.608  1.00  0.00    -0.206 F 
HETATM   23  C   UNL     1     -44.353  63.686 -48.733  1.00  0.00     0.042 A 
HETATM   24  C   UNL     1     -43.370  63.955 -49.680  1.00  0.00     0.005 A 
HETATM   25  C   UNL     1     -42.799  62.903 -50.404  1.00  0.00     0.029 A 
ENDBRANCH  16  19
ENDBRANCH   7  15
BRANCH   1  26
HETATM   26  O   UNL     1     -40.665  51.562 -54.419  1.00  0.00    -0.356 OA
HETATM   27  C   UNL     1     -39.744  50.807 -53.642  1.00  0.00     0.210 C 
ENDBRANCH   1  26
TORSDOF 3
ENDMDL
MODEL 6
REMARK VINA RESULT:      -8.0      4.589      5.895
REMARK  3 active torsions:
REMARK  status: ('A' for Active; 'I' for Inactive)
REMARK    1  A    between atoms: O_2  and  C_3 
REMARK    2  A    between atoms: C_9  and  C_10 
REMARK       I    between atoms: C_10  and  N_11 
REMARK    3  A    between atoms: N_11  and  C_12 
ROOT
HETATM    1  C   UNL     1     -40.115  51.969 -53.213  1.00  0.00     0.068 A 
HETATM    2  C   UNL     1     -40.218  52.773 -52.075  1.00  0.00     0.044 A 
HETATM    3  C   UNL     1     -41.088  53.871 -52.049  1.00  0.00    -0.043 A 
HETATM    4  C   UNL     1     -41.846  54.179 -53.201  1.00  0.00    -0.001 A 
HETATM    5  C   UNL     1     -42.739  55.321 -53.100  1.00  0.00     0.069 A 
HETATM    6  C   UNL     1     -43.044  55.969 -51.924  1.00  0.00     0.007 A 
HETATM    7  C   UNL     1     -43.962  56.989 -52.276  1.00  0.00     0.153 A 
HETATM    8  N   UNL     1     -44.188  56.988 -53.612  1.00  0.00    -0.168 NA
HETATM    9  N   UNL     1     -43.432  55.970 -54.074  1.00  0.00    -0.276 N 
HETATM   10  H   UNL     1     -43.439  55.778 -55.070  1.00  0.00     0.189 HD
HETATM   11  C   UNL     1     -42.480  55.523 -50.621  1.00  0.00     0.048 C 
HETATM   12  C   UNL     1     -41.138  54.778 -50.824  1.00  0.00     0.044 C 
HETATM   13  C   UNL     1     -41.738  53.380 -54.339  1.00  0.00     0.017 A 
HETATM   14  C   UNL     1     -40.877  52.276 -54.343  1.00  0.00     0.037 A 
ENDROOT
BRANCH   7  15
HETATM   15  C   UNL     1     -44.644  57.949 -51.383  1.00  0.00     0.277 C 
HETATM   16  N   UNL     1     -44.188  59.237 -51.582  1.00  0.00    -0.322 N 
HETATM   17  H   UNL     1     -43.462  59.295 -52.293  1.00  0.00     0.169 HD
HETATM   18  O   UNL     1     -45.507  57.594 -50.586  1.00  0.00    -0.266 OA
BRANCH  16  19
HETATM   19  C   UNL     1     -44.608  60.424 -50.960  1.00  0.00     0.037 A 
HETATM   20  C   UNL     1     -45.865  60.998 -51.148  1.00  0.00     0.071 A 
HETATM   21  C   UNL     1     -46.186  62.185 -50.493  1.00  0.00     0.118 A 
HETATM   22  F   UNL     1     -47.394  62.733 -50.679  1.00  0.00    -0.206 F 
HETATM   23  C   UNL     1     -45.279  62.814 -49.650  1.00  0.00     0.042 A 
HETATM   24  C   UNL     1     -44.023  62.248 -49.454  1.00  0.00     0.005 A 
HETATM   25  C   UNL     1     -43.690  61.057 -50.108  1.00  0.00     0.029 A 
ENDBRANCH  16  19
ENDBRANCH   7  15
BRANCH   1  26
HETATM   26  O   UNL     1     -39.239  50.924 -53.096  1.00  0.00    -0.356 OA
HETATM   27  C   UNL     1     -39.477  49.787 -53.915  1.00  0.00     0.210 C 
ENDBRANCH   1  26
TORSDOF 3
ENDMDL
MODEL 7
REMARK VINA RESULT:      -7.9      3.413      8.543
REMARK  3 active torsions:
REMARK  status: ('A' for Active; 'I' for Inactive)
REMARK    1  A    between atoms: O_2  and  C_3 
REMARK    2  A    between atoms: C_9  and  C_10 
REMARK       I    between atoms: C_10  and  N_11 
REMARK    3  A    between atoms: N_11  and  C_12 
ROOT
HETATM    1  C   UNL     1     -43.600  59.404 -58.303  1.00  0.00     0.068 A 
HETATM    2  C   UNL     1     -43.542  58.007 -58.316  1.00  0.00     0.044 A 
HETATM    3  C   UNL     1     -43.031  57.300 -57.220  1.00  0.00    -0.043 A 
HETATM    4  C   UNL     1     -42.544  58.017 -56.103  1.00  0.00    -0.001 A 
HETATM    5  C   UNL     1     -42.042  57.222 -54.995  1.00  0.00     0.069 A 
HETATM    6  C   UNL     1     -42.205  55.860 -54.878  1.00  0.00     0.007 A 
HETATM    7  C   UNL     1     -41.597  55.505 -53.649  1.00  0.00     0.153 A 
HETATM    8  N   UNL     1     -41.057  56.596 -53.051  1.00  0.00    -0.168 NA
HETATM    9  N   UNL     1     -41.345  57.610 -53.894  1.00  0.00    -0.276 N 
HETATM   10  H   UNL     1     -41.029  58.543 -53.650  1.00  0.00     0.189 HD
HETATM   11  C   UNL     1     -42.949  55.074 -55.900  1.00  0.00     0.048 C 
HETATM   12  C   UNL     1     -42.913  55.781 -57.277  1.00  0.00     0.044 C 
HETATM   13  C   UNL     1     -42.596  59.411 -56.093  1.00  0.00     0.017 A 
HETATM   14  C   UNL     1     -43.126  60.101 -57.190  1.00  0.00     0.037 A 
ENDROOT
BRANCH   7  15
HETATM   15  C   UNL     1     -41.529  54.171 -53.017  1.00  0.00     0.277 C 
HETATM   16  N   UNL     1     -40.605  53.360 -53.646  1.00  0.00    -0.322 N 
HETATM   17  H   UNL     1     -40.148  53.816 -54.433  1.00  0.00     0.169 HD
HETATM   18  O   UNL     1     -42.222  53.875 -52.049  1.00  0.00    -0.266 OA
BRANCH  16  19
HETATM   19  C   UNL     1     -40.227  52.046 -53.325  1.00  0.00     0.037 A 
HETATM   20  C   UNL     1     -39.825  51.641 -52.052  1.00  0.00     0.071 A 
HETATM   21  C   UNL     1     -39.458  50.315 -51.833  1.00  0.00     0.118 A 
HETATM   22  F   UNL     1     -39.070  49.933 -50.609  1.00  0.00    -0.206 F 
HETATM   23  C   UNL     1     -39.485  49.379 -52.859  1.00  0.00     0.042 A 
HETATM   24  C   UNL     1     -39.887  49.773 -54.132  1.00  0.00     0.005 A 
HETATM   25  C   UNL     1     -40.256  51.102 -54.362  1.00  0.00     0.029 A 
ENDBRANCH  16  19
ENDBRANCH   7  15
BRANCH   1  26
HETATM   26  O   UNL     1     -44.135  59.962 -59.433  1.00  0.00    -0.356 OA
HETATM   27  C   UNL     1     -43.234  60.271 -60.488  1.00  0.00     0.210 C 
ENDBRANCH   1  26
TORSDOF 3
ENDMDL
MODEL 8
REMARK VINA RESULT:      -7.9      4.085      5.246
REMARK  3 active torsions:
REMARK  status: ('A' for Active; 'I' for Inactive)
REMARK    1  A    between atoms: O_2  and  C_3 
REMARK    2  A    between atoms: C_9  and  C_10 
REMARK       I    between atoms: C_10  and  N_11 
REMARK    3  A    between atoms: N_11  and  C_12 
ROOT
HETATM    1  C   UNL     1     -40.165  51.644 -53.709  1.00  0.00     0.068 A 
HETATM    2  C   UNL     1     -41.051  52.579 -54.252  1.00  0.00     0.044 A 
HETATM    3  C   UNL     1     -41.366  53.755 -53.559  1.00  0.00    -0.043 A 
HETATM    4  C   UNL     1     -40.799  53.978 -52.283  1.00  0.00    -0.001 A 
HETATM    5  C   UNL     1     -41.154  55.224 -51.627  1.00  0.00     0.069 A 
HETATM    6  C   UNL     1     -41.815  56.266 -52.239  1.00  0.00     0.007 A 
HETATM    7  C   UNL     1     -41.928  57.279 -51.257  1.00  0.00     0.153 A 
HETATM    8  N   UNL     1     -41.389  56.868 -50.083  1.00  0.00    -0.168 NA
HETATM    9  N   UNL     1     -40.934  55.624 -50.346  1.00  0.00    -0.276 N 
HETATM   10  H   UNL     1     -40.485  55.108 -49.598  1.00  0.00     0.189 HD
HETATM   11  C   UNL     1     -42.211  56.200 -53.673  1.00  0.00     0.048 C 
HETATM   12  C   UNL     1     -42.385  54.732 -54.134  1.00  0.00     0.044 C 
HETATM   13  C   UNL     1     -39.920  53.041 -51.739  1.00  0.00     0.017 A 
HETATM   14  C   UNL     1     -39.603  51.879 -52.453  1.00  0.00     0.037 A 
ENDROOT
BRANCH   7  15
HETATM   15  C   UNL     1     -42.513  58.628 -51.402  1.00  0.00     0.277 C 
HETATM   16  N   UNL     1     -43.826  58.659 -50.975  1.00  0.00    -0.322 N 
HETATM   17  H   UNL     1     -44.159  57.753 -50.651  1.00  0.00     0.169 HD
HETATM   18  O   UNL     1     -41.867  59.572 -51.844  1.00  0.00    -0.266 OA
BRANCH  16  19
HETATM   19  C   UNL     1     -44.707  59.751 -50.921  1.00  0.00     0.037 A 
HETATM   20  C   UNL     1     -45.802  59.911 -51.770  1.00  0.00     0.071 A 
HETATM   21  C   UNL     1     -46.614  61.036 -51.645  1.00  0.00     0.118 A 
HETATM   22  F   UNL     1     -47.662  61.186 -52.466  1.00  0.00    -0.206 F 
HETATM   23  C   UNL     1     -46.360  62.008 -50.686  1.00  0.00     0.042 A 
HETATM   24  C   UNL     1     -45.271  61.856 -49.832  1.00  0.00     0.005 A 
HETATM   25  C   UNL     1     -44.449  60.731 -49.950  1.00  0.00     0.029 A 
ENDBRANCH  16  19
ENDBRANCH   7  15
BRANCH   1  26
HETATM   26  O   UNL     1     -39.938  50.549 -54.499  1.00  0.00    -0.356 OA
HETATM   27  C   UNL     1     -39.367  49.408 -53.871  1.00  0.00     0.210 C 
ENDBRANCH   1  26
TORSDOF 3
ENDMDL
MODEL 9
REMARK VINA RESULT:      -7.8      3.286      4.539
REMARK  3 active torsions:
REMARK  status: ('A' for Active; 'I' for Inactive)
REMARK    1  A    between atoms: O_2  and  C_3 
REMARK    2  A    between atoms: C_9  and  C_10 
REMARK       I    between atoms: C_10  and  N_11 
REMARK    3  A    between atoms: N_11  and  C_12 
ROOT
HETATM    1  C   UNL     1     -39.614  51.222 -52.408  1.00  0.00     0.068 A 
HETATM    2  C   UNL     1     -40.005  52.275 -51.576  1.00  0.00     0.044 A 
HETATM    3  C   UNL     1     -40.520  53.461 -52.115  1.00  0.00    -0.043 A 
HETATM    4  C   UNL     1     -40.615  53.597 -53.519  1.00  0.00    -0.001 A 
HETATM    5  C   UNL     1     -41.173  54.846 -54.010  1.00  0.00     0.069 A 
HETATM    6  C   UNL     1     -41.793  55.786 -53.218  1.00  0.00     0.007 A 
HETATM    7  C   UNL     1     -42.206  56.816 -54.098  1.00  0.00     0.153 A 
HETATM    8  N   UNL     1     -41.830  56.537 -55.370  1.00  0.00    -0.168 NA
HETATM    9  N   UNL     1     -41.208  55.342 -55.276  1.00  0.00    -0.276 N 
HETATM   10  H   UNL     1     -40.831  54.928 -56.121  1.00  0.00     0.189 HD
HETATM   11  C   UNL     1     -41.965  55.580 -51.755  1.00  0.00     0.048 C 
HETATM   12  C   UNL     1     -40.880  54.625 -51.198  1.00  0.00     0.044 C 
HETATM   13  C   UNL     1     -40.218  52.549 -54.349  1.00  0.00     0.017 A 
HETATM   14  C   UNL     1     -39.721  51.363 -53.793  1.00  0.00     0.037 A 
ENDROOT
BRANCH   7  15
HETATM   15  C   UNL     1     -42.962  58.044 -53.774  1.00  0.00     0.277 C 
HETATM   16  N   UNL     1     -42.192  58.937 -53.056  1.00  0.00    -0.322 N 
HETATM   17  H   UNL     1     -41.253  58.590 -52.870  1.00  0.00     0.169 HD
HETATM   18  O   UNL     1     -44.125  58.203 -54.129  1.00  0.00    -0.266 OA
BRANCH  16  19
HETATM   19  C   UNL     1     -42.533  60.219 -52.595  1.00  0.00     0.037 A 
HETATM   20  C   UNL     1     -42.805  61.300 -53.432  1.00  0.00     0.071 A 
HETATM   21  C   UNL     1     -43.125  62.538 -52.879  1.00  0.00     0.118 A 
HETATM   22  F   UNL     1     -43.382  63.574 -53.689  1.00  0.00    -0.206 F 
HETATM   23  C   UNL     1     -43.182  62.722 -51.503  1.00  0.00     0.042 A 
HETATM   24  C   UNL     1     -42.915  61.649 -50.660  1.00  0.00     0.005 A 
HETATM   25  C   UNL     1     -42.591  60.402 -51.205  1.00  0.00     0.029 A 
ENDBRANCH  16  19
ENDBRANCH   7  15
BRANCH   1  26
HETATM   26  O   UNL     1     -39.142  50.119 -51.747  1.00  0.00    -0.356 OA
HETATM   27  C   UNL     1     -39.849  49.714 -50.583  1.00  0.00     0.210 C 
ENDBRANCH   1  26
TORSDOF 3
ENDMDL
MODEL 10
REMARK VINA RESULT:      -7.8     15.207     16.909
REMARK  3 active torsions:
REMARK  status: ('A' for Active; 'I' for Inactive)
REMARK    1  A    between atoms: O_2  and  C_3 
REMARK    2  A    between atoms: C_9  and  C_10 
REMARK       I    between atoms: C_10  and  N_11 
REMARK    3  A    between atoms: N_11  and  C_12 
ROOT
HETATM    1  C   UNL     1     -32.582  38.634 -49.426  1.00  0.00     0.068 A 
HETATM    2  C   UNL     1     -33.481  38.024 -50.304  1.00  0.00     0.044 A 
HETATM    3  C   UNL     1     -34.214  38.786 -51.224  1.00  0.00    -0.043 A 
HETATM    4  C   UNL     1     -34.057  40.190 -51.238  1.00  0.00    -0.001 A 
HETATM    5  C   UNL     1     -34.835  40.917 -52.227  1.00  0.00     0.069 A 
HETATM    6  C   UNL     1     -35.528  40.327 -53.260  1.00  0.00     0.007 A 
HETATM    7  C   UNL     1     -36.110  41.392 -53.990  1.00  0.00     0.153 A 
HETATM    8  N   UNL     1     -35.813  42.583 -53.415  1.00  0.00    -0.168 NA
HETATM    9  N   UNL     1     -35.045  42.255 -52.354  1.00  0.00    -0.276 N 
HETATM   10  H   UNL     1     -34.700  43.001 -51.760  1.00  0.00     0.189 HD
HETATM   11  C   UNL     1     -35.518  38.852 -53.461  1.00  0.00     0.048 C 
HETATM   12  C   UNL     1     -35.241  38.112 -52.129  1.00  0.00     0.044 C 
HETATM   13  C   UNL     1     -33.164  40.799 -50.357  1.00  0.00     0.017 A 
HETATM   14  C   UNL     1     -32.426  40.022 -49.456  1.00  0.00     0.037 A 
ENDROOT
BRANCH   7  15
HETATM   15  C   UNL     1     -36.920  41.316 -55.223  1.00  0.00     0.277 C 
HETATM   16  N   UNL     1     -36.124  41.184 -56.344  1.00  0.00    -0.322 N 
HETATM   17  H   UNL     1     -35.130  41.174 -56.125  1.00  0.00     0.169 HD
HETATM   18  O   UNL     1     -38.146  41.361 -55.199  1.00  0.00    -0.266 OA
BRANCH  16  19
HETATM   19  C   UNL     1     -36.512  41.046 -57.687  1.00  0.00     0.037 A 
HETATM   20  C   UNL     1     -36.910  42.112 -58.494  1.00  0.00     0.071 A 
HETATM   21  C   UNL     1     -37.288  41.874 -59.814  1.00  0.00     0.118 A 
HETATM   22  F   UNL     1     -37.672  42.900 -60.584  1.00  0.00    -0.206 F 
HETATM   23  C   UNL     1     -37.276  40.592 -60.349  1.00  0.00     0.042 A 
HETATM   24  C   UNL     1     -36.878  39.523 -59.552  1.00  0.00     0.005 A 
HETATM   25  C   UNL     1     -36.498  39.751 -58.225  1.00  0.00     0.029 A 
ENDBRANCH  16  19
ENDBRANCH   7  15
BRANCH   1  26
HETATM   26  O   UNL     1     -31.924  37.770 -48.593  1.00  0.00    -0.356 OA
HETATM   27  C   UNL     1     -31.633  38.235 -47.281  1.00  0.00     0.210 C 
ENDBRANCH   1  26
TORSDOF 3
ENDMDL
