MODEL 1
REMARK VINA RESULT:      -7.7      0.000      0.000
REMARK  10 active torsions:
REMARK  status: ('A' for Active; 'I' for Inactive)
REMARK       I    between atoms: N_2  and  C_3 
REMARK    1  A    between atoms: N_2  and  C_22 
REMARK    2  A    between atoms: C_3  and  C_4 
REMARK    3  A    between atoms: C_4  and  O_5 
REMARK    4  A    between atoms: O_5  and  C_6 
REMARK    5  A    between atoms: C_6  and  C_7 
REMARK    6  A    between atoms: C_8  and  N_9 
REMARK    7  A    between atoms: N_9  and  C_10 
REMARK    8  A    between atoms: C_10  and  C_11 
REMARK    9  A    between atoms: C_22  and  C_23 
REMARK       I    between atoms: C_23  and  N_24 
REMARK   10  A    between atoms: N_24  and  C_25 
ROOT
HETATM    1  C   UNL     1     -44.242  58.575 -52.131  1.00  0.00     0.281 C 
ENDROOT
BRANCH   1   2
HETATM    2  C   UNL     1     -43.879  57.375 -51.250  1.00  0.00     0.244 C 
HETATM    3  N   UNL     1     -42.543  56.998 -51.168  1.00  0.00    -0.346 N 
HETATM    4  C   UNL     1     -41.434  57.829 -51.615  1.00  0.00     0.153 C 
HETATM    5  O   UNL     1     -44.737  56.778 -50.588  1.00  0.00    -0.271 OA
BRANCH   3   6
HETATM    6  C   UNL     1     -42.201  55.875 -50.286  1.00  0.00     0.228 C 
BRANCH   6   7
HETATM    7  C   UNL     1     -42.148  54.542 -51.044  1.00  0.00     0.240 C 
HETATM    8  N   UNL     1     -40.863  54.205 -51.436  1.00  0.00    -0.326 N 
HETATM    9  H   UNL     1     -40.143  54.895 -51.214  1.00  0.00     0.169 HD
HETATM   10  O   UNL     1     -43.174  53.904 -51.264  1.00  0.00    -0.271 OA
BRANCH   8  11
HETATM   11  C   UNL     1     -40.445  53.071 -52.156  1.00  0.00     0.035 A 
HETATM   12  C   UNL     1     -39.872  51.940 -51.567  1.00  0.00     0.032 A 
HETATM   13  C   UNL     1     -39.482  50.854 -52.356  1.00  0.00     0.044 A 
HETATM   14  C   UNL     1     -39.668  50.900 -53.732  1.00  0.00     0.116 A 
HETATM   15  F   UNL     1     -39.296  49.857 -54.486  1.00  0.00    -0.206 F 
HETATM   16  C   UNL     1     -40.234  52.015 -54.336  1.00  0.00     0.044 A 
HETATM   17  C   UNL     1     -40.618  53.102 -53.548  1.00  0.00     0.032 A 
ENDBRANCH   8  11
ENDBRANCH   6   7
ENDBRANCH   3   6
ENDBRANCH   1   2
BRANCH   1  18
HETATM   18  O   UNL     1     -44.620  58.107 -53.429  1.00  0.00    -0.308 OA
BRANCH  18  19
HETATM   19  C   UNL     1     -43.655  58.172 -54.378  1.00  0.00     0.295 C 
HETATM   20  O   UNL     1     -43.009  59.160 -54.691  1.00  0.00    -0.259 OA
BRANCH  19  21
HETATM   21  C   UNL     1     -43.487  56.836 -55.002  1.00  0.00     0.060 A 
HETATM   22  C   UNL     1     -42.909  56.709 -56.286  1.00  0.00     0.025 A 
HETATM   23  C   UNL     1     -42.804  55.406 -56.806  1.00  0.00     0.024 A 
HETATM   24  C   UNL     1     -43.178  54.281 -56.060  1.00  0.00     0.002 A 
HETATM   25  C   UNL     1     -43.694  54.427 -54.779  1.00  0.00     0.001 A 
HETATM   26  C   UNL     1     -43.854  55.703 -54.250  1.00  0.00     0.019 A 
BRANCH  22  27
HETATM   27  N   UNL     1     -42.605  57.846 -57.055  1.00  0.00    -0.286 NA
HETATM   28  H   UNL     1     -41.591  57.964 -57.132  1.00  0.00     0.128 HD
BRANCH  27  29
HETATM   29  C   UNL     1     -43.275  58.063 -58.338  1.00  0.00     0.157 C 
BRANCH  29  30
HETATM   30  C   UNL     1     -44.767  58.075 -58.280  1.00  0.00     0.065 A 
HETATM   31  O   UNL     1     -45.400  57.117 -59.023  1.00  0.00    -0.326 OA
HETATM   32  C   UNL     1     -46.733  57.283 -58.838  1.00  0.00     0.142 A 
HETATM   33  C   UNL     1     -46.973  58.340 -57.992  1.00  0.00     0.027 A 
HETATM   34  C   UNL     1     -45.704  58.854 -57.631  1.00  0.00     0.036 A 
ENDBRANCH  29  30
ENDBRANCH  27  29
ENDBRANCH  22  27
ENDBRANCH  19  21
ENDBRANCH  18  19
ENDBRANCH   1  18
TORSDOF 10
ENDMDL
MODEL 2
REMARK VINA RESULT:      -7.5      2.822      7.127
REMARK  10 active torsions:
REMARK  status: ('A' for Active; 'I' for Inactive)
REMARK       I    between atoms: N_2  and  C_3 
REMARK    1  A    between atoms: N_2  and  C_22 
REMARK    2  A    between atoms: C_3  and  C_4 
REMARK    3  A    between atoms: C_4  and  O_5 
REMARK    4  A    between atoms: O_5  and  C_6 
REMARK    5  A    between atoms: C_6  and  C_7 
REMARK    6  A    between atoms: C_8  and  N_9 
REMARK    7  A    between atoms: N_9  and  C_10 
REMARK    8  A    between atoms: C_10  and  C_11 
REMARK    9  A    between atoms: C_22  and  C_23 
REMARK       I    between atoms: C_23  and  N_24 
REMARK   10  A    between atoms: N_24  and  C_25 
ROOT
HETATM    1  C   UNL     1     -41.012  59.282 -53.381  1.00  0.00     0.281 C 
ENDROOT
BRANCH   1   2
HETATM    2  C   UNL     1     -42.029  59.487 -54.509  1.00  0.00     0.244 C 
HETATM    3  N   UNL     1     -43.382  59.404 -54.199  1.00  0.00    -0.346 N 
HETATM    4  C   UNL     1     -43.910  59.430 -52.842  1.00  0.00     0.153 C 
HETATM    5  O   UNL     1     -41.668  59.765 -55.659  1.00  0.00    -0.271 OA
BRANCH   3   6
HETATM    6  C   UNL     1     -44.348  59.646 -55.278  1.00  0.00     0.228 C 
BRANCH   6   7
HETATM    7  C   UNL     1     -44.716  58.355 -56.023  1.00  0.00     0.240 C 
HETATM    8  N   UNL     1     -44.234  58.337 -57.322  1.00  0.00    -0.326 N 
HETATM    9  H   UNL     1     -43.748  59.185 -57.620  1.00  0.00     0.169 HD
HETATM   10  O   UNL     1     -45.386  57.484 -55.476  1.00  0.00    -0.271 OA
BRANCH   8  11
HETATM   11  C   UNL     1     -44.391  57.330 -58.291  1.00  0.00     0.035 A 
HETATM   12  C   UNL     1     -43.450  56.326 -58.533  1.00  0.00     0.032 A 
HETATM   13  C   UNL     1     -43.684  55.361 -59.518  1.00  0.00     0.044 A 
HETATM   14  C   UNL     1     -44.859  55.401 -60.257  1.00  0.00     0.116 A 
HETATM   15  F   UNL     1     -45.082  54.475 -61.198  1.00  0.00    -0.206 F 
HETATM   16  C   UNL     1     -45.805  56.392 -60.033  1.00  0.00     0.044 A 
HETATM   17  C   UNL     1     -45.570  57.359 -59.053  1.00  0.00     0.032 A 
ENDBRANCH   8  11
ENDBRANCH   6   7
ENDBRANCH   3   6
ENDBRANCH   1   2
BRANCH   1  18
HETATM   18  O   UNL     1     -40.474  57.959 -53.468  1.00  0.00    -0.308 OA
BRANCH  18  19
HETATM   19  C   UNL     1     -41.089  57.027 -52.700  1.00  0.00     0.295 C 
HETATM   20  O   UNL     1     -41.086  56.974 -51.480  1.00  0.00    -0.259 OA
BRANCH  19  21
HETATM   21  C   UNL     1     -41.786  56.051 -53.574  1.00  0.00     0.060 A 
HETATM   22  C   UNL     1     -43.035  55.507 -53.193  1.00  0.00     0.025 A 
HETATM   23  C   UNL     1     -43.615  54.577 -54.074  1.00  0.00     0.024 A 
HETATM   24  C   UNL     1     -43.028  54.263 -55.307  1.00  0.00     0.002 A 
HETATM   25  C   UNL     1     -41.827  54.850 -55.684  1.00  0.00     0.001 A 
HETATM   26  C   UNL     1     -41.202  55.740 -54.817  1.00  0.00     0.019 A 
BRANCH  22  27
HETATM   27  N   UNL     1     -43.578  55.773 -51.924  1.00  0.00    -0.286 NA
HETATM   28  H   UNL     1     -44.472  56.266 -52.014  1.00  0.00     0.128 HD
BRANCH  27  29
HETATM   29  C   UNL     1     -43.646  54.710 -50.919  1.00  0.00     0.157 C 
BRANCH  29  30
HETATM   30  C   UNL     1     -42.325  54.191 -50.457  1.00  0.00     0.065 A 
HETATM   31  O   UNL     1     -41.958  54.540 -49.187  1.00  0.00    -0.326 OA
HETATM   32  C   UNL     1     -40.748  53.975 -48.949  1.00  0.00     0.142 A 
HETATM   33  C   UNL     1     -40.322  53.271 -50.050  1.00  0.00     0.027 A 
HETATM   34  C   UNL     1     -41.339  53.410 -51.026  1.00  0.00     0.036 A 
ENDBRANCH  29  30
ENDBRANCH  27  29
ENDBRANCH  22  27
ENDBRANCH  19  21
ENDBRANCH  18  19
ENDBRANCH   1  18
TORSDOF 10
ENDMDL
MODEL 3
REMARK VINA RESULT:      -7.5      3.159      8.369
REMARK  10 active torsions:
REMARK  status: ('A' for Active; 'I' for Inactive)
REMARK       I    between atoms: N_2  and  C_3 
REMARK    1  A    between atoms: N_2  and  C_22 
REMARK    2  A    between atoms: C_3  and  C_4 
REMARK    3  A    between atoms: C_4  and  O_5 
REMARK    4  A    between atoms: O_5  and  C_6 
REMARK    5  A    between atoms: C_6  and  C_7 
REMARK    6  A    between atoms: C_8  and  N_9 
REMARK    7  A    between atoms: N_9  and  C_10 
REMARK    8  A    between atoms: C_10  and  C_11 
REMARK    9  A    between atoms: C_22  and  C_23 
REMARK       I    between atoms: C_23  and  N_24 
REMARK   10  A    between atoms: N_24  and  C_25 
ROOT
HETATM    1  C   UNL     1     -42.934  54.399 -54.631  1.00  0.00     0.281 C 
ENDROOT
BRANCH   1   2
HETATM    2  C   UNL     1     -42.985  55.347 -55.834  1.00  0.00     0.244 C 
HETATM    3  N   UNL     1     -42.899  56.715 -55.599  1.00  0.00    -0.346 N 
HETATM    4  C   UNL     1     -42.471  57.299 -54.336  1.00  0.00     0.153 C 
HETATM    5  O   UNL     1     -43.055  54.916 -56.992  1.00  0.00    -0.271 OA
BRANCH   3   6
HETATM    6  C   UNL     1     -42.905  57.612 -56.762  1.00  0.00     0.228 C 
BRANCH   6   7
HETATM    7  C   UNL     1     -44.312  57.787 -57.348  1.00  0.00     0.240 C 
HETATM    8  N   UNL     1     -44.379  57.428 -58.683  1.00  0.00    -0.326 N 
HETATM    9  H   UNL     1     -43.493  57.143 -59.105  1.00  0.00     0.169 HD
HETATM   10  O   UNL     1     -45.230  58.225 -56.658  1.00  0.00    -0.271 OA
BRANCH   8  11
HETATM   11  C   UNL     1     -45.495  57.472 -59.539  1.00  0.00     0.035 A 
HETATM   12  C   UNL     1     -46.071  58.655 -60.011  1.00  0.00     0.032 A 
HETATM   13  C   UNL     1     -47.182  58.611 -60.859  1.00  0.00     0.044 A 
HETATM   14  C   UNL     1     -47.713  57.384 -61.235  1.00  0.00     0.116 A 
HETATM   15  F   UNL     1     -48.776  57.343 -62.049  1.00  0.00    -0.206 F 
HETATM   16  C   UNL     1     -47.157  56.197 -60.775  1.00  0.00     0.044 A 
HETATM   17  C   UNL     1     -46.051  56.242 -59.924  1.00  0.00     0.032 A 
ENDBRANCH   8  11
ENDBRANCH   6   7
ENDBRANCH   3   6
ENDBRANCH   1   2
BRANCH   1  18
HETATM   18  O   UNL     1     -41.861  53.469 -54.813  1.00  0.00    -0.308 OA
BRANCH  18  19
HETATM   19  C   UNL     1     -40.804  53.625 -53.980  1.00  0.00     0.295 C 
HETATM   20  O   UNL     1     -40.289  54.682 -53.650  1.00  0.00    -0.259 OA
BRANCH  19  21
HETATM   21  C   UNL     1     -40.346  52.294 -53.510  1.00  0.00     0.060 A 
HETATM   22  C   UNL     1     -39.938  52.104 -52.170  1.00  0.00     0.025 A 
HETATM   23  C   UNL     1     -39.503  50.814 -51.818  1.00  0.00     0.024 A 
HETATM   24  C   UNL     1     -39.548  49.747 -52.724  1.00  0.00     0.002 A 
HETATM   25  C   UNL     1     -40.003  49.945 -54.021  1.00  0.00     0.001 A 
HETATM   26  C   UNL     1     -40.398  51.218 -54.418  1.00  0.00     0.019 A 
BRANCH  22  27
HETATM   27  N   UNL     1     -39.828  53.196 -51.290  1.00  0.00    -0.286 NA
HETATM   28  H   UNL     1     -39.658  54.060 -51.813  1.00  0.00     0.128 HD
BRANCH  27  29
HETATM   29  C   UNL     1     -40.823  53.388 -50.234  1.00  0.00     0.157 C 
BRANCH  29  30
HETATM   30  C   UNL     1     -41.867  54.415 -50.527  1.00  0.00     0.065 A 
HETATM   31  O   UNL     1     -41.450  55.716 -50.487  1.00  0.00    -0.326 OA
HETATM   32  C   UNL     1     -42.525  56.490 -50.783  1.00  0.00     0.142 A 
HETATM   33  C   UNL     1     -43.634  55.708 -51.006  1.00  0.00     0.027 A 
HETATM   34  C   UNL     1     -43.211  54.367 -50.840  1.00  0.00     0.036 A 
ENDBRANCH  29  30
ENDBRANCH  27  29
ENDBRANCH  22  27
ENDBRANCH  19  21
ENDBRANCH  18  19
ENDBRANCH   1  18
TORSDOF 10
ENDMDL
MODEL 4
REMARK VINA RESULT:      -7.5      1.449      1.963
REMARK  10 active torsions:
REMARK  status: ('A' for Active; 'I' for Inactive)
REMARK       I    between atoms: N_2  and  C_3 
REMARK    1  A    between atoms: N_2  and  C_22 
REMARK    2  A    between atoms: C_3  and  C_4 
REMARK    3  A    between atoms: C_4  and  O_5 
REMARK    4  A    between atoms: O_5  and  C_6 
REMARK    5  A    between atoms: C_6  and  C_7 
REMARK    6  A    between atoms: C_8  and  N_9 
REMARK    7  A    between atoms: N_9  and  C_10 
REMARK    8  A    between atoms: C_10  and  C_11 
REMARK    9  A    between atoms: C_22  and  C_23 
REMARK       I    between atoms: C_23  and  N_24 
REMARK   10  A    between atoms: N_24  and  C_25 
ROOT
HETATM    1  C   UNL     1     -41.900  59.512 -53.844  1.00  0.00     0.281 C 
ENDROOT
BRANCH   1   2
HETATM    2  C   UNL     1     -41.388  58.502 -52.812  1.00  0.00     0.244 C 
HETATM    3  N   UNL     1     -42.233  58.141 -51.768  1.00  0.00    -0.346 N 
HETATM    4  C   UNL     1     -43.662  58.420 -51.743  1.00  0.00     0.153 C 
HETATM    5  O   UNL     1     -40.272  57.980 -52.919  1.00  0.00    -0.271 OA
BRANCH   3   6
HETATM    6  C   UNL     1     -41.749  57.140 -50.810  1.00  0.00     0.228 C 
BRANCH   6   7
HETATM    7  C   UNL     1     -41.874  55.711 -51.357  1.00  0.00     0.240 C 
HETATM    8  N   UNL     1     -40.662  55.205 -51.798  1.00  0.00    -0.326 N 
HETATM    9  H   UNL     1     -39.872  55.851 -51.745  1.00  0.00     0.169 HD
HETATM   10  O   UNL     1     -42.963  55.144 -51.391  1.00  0.00    -0.271 OA
BRANCH   8  11
HETATM   11  C   UNL     1     -40.404  53.945 -52.368  1.00  0.00     0.035 A 
HETATM   12  C   UNL     1     -40.012  52.822 -51.635  1.00  0.00     0.032 A 
HETATM   13  C   UNL     1     -39.774  51.604 -52.280  1.00  0.00     0.044 A 
HETATM   14  C   UNL     1     -39.932  51.512 -53.657  1.00  0.00     0.116 A 
HETATM   15  F   UNL     1     -39.705  50.345 -54.273  1.00  0.00    -0.206 F 
HETATM   16  C   UNL     1     -40.319  52.617 -54.403  1.00  0.00     0.044 A 
HETATM   17  C   UNL     1     -40.551  53.834 -53.759  1.00  0.00     0.032 A 
ENDBRANCH   8  11
ENDBRANCH   6   7
ENDBRANCH   3   6
ENDBRANCH   1   2
BRANCH   1  18
HETATM   18  O   UNL     1     -42.029  58.862 -55.113  1.00  0.00    -0.308 OA
BRANCH  18  19
HETATM   19  C   UNL     1     -43.283  58.471 -55.445  1.00  0.00     0.295 C 
HETATM   20  O   UNL     1     -44.261  59.191 -55.564  1.00  0.00    -0.259 OA
BRANCH  19  21
HETATM   21  C   UNL     1     -43.302  57.000 -55.648  1.00  0.00     0.060 A 
HETATM   22  C   UNL     1     -42.764  56.430 -56.825  1.00  0.00     0.025 A 
HETATM   23  C   UNL     1     -42.839  55.030 -56.941  1.00  0.00     0.024 A 
HETATM   24  C   UNL     1     -43.347  54.230 -55.909  1.00  0.00     0.002 A 
HETATM   25  C   UNL     1     -43.822  54.810 -54.739  1.00  0.00     0.001 A 
HETATM   26  C   UNL     1     -43.805  56.194 -54.609  1.00  0.00     0.019 A 
BRANCH  22  27
HETATM   27  N   UNL     1     -42.323  57.244 -57.883  1.00  0.00    -0.286 NA
HETATM   28  H   UNL     1     -41.575  56.777 -58.405  1.00  0.00     0.128 HD
BRANCH  27  29
HETATM   29  C   UNL     1     -43.297  57.872 -58.778  1.00  0.00     0.157 C 
BRANCH  29  30
HETATM   30  C   UNL     1     -44.231  56.928 -59.460  1.00  0.00     0.065 A 
HETATM   31  O   UNL     1     -43.664  56.083 -60.373  1.00  0.00    -0.326 OA
HETATM   32  C   UNL     1     -44.658  55.309 -60.874  1.00  0.00     0.142 A 
HETATM   33  C   UNL     1     -45.863  55.645 -60.304  1.00  0.00     0.027 A 
HETATM   34  C   UNL     1     -45.590  56.692 -59.391  1.00  0.00     0.036 A 
ENDBRANCH  29  30
ENDBRANCH  27  29
ENDBRANCH  22  27
ENDBRANCH  19  21
ENDBRANCH  18  19
ENDBRANCH   1  18
TORSDOF 10
ENDMDL
MODEL 5
REMARK VINA RESULT:      -7.4      2.170      3.676
REMARK  10 active torsions:
REMARK  status: ('A' for Active; 'I' for Inactive)
REMARK       I    between atoms: N_2  and  C_3 
REMARK    1  A    between atoms: N_2  and  C_22 
REMARK    2  A    between atoms: C_3  and  C_4 
REMARK    3  A    between atoms: C_4  and  O_5 
REMARK    4  A    between atoms: O_5  and  C_6 
REMARK    5  A    between atoms: C_6  and  C_7 
REMARK    6  A    between atoms: C_8  and  N_9 
REMARK    7  A    between atoms: N_9  and  C_10 
REMARK    8  A    between atoms: C_10  and  C_11 
REMARK    9  A    between atoms: C_22  and  C_23 
REMARK       I    between atoms: C_23  and  N_24 
REMARK   10  A    between atoms: N_24  and  C_25 
ROOT
HETATM    1  C   UNL     1     -42.059  60.033 -54.845  1.00  0.00     0.281 C 
ENDROOT
BRANCH   1   2
HETATM    2  C   UNL     1     -42.411  58.699 -54.180  1.00  0.00     0.244 C 
HETATM    3  N   UNL     1     -41.435  58.062 -53.421  1.00  0.00    -0.346 N 
HETATM    4  C   UNL     1     -40.208  58.704 -52.970  1.00  0.00     0.153 C 
HETATM    5  O   UNL     1     -43.546  58.213 -54.269  1.00  0.00    -0.271 OA
BRANCH   3   6
HETATM    6  C   UNL     1     -41.797  56.807 -52.751  1.00  0.00     0.228 C 
BRANCH   6   7
HETATM    7  C   UNL     1     -41.159  55.586 -53.429  1.00  0.00     0.240 C 
HETATM    8  N   UNL     1     -41.188  54.459 -52.625  1.00  0.00    -0.326 N 
HETATM    9  H   UNL     1     -41.581  54.596 -51.692  1.00  0.00     0.169 HD
HETATM   10  O   UNL     1     -40.673  55.675 -54.553  1.00  0.00    -0.271 OA
BRANCH   8  11
HETATM   11  C   UNL     1     -40.686  53.176 -52.912  1.00  0.00     0.035 A 
HETATM   12  C   UNL     1     -40.876  52.518 -54.130  1.00  0.00     0.032 A 
HETATM   13  C   UNL     1     -40.343  51.241 -54.334  1.00  0.00     0.044 A 
HETATM   14  C   UNL     1     -39.619  50.627 -53.320  1.00  0.00     0.116 A 
HETATM   15  F   UNL     1     -39.107  49.405 -53.517  1.00  0.00    -0.206 F 
HETATM   16  C   UNL     1     -39.420  51.264 -52.102  1.00  0.00     0.044 A 
HETATM   17  C   UNL     1     -39.958  52.537 -51.897  1.00  0.00     0.032 A 
ENDBRANCH   8  11
ENDBRANCH   6   7
ENDBRANCH   3   6
ENDBRANCH   1   2
BRANCH   1  18
HETATM   18  O   UNL     1     -41.790  59.809 -56.233  1.00  0.00    -0.308 OA
BRANCH  18  19
HETATM   19  C   UNL     1     -42.828  60.035 -57.074  1.00  0.00     0.295 C 
HETATM   20  O   UNL     1     -43.919  60.494 -56.774  1.00  0.00    -0.259 OA
BRANCH  19  21
HETATM   21  C   UNL     1     -42.441  59.636 -58.450  1.00  0.00     0.060 A 
HETATM   22  C   UNL     1     -42.150  58.286 -58.753  1.00  0.00     0.025 A 
HETATM   23  C   UNL     1     -41.777  58.001 -60.078  1.00  0.00     0.024 A 
HETATM   24  C   UNL     1     -41.772  58.989 -61.072  1.00  0.00     0.002 A 
HETATM   25  C   UNL     1     -42.113  60.299 -60.762  1.00  0.00     0.001 A 
HETATM   26  C   UNL     1     -42.444  60.626 -59.452  1.00  0.00     0.019 A 
BRANCH  22  27
HETATM   27  N   UNL     1     -42.087  57.317 -57.735  1.00  0.00    -0.286 NA
HETATM   28  H   UNL     1     -41.773  57.742 -56.857  1.00  0.00     0.128 HD
BRANCH  27  29
HETATM   29  C   UNL     1     -43.212  56.405 -57.523  1.00  0.00     0.157 C 
BRANCH  29  30
HETATM   30  C   UNL     1     -43.995  56.067 -58.749  1.00  0.00     0.065 A 
HETATM   31  O   UNL     1     -45.050  56.891 -59.028  1.00  0.00    -0.326 OA
HETATM   32  C   UNL     1     -45.624  56.433 -60.168  1.00  0.00     0.142 A 
HETATM   33  C   UNL     1     -44.961  55.319 -60.627  1.00  0.00     0.027 A 
HETATM   34  C   UNL     1     -43.908  55.081 -59.711  1.00  0.00     0.036 A 
ENDBRANCH  29  30
ENDBRANCH  27  29
ENDBRANCH  22  27
ENDBRANCH  19  21
ENDBRANCH  18  19
ENDBRANCH   1  18
TORSDOF 10
ENDMDL
MODEL 6
REMARK VINA RESULT:      -7.2      2.318      3.600
REMARK  10 active torsions:
REMARK  status: ('A' for Active; 'I' for Inactive)
REMARK       I    between atoms: N_2  and  C_3 
REMARK    1  A    between atoms: N_2  and  C_22 
REMARK    2  A    between atoms: C_3  and  C_4 
REMARK    3  A    between atoms: C_4  and  O_5 
REMARK    4  A    between atoms: O_5  and  C_6 
REMARK    5  A    between atoms: C_6  and  C_7 
REMARK    6  A    between atoms: C_8  and  N_9 
REMARK    7  A    between atoms: N_9  and  C_10 
REMARK    8  A    between atoms: C_10  and  C_11 
REMARK    9  A    between atoms: C_22  and  C_23 
REMARK       I    between atoms: C_23  and  N_24 
REMARK   10  A    between atoms: N_24  and  C_25 
ROOT
HETATM    1  C   UNL     1     -42.741  57.670 -55.729  1.00  0.00     0.281 C 
ENDROOT
BRANCH   1   2
HETATM    2  C   UNL     1     -43.065  56.929 -54.428  1.00  0.00     0.244 C 
HETATM    3  N   UNL     1     -42.088  56.873 -53.440  1.00  0.00    -0.346 N 
HETATM    4  C   UNL     1     -40.896  57.709 -53.426  1.00  0.00     0.153 C 
HETATM    5  O   UNL     1     -44.179  56.428 -54.232  1.00  0.00    -0.271 OA
BRANCH   3   6
HETATM    6  C   UNL     1     -42.425  56.198 -52.180  1.00  0.00     0.228 C 
BRANCH   6   7
HETATM    7  C   UNL     1     -42.296  54.673 -52.291  1.00  0.00     0.240 C 
HETATM    8  N   UNL     1     -41.038  54.276 -52.711  1.00  0.00    -0.326 N 
HETATM    9  H   UNL     1     -40.390  55.035 -52.931  1.00  0.00     0.169 HD
HETATM   10  O   UNL     1     -43.251  53.942 -52.040  1.00  0.00    -0.271 OA
BRANCH   8  11
HETATM   11  C   UNL     1     -40.570  52.968 -52.935  1.00  0.00     0.035 A 
HETATM   12  C   UNL     1     -40.675  52.300 -54.158  1.00  0.00     0.032 A 
HETATM   13  C   UNL     1     -40.184  50.998 -54.296  1.00  0.00     0.044 A 
HETATM   14  C   UNL     1     -39.588  50.367 -53.211  1.00  0.00     0.116 A 
HETATM   15  F   UNL     1     -39.117  49.121 -53.345  1.00  0.00    -0.206 F 
HETATM   16  C   UNL     1     -39.476  51.014 -51.987  1.00  0.00     0.044 A 
HETATM   17  C   UNL     1     -39.971  52.312 -51.848  1.00  0.00     0.032 A 
ENDBRANCH   8  11
ENDBRANCH   6   7
ENDBRANCH   3   6
ENDBRANCH   1   2
BRANCH   1  18
HETATM   18  O   UNL     1     -42.607  56.720 -56.791  1.00  0.00    -0.308 OA
BRANCH  18  19
HETATM   19  C   UNL     1     -42.609  57.238 -58.042  1.00  0.00     0.295 C 
HETATM   20  O   UNL     1     -41.803  58.031 -58.503  1.00  0.00    -0.259 OA
BRANCH  19  21
HETATM   21  C   UNL     1     -43.764  56.692 -58.799  1.00  0.00     0.060 A 
HETATM   22  C   UNL     1     -44.898  57.495 -59.060  1.00  0.00     0.025 A 
HETATM   23  C   UNL     1     -45.951  56.890 -59.769  1.00  0.00     0.024 A 
HETATM   24  C   UNL     1     -45.854  55.584 -60.264  1.00  0.00     0.002 A 
HETATM   25  C   UNL     1     -44.708  54.831 -60.040  1.00  0.00     0.001 A 
HETATM   26  C   UNL     1     -43.664  55.381 -59.304  1.00  0.00     0.019 A 
BRANCH  22  27
HETATM   27  N   UNL     1     -45.016  58.779 -58.498  1.00  0.00    -0.286 NA
HETATM   28  H   UNL     1     -44.324  58.907 -57.754  1.00  0.00     0.128 HD
BRANCH  27  29
HETATM   29  C   UNL     1     -45.103  59.953 -59.367  1.00  0.00     0.157 C 
BRANCH  29  30
HETATM   30  C   UNL     1     -43.824  60.349 -60.027  1.00  0.00     0.065 A 
HETATM   31  O   UNL     1     -43.148  61.385 -59.445  1.00  0.00    -0.326 OA
HETATM   32  C   UNL     1     -42.023  61.589 -60.175  1.00  0.00     0.142 A 
HETATM   33  C   UNL     1     -41.964  60.705 -61.227  1.00  0.00     0.027 A 
HETATM   34  C   UNL     1     -43.128  59.903 -61.134  1.00  0.00     0.036 A 
ENDBRANCH  29  30
ENDBRANCH  27  29
ENDBRANCH  22  27
ENDBRANCH  19  21
ENDBRANCH  18  19
ENDBRANCH   1  18
TORSDOF 10
ENDMDL
MODEL 7
REMARK VINA RESULT:      -7.0      1.838      3.151
REMARK  10 active torsions:
REMARK  status: ('A' for Active; 'I' for Inactive)
REMARK       I    between atoms: N_2  and  C_3 
REMARK    1  A    between atoms: N_2  and  C_22 
REMARK    2  A    between atoms: C_3  and  C_4 
REMARK    3  A    between atoms: C_4  and  O_5 
REMARK    4  A    between atoms: O_5  and  C_6 
REMARK    5  A    between atoms: C_6  and  C_7 
REMARK    6  A    between atoms: C_8  and  N_9 
REMARK    7  A    between atoms: N_9  and  C_10 
REMARK    8  A    between atoms: C_10  and  C_11 
REMARK    9  A    between atoms: C_22  and  C_23 
REMARK       I    between atoms: C_23  and  N_24 
REMARK   10  A    between atoms: N_24  and  C_25 
ROOT
HETATM    1  C   UNL     1     -43.144  57.572 -55.593  1.00  0.00     0.281 C 
ENDROOT
BRANCH   1   2
HETATM    2  C   UNL     1     -43.318  56.874 -54.240  1.00  0.00     0.244 C 
HETATM    3  N   UNL     1     -42.256  56.902 -53.342  1.00  0.00    -0.346 N 
HETATM    4  C   UNL     1     -41.107  57.788 -53.468  1.00  0.00     0.153 C 
HETATM    5  O   UNL     1     -44.387  56.337 -53.925  1.00  0.00    -0.271 OA
BRANCH   3   6
HETATM    6  C   UNL     1     -42.450  56.270 -52.031  1.00  0.00     0.228 C 
BRANCH   6   7
HETATM    7  C   UNL     1     -42.285  54.745 -52.097  1.00  0.00     0.240 C 
HETATM    8  N   UNL     1     -41.037  54.367 -52.564  1.00  0.00    -0.326 N 
HETATM    9  H   UNL     1     -40.421  55.135 -52.840  1.00  0.00     0.169 HD
HETATM   10  O   UNL     1     -43.206  53.999 -51.777  1.00  0.00    -0.271 OA
BRANCH   8  11
HETATM   11  C   UNL     1     -40.544  53.065 -52.766  1.00  0.00     0.035 A 
HETATM   12  C   UNL     1     -39.882  52.320 -51.786  1.00  0.00     0.032 A 
HETATM   13  C   UNL     1     -39.422  51.030 -52.069  1.00  0.00     0.044 A 
HETATM   14  C   UNL     1     -39.627  50.488 -53.331  1.00  0.00     0.116 A 
HETATM   15  F   UNL     1     -39.187  49.252 -53.600  1.00  0.00    -0.206 F 
HETATM   16  C   UNL     1     -40.280  51.213 -54.319  1.00  0.00     0.044 A 
HETATM   17  C   UNL     1     -40.735  52.503 -54.037  1.00  0.00     0.032 A 
ENDBRANCH   8  11
ENDBRANCH   6   7
ENDBRANCH   3   6
ENDBRANCH   1   2
BRANCH   1  18
HETATM   18  O   UNL     1     -44.338  57.406 -56.364  1.00  0.00    -0.308 OA
BRANCH  18  19
HETATM   19  C   UNL     1     -44.613  58.405 -57.237  1.00  0.00     0.295 C 
HETATM   20  O   UNL     1     -45.504  59.234 -57.137  1.00  0.00    -0.259 OA
BRANCH  19  21
HETATM   21  C   UNL     1     -43.651  58.349 -58.367  1.00  0.00     0.060 A 
HETATM   22  C   UNL     1     -43.525  57.177 -59.147  1.00  0.00     0.025 A 
HETATM   23  C   UNL     1     -42.577  57.208 -60.186  1.00  0.00     0.024 A 
HETATM   24  C   UNL     1     -41.850  58.367 -60.488  1.00  0.00     0.002 A 
HETATM   25  C   UNL     1     -42.030  59.524 -59.740  1.00  0.00     0.001 A 
HETATM   26  C   UNL     1     -42.925  59.516 -58.677  1.00  0.00     0.019 A 
BRANCH  22  27
HETATM   27  N   UNL     1     -44.204  55.999 -58.791  1.00  0.00    -0.286 NA
HETATM   28  H   UNL     1     -44.688  56.122 -57.897  1.00  0.00     0.128 HD
BRANCH  27  29
HETATM   29  C   UNL     1     -45.047  55.315 -59.774  1.00  0.00     0.157 C 
BRANCH  29  30
HETATM   30  C   UNL     1     -46.173  56.129 -60.319  1.00  0.00     0.065 A 
HETATM   31  O   UNL     1     -46.654  55.740 -61.538  1.00  0.00    -0.326 OA
HETATM   32  C   UNL     1     -47.665  56.586 -61.858  1.00  0.00     0.142 A 
HETATM   33  C   UNL     1     -47.841  57.521 -60.867  1.00  0.00     0.027 A 
HETATM   34  C   UNL     1     -46.878  57.229 -59.872  1.00  0.00     0.036 A 
ENDBRANCH  29  30
ENDBRANCH  27  29
ENDBRANCH  22  27
ENDBRANCH  19  21
ENDBRANCH  18  19
ENDBRANCH   1  18
TORSDOF 10
ENDMDL
MODEL 8
REMARK VINA RESULT:      -7.0      2.757      3.726
REMARK  10 active torsions:
REMARK  status: ('A' for Active; 'I' for Inactive)
REMARK       I    between atoms: N_2  and  C_3 
REMARK    1  A    between atoms: N_2  and  C_22 
REMARK    2  A    between atoms: C_3  and  C_4 
REMARK    3  A    between atoms: C_4  and  O_5 
REMARK    4  A    between atoms: O_5  and  C_6 
REMARK    5  A    between atoms: C_6  and  C_7 
REMARK    6  A    between atoms: C_8  and  N_9 
REMARK    7  A    between atoms: N_9  and  C_10 
REMARK    8  A    between atoms: C_10  and  C_11 
REMARK    9  A    between atoms: C_22  and  C_23 
REMARK       I    between atoms: C_23  and  N_24 
REMARK   10  A    between atoms: N_24  and  C_25 
ROOT
HETATM    1  C   UNL     1     -42.913  59.098 -54.387  1.00  0.00     0.281 C 
ENDROOT
BRANCH   1   2
HETATM    2  C   UNL     1     -43.207  58.039 -53.319  1.00  0.00     0.244 C 
HETATM    3  N   UNL     1     -42.147  57.556 -52.560  1.00  0.00    -0.346 N 
HETATM    4  C   UNL     1     -40.836  58.187 -52.499  1.00  0.00     0.153 C 
HETATM    5  O   UNL     1     -44.361  57.650 -53.097  1.00  0.00    -0.271 OA
BRANCH   3   6
HETATM    6  C   UNL     1     -42.447  56.575 -51.509  1.00  0.00     0.228 C 
BRANCH   6   7
HETATM    7  C   UNL     1     -42.322  55.131 -52.016  1.00  0.00     0.240 C 
HETATM    8  N   UNL     1     -41.007  54.703 -52.075  1.00  0.00    -0.326 N 
HETATM    9  H   UNL     1     -40.306  55.402 -51.823  1.00  0.00     0.169 HD
HETATM   10  O   UNL     1     -43.319  54.490 -52.338  1.00  0.00    -0.271 OA
BRANCH   8  11
HETATM   11  C   UNL     1     -40.520  53.453 -52.501  1.00  0.00     0.035 A 
HETATM   12  C   UNL     1     -39.943  52.508 -51.648  1.00  0.00     0.032 A 
HETATM   13  C   UNL     1     -39.483  51.288 -52.154  1.00  0.00     0.044 A 
HETATM   14  C   UNL     1     -39.602  51.015 -53.510  1.00  0.00     0.116 A 
HETATM   15  F   UNL     1     -39.163  49.846 -53.992  1.00  0.00    -0.206 F 
HETATM   16  C   UNL     1     -40.170  51.942 -54.374  1.00  0.00     0.044 A 
HETATM   17  C   UNL     1     -40.625  53.163 -53.870  1.00  0.00     0.032 A 
ENDBRANCH   8  11
ENDBRANCH   6   7
ENDBRANCH   3   6
ENDBRANCH   1   2
BRANCH   1  18
HETATM   18  O   UNL     1     -42.617  58.446 -55.626  1.00  0.00    -0.308 OA
BRANCH  18  19
HETATM   19  C   UNL     1     -43.623  58.430 -56.533  1.00  0.00     0.295 C 
HETATM   20  O   UNL     1     -44.749  58.877 -56.378  1.00  0.00    -0.259 OA
BRANCH  19  21
HETATM   21  C   UNL     1     -43.151  57.775 -57.779  1.00  0.00     0.060 A 
HETATM   22  C   UNL     1     -42.172  58.392 -58.590  1.00  0.00     0.025 A 
HETATM   23  C   UNL     1     -41.797  57.708 -59.760  1.00  0.00     0.024 A 
HETATM   24  C   UNL     1     -42.306  56.439 -60.069  1.00  0.00     0.002 A 
HETATM   25  C   UNL     1     -43.228  55.829 -59.228  1.00  0.00     0.001 A 
HETATM   26  C   UNL     1     -43.656  56.497 -58.086  1.00  0.00     0.019 A 
BRANCH  22  27
HETATM   27  N   UNL     1     -41.722  59.695 -58.311  1.00  0.00    -0.286 NA
HETATM   28  H   UNL     1     -40.706  59.701 -58.180  1.00  0.00     0.128 HD
BRANCH  27  29
HETATM   29  C   UNL     1     -42.169  60.817 -59.138  1.00  0.00     0.157 C 
BRANCH  29  30
HETATM   30  C   UNL     1     -41.096  61.771 -59.546  1.00  0.00     0.065 A 
HETATM   31  O   UNL     1     -41.015  62.041 -60.883  1.00  0.00    -0.326 OA
HETATM   32  C   UNL     1     -39.997  62.922 -61.053  1.00  0.00     0.142 A 
HETATM   33  C   UNL     1     -39.413  63.221 -59.844  1.00  0.00     0.027 A 
HETATM   34  C   UNL     1     -40.121  62.478 -58.869  1.00  0.00     0.036 A 
ENDBRANCH  29  30
ENDBRANCH  27  29
ENDBRANCH  22  27
ENDBRANCH  19  21
ENDBRANCH  18  19
ENDBRANCH   1  18
TORSDOF 10
ENDMDL
MODEL 9
REMARK VINA RESULT:      -7.0      1.998      3.251
REMARK  10 active torsions:
REMARK  status: ('A' for Active; 'I' for Inactive)
REMARK       I    between atoms: N_2  and  C_3 
REMARK    1  A    between atoms: N_2  and  C_22 
REMARK    2  A    between atoms: C_3  and  C_4 
REMARK    3  A    between atoms: C_4  and  O_5 
REMARK    4  A    between atoms: O_5  and  C_6 
REMARK    5  A    between atoms: C_6  and  C_7 
REMARK    6  A    between atoms: C_8  and  N_9 
REMARK    7  A    between atoms: N_9  and  C_10 
REMARK    8  A    between atoms: C_10  and  C_11 
REMARK    9  A    between atoms: C_22  and  C_23 
REMARK       I    between atoms: C_23  and  N_24 
REMARK   10  A    between atoms: N_24  and  C_25 
ROOT
HETATM    1  C   UNL     1     -42.346  57.518 -55.813  1.00  0.00     0.281 C 
ENDROOT
BRANCH   1   2
HETATM    2  C   UNL     1     -42.846  56.839 -54.534  1.00  0.00     0.244 C 
HETATM    3  N   UNL     1     -42.019  56.848 -53.415  1.00  0.00    -0.346 N 
HETATM    4  C   UNL     1     -40.848  57.703 -53.276  1.00  0.00     0.153 C 
HETATM    5  O   UNL     1     -43.973  56.332 -54.471  1.00  0.00    -0.271 OA
BRANCH   3   6
HETATM    6  C   UNL     1     -42.527  56.234 -52.182  1.00  0.00     0.228 C 
BRANCH   6   7
HETATM    7  C   UNL     1     -42.334  54.711 -52.175  1.00  0.00     0.240 C 
HETATM    8  N   UNL     1     -41.094  54.332 -52.661  1.00  0.00    -0.326 N 
HETATM    9  H   UNL     1     -40.502  55.095 -52.995  1.00  0.00     0.169 HD
HETATM   10  O   UNL     1     -43.231  53.967 -51.788  1.00  0.00    -0.271 OA
BRANCH   8  11
HETATM   11  C   UNL     1     -40.583  53.030 -52.811  1.00  0.00     0.035 A 
HETATM   12  C   UNL     1     -39.943  52.320 -51.791  1.00  0.00     0.032 A 
HETATM   13  C   UNL     1     -39.462  51.028 -52.024  1.00  0.00     0.044 A 
HETATM   14  C   UNL     1     -39.623  50.448 -53.276  1.00  0.00     0.116 A 
HETATM   15  F   UNL     1     -39.164  49.210 -53.497  1.00  0.00    -0.206 F 
HETATM   16  C   UNL     1     -40.254  51.138 -54.303  1.00  0.00     0.044 A 
HETATM   17  C   UNL     1     -40.730  52.430 -54.071  1.00  0.00     0.032 A 
ENDBRANCH   8  11
ENDBRANCH   6   7
ENDBRANCH   3   6
ENDBRANCH   1   2
BRANCH   1  18
HETATM   18  O   UNL     1     -42.582  56.652 -56.927  1.00  0.00    -0.308 OA
BRANCH  18  19
HETATM   19  C   UNL     1     -42.644  57.260 -58.137  1.00  0.00     0.295 C 
HETATM   20  O   UNL     1     -41.940  58.178 -58.526  1.00  0.00    -0.259 OA
BRANCH  19  21
HETATM   21  C   UNL     1     -43.720  56.635 -58.947  1.00  0.00     0.060 A 
HETATM   22  C   UNL     1     -44.709  57.432 -59.567  1.00  0.00     0.025 A 
HETATM   23  C   UNL     1     -45.699  56.755 -60.301  1.00  0.00     0.024 A 
HETATM   24  C   UNL     1     -45.664  55.366 -60.480  1.00  0.00     0.002 A 
HETATM   25  C   UNL     1     -44.652  54.608 -59.905  1.00  0.00     0.001 A 
HETATM   26  C   UNL     1     -43.682  55.240 -59.134  1.00  0.00     0.019 A 
BRANCH  22  27
HETATM   27  N   UNL     1     -44.777  58.815 -59.322  1.00  0.00    -0.286 NA
HETATM   28  H   UNL     1     -44.791  59.334 -60.205  1.00  0.00     0.128 HD
BRANCH  27  29
HETATM   29  C   UNL     1     -45.753  59.343 -58.367  1.00  0.00     0.157 C 
BRANCH  29  30
HETATM   30  C   UNL     1     -45.179  59.841 -57.083  1.00  0.00     0.065 A 
HETATM   31  O   UNL     1     -45.682  59.275 -55.945  1.00  0.00    -0.326 OA
HETATM   32  C   UNL     1     -45.039  59.845 -54.896  1.00  0.00     0.142 A 
HETATM   33  C   UNL     1     -44.132  60.779 -55.337  1.00  0.00     0.027 A 
HETATM   34  C   UNL     1     -44.222  60.779 -56.750  1.00  0.00     0.036 A 
ENDBRANCH  29  30
ENDBRANCH  27  29
ENDBRANCH  22  27
ENDBRANCH  19  21
ENDBRANCH  18  19
ENDBRANCH   1  18
TORSDOF 10
ENDMDL
MODEL 10
REMARK VINA RESULT:      -6.8     15.730     18.998
REMARK  10 active torsions:
REMARK  status: ('A' for Active; 'I' for Inactive)
REMARK       I    between atoms: N_2  and  C_3 
REMARK    1  A    between atoms: N_2  and  C_22 
REMARK    2  A    between atoms: C_3  and  C_4 
REMARK    3  A    between atoms: C_4  and  O_5 
REMARK    4  A    between atoms: O_5  and  C_6 
REMARK    5  A    between atoms: C_6  and  C_7 
REMARK    6  A    between atoms: C_8  and  N_9 
REMARK    7  A    between atoms: N_9  and  C_10 
REMARK    8  A    between atoms: C_10  and  C_11 
REMARK    9  A    between atoms: C_22  and  C_23 
REMARK       I    between atoms: C_23  and  N_24 
REMARK   10  A    between atoms: N_24  and  C_25 
ROOT
HETATM    1  C   UNL     1     -36.603  42.048 -53.855  1.00  0.00     0.281 C 
ENDROOT
BRANCH   1   2
HETATM    2  C   UNL     1     -35.888  42.120 -55.208  1.00  0.00     0.244 C 
HETATM    3  N   UNL     1     -36.561  41.662 -56.335  1.00  0.00    -0.346 N 
HETATM    4  C   UNL     1     -37.992  41.394 -56.376  1.00  0.00     0.153 C 
HETATM    5  O   UNL     1     -34.758  42.613 -55.314  1.00  0.00    -0.271 OA
BRANCH   3   6
HETATM    6  C   UNL     1     -35.883  41.776 -57.632  1.00  0.00     0.228 C 
BRANCH   6   7
HETATM    7  C   UNL     1     -36.812  41.425 -58.802  1.00  0.00     0.240 C 
HETATM    8  N   UNL     1     -36.874  40.062 -59.039  1.00  0.00    -0.326 N 
HETATM    9  H   UNL     1     -36.272  39.487 -58.448  1.00  0.00     0.169 HD
HETATM   10  O   UNL     1     -37.391  42.308 -59.431  1.00  0.00    -0.271 OA
BRANCH   8  11
HETATM   11  C   UNL     1     -37.608  39.387 -60.032  1.00  0.00     0.035 A 
HETATM   12  C   UNL     1     -37.196  39.270 -61.363  1.00  0.00     0.032 A 
HETATM   13  C   UNL     1     -37.987  38.581 -62.288  1.00  0.00     0.044 A 
HETATM   14  C   UNL     1     -39.186  38.011 -61.881  1.00  0.00     0.116 A 
HETATM   15  F   UNL     1     -39.940  37.350 -62.768  1.00  0.00    -0.206 F 
HETATM   16  C   UNL     1     -39.613  38.118 -60.564  1.00  0.00     0.044 A 
HETATM   17  C   UNL     1     -38.826  38.810 -59.641  1.00  0.00     0.032 A 
ENDBRANCH   8  11
ENDBRANCH   6   7
ENDBRANCH   3   6
ENDBRANCH   1   2
BRANCH   1  18
HETATM   18  O   UNL     1     -35.644  41.769 -52.830  1.00  0.00    -0.308 OA
BRANCH  18  19
HETATM   19  C   UNL     1     -35.502  40.462 -52.504  1.00  0.00     0.295 C 
HETATM   20  O   UNL     1     -36.281  39.558 -52.764  1.00  0.00    -0.259 OA
BRANCH  19  21
HETATM   21  C   UNL     1     -34.228  40.275 -51.764  1.00  0.00     0.060 A 
HETATM   22  C   UNL     1     -32.986  40.483 -52.406  1.00  0.00     0.025 A 
HETATM   23  C   UNL     1     -31.831  40.268 -51.633  1.00  0.00     0.024 A 
HETATM   24  C   UNL     1     -31.903  39.943 -50.272  1.00  0.00     0.002 A 
HETATM   25  C   UNL     1     -33.136  39.795 -49.649  1.00  0.00     0.001 A 
HETATM   26  C   UNL     1     -34.299  39.956 -50.394  1.00  0.00     0.019 A 
BRANCH  22  27
HETATM   27  N   UNL     1     -32.923  40.738 -53.787  1.00  0.00    -0.286 NA
HETATM   28  H   UNL     1     -32.156  41.384 -53.996  1.00  0.00     0.128 HD
BRANCH  27  29
HETATM   29  C   UNL     1     -32.970  39.627 -54.739  1.00  0.00     0.157 C 
BRANCH  29  30
HETATM   30  C   UNL     1     -31.653  39.239 -55.325  1.00  0.00     0.065 A 
HETATM   31  O   UNL     1     -31.119  40.118 -56.225  1.00  0.00    -0.326 OA
HETATM   32  C   UNL     1     -29.934  39.601 -56.635  1.00  0.00     0.142 A 
HETATM   33  C   UNL     1     -29.697  38.394 -56.020  1.00  0.00     0.027 A 
HETATM   34  C   UNL     1     -30.807  38.158 -55.174  1.00  0.00     0.036 A 
ENDBRANCH  29  30
ENDBRANCH  27  29
ENDBRANCH  22  27
ENDBRANCH  19  21
ENDBRANCH  18  19
ENDBRANCH   1  18
TORSDOF 10
ENDMDL
