MODEL 1
REMARK VINA RESULT:      -7.6      0.000      0.000
REMARK  7 active torsions:
REMARK  status: ('A' for Active; 'I' for Inactive)
REMARK    1  A    between atoms: C_2  and  C_3 
REMARK    2  A    between atoms: C_3  and  N_4 
REMARK    3  A    between atoms: C_3  and  C_20 
REMARK       I    between atoms: N_4  and  C_5 
REMARK       I    between atoms: C_5  and  N_6 
REMARK    4  A    between atoms: N_6  and  C_7 
REMARK    5  A    between atoms: C_7  and  C_8 
REMARK    6  A    between atoms: C_10  and  O_11 
REMARK    7  A    between atoms: O_11  and  C_12 
ROOT
HETATM    1  N   UNL     1     -41.692  53.762 -52.565  1.00  0.00    -0.334 N 
HETATM    2  C   UNL     1     -41.849  55.093 -52.845  1.00  0.00     0.316 C 
HETATM    3  N   UNL     1     -43.078  55.340 -53.401  1.00  0.00    -0.339 N 
HETATM    4  O   UNL     1     -41.011  55.954 -52.617  1.00  0.00    -0.247 OA
HETATM    5  H   UNL     1     -42.326  53.124 -53.013  1.00  0.00     0.165 HD
HETATM    6  H   UNL     1     -43.792  54.657 -53.204  1.00  0.00     0.164 HD
ENDROOT
BRANCH   3   7
HETATM    7  C   UNL     1     -43.538  56.696 -53.607  1.00  0.00     0.163 C 
BRANCH   7   8
HETATM    8  C   UNL     1     -43.190  57.154 -54.998  1.00  0.00    -0.035 A 
HETATM    9  C   UNL     1     -43.264  56.266 -56.075  1.00  0.00     0.066 A 
HETATM   10  C   UNL     1     -42.843  56.701 -57.320  1.00  0.00     0.164 A 
HETATM   11  N   UNL     1     -42.374  57.941 -57.571  1.00  0.00    -0.237 NA
HETATM   12  C   UNL     1     -42.325  58.787 -56.521  1.00  0.00     0.120 A 
HETATM   13  C   UNL     1     -42.709  58.445 -55.232  1.00  0.00     0.028 A 
BRANCH  10  14
HETATM   14  O   UNL     1     -42.908  55.786 -58.353  1.00  0.00    -0.329 OA
BRANCH  14  15
HETATM   15  C   UNL     1     -44.151  55.757 -59.086  1.00  0.00     0.130 C 
HETATM   16  C   UNL     1     -44.121  56.349 -60.521  1.00  0.00     0.032 C 
HETATM   17  C   UNL     1     -45.024  55.184 -60.958  1.00  0.00     0.005 C 
HETATM   18  C   UNL     1     -44.482  54.397 -59.753  1.00  0.00     0.032 C 
ENDBRANCH  14  15
ENDBRANCH  10  14
ENDBRANCH   7   8
ENDBRANCH   3   7
BRANCH   1  19
HETATM   19  C   UNL     1     -40.454  53.222 -52.023  1.00  0.00     0.119 C 
BRANCH  19  20
HETATM   20  C   UNL     1     -40.498  53.218 -50.481  1.00  0.00     0.025 C 
HETATM   21  C   UNL     1     -39.586  54.238 -49.807  1.00  0.00     0.007 C 
ENDBRANCH  19  20
BRANCH  19  22
HETATM   22  C   UNL     1     -40.090  51.861 -52.597  1.00  0.00    -0.033 A 
HETATM   23  C   UNL     1     -39.714  50.830 -51.724  1.00  0.00     0.028 A 
HETATM   24  C   UNL     1     -39.413  49.580 -52.243  1.00  0.00     0.116 A 
HETATM   25  N   UNL     1     -39.459  49.282 -53.557  1.00  0.00    -0.273 NA
HETATM   26  C   UNL     1     -39.812  50.284 -54.388  1.00  0.00     0.116 A 
HETATM   27  C   UNL     1     -40.133  51.566 -53.964  1.00  0.00     0.028 A 
ENDBRANCH  19  22
ENDBRANCH   1  19
TORSDOF 7
ENDMDL
MODEL 2
REMARK VINA RESULT:      -7.5      2.286      3.099
REMARK  7 active torsions:
REMARK  status: ('A' for Active; 'I' for Inactive)
REMARK    1  A    between atoms: C_2  and  C_3 
REMARK    2  A    between atoms: C_3  and  N_4 
REMARK    3  A    between atoms: C_3  and  C_20 
REMARK       I    between atoms: N_4  and  C_5 
REMARK       I    between atoms: C_5  and  N_6 
REMARK    4  A    between atoms: N_6  and  C_7 
REMARK    5  A    between atoms: C_7  and  C_8 
REMARK    6  A    between atoms: C_10  and  O_11 
REMARK    7  A    between atoms: O_11  and  C_12 
ROOT
HETATM    1  N   UNL     1     -41.570  54.038 -54.025  1.00  0.00    -0.334 N 
HETATM    2  C   UNL     1     -41.523  55.256 -54.648  1.00  0.00     0.316 C 
HETATM    3  N   UNL     1     -42.559  55.398 -55.536  1.00  0.00    -0.339 N 
HETATM    4  O   UNL     1     -40.679  56.114 -54.432  1.00  0.00    -0.247 OA
HETATM    5  H   UNL     1     -42.145  53.330 -54.450  1.00  0.00     0.165 HD
HETATM    6  H   UNL     1     -43.364  54.818 -55.365  1.00  0.00     0.164 HD
ENDROOT
BRANCH   3   7
HETATM    7  C   UNL     1     -42.820  56.672 -56.171  1.00  0.00     0.163 C 
BRANCH   7   8
HETATM    8  C   UNL     1     -42.822  56.512 -57.668  1.00  0.00    -0.035 A 
HETATM    9  C   UNL     1     -42.215  57.473 -58.483  1.00  0.00     0.066 A 
HETATM   10  C   UNL     1     -42.324  57.337 -59.857  1.00  0.00     0.164 A 
HETATM   11  N   UNL     1     -42.971  56.324 -60.469  1.00  0.00    -0.237 NA
HETATM   12  C   UNL     1     -43.537  55.400 -59.664  1.00  0.00     0.120 A 
HETATM   13  C   UNL     1     -43.498  55.452 -58.279  1.00  0.00     0.028 A 
BRANCH  10  14
HETATM   14  O   UNL     1     -41.733  58.319 -60.627  1.00  0.00    -0.329 OA
BRANCH  14  15
HETATM   15  C   UNL     1     -42.311  59.637 -60.510  1.00  0.00     0.130 C 
HETATM   16  C   UNL     1     -41.944  60.653 -61.626  1.00  0.00     0.032 C 
HETATM   17  C   UNL     1     -43.405  61.130 -61.591  1.00  0.00     0.005 C 
HETATM   18  C   UNL     1     -43.773  59.753 -61.013  1.00  0.00     0.032 C 
ENDBRANCH  14  15
ENDBRANCH  10  14
ENDBRANCH   7   8
ENDBRANCH   3   7
BRANCH   1  19
HETATM   19  C   UNL     1     -40.553  53.609 -53.077  1.00  0.00     0.119 C 
BRANCH  19  20
HETATM   20  C   UNL     1     -40.961  53.993 -51.639  1.00  0.00     0.025 C 
HETATM   21  C   UNL     1     -42.461  53.956 -51.363  1.00  0.00     0.007 C 
ENDBRANCH  19  20
BRANCH  19  22
HETATM   22  C   UNL     1     -40.195  52.136 -53.206  1.00  0.00    -0.033 A 
HETATM   23  C   UNL     1     -39.704  51.452 -52.084  1.00  0.00     0.028 A 
HETATM   24  C   UNL     1     -39.407  50.102 -52.191  1.00  0.00     0.116 A 
HETATM   25  N   UNL     1     -39.563  49.387 -53.323  1.00  0.00    -0.273 NA
HETATM   26  C   UNL     1     -40.026  50.057 -54.398  1.00  0.00     0.116 A 
HETATM   27  C   UNL     1     -40.353  51.406 -54.389  1.00  0.00     0.028 A 
ENDBRANCH  19  22
ENDBRANCH   1  19
TORSDOF 7
ENDMDL
MODEL 3
REMARK VINA RESULT:      -7.3      2.879      4.988
REMARK  7 active torsions:
REMARK  status: ('A' for Active; 'I' for Inactive)
REMARK    1  A    between atoms: C_2  and  C_3 
REMARK    2  A    between atoms: C_3  and  N_4 
REMARK    3  A    between atoms: C_3  and  C_20 
REMARK       I    between atoms: N_4  and  C_5 
REMARK       I    between atoms: C_5  and  N_6 
REMARK    4  A    between atoms: N_6  and  C_7 
REMARK    5  A    between atoms: C_7  and  C_8 
REMARK    6  A    between atoms: C_10  and  O_11 
REMARK    7  A    between atoms: O_11  and  C_12 
ROOT
HETATM    1  N   UNL     1     -41.538  53.648 -52.381  1.00  0.00    -0.334 N 
HETATM    2  C   UNL     1     -41.869  54.248 -53.566  1.00  0.00     0.316 C 
HETATM    3  N   UNL     1     -43.216  54.500 -53.633  1.00  0.00    -0.339 N 
HETATM    4  O   UNL     1     -41.070  54.536 -54.445  1.00  0.00    -0.247 OA
HETATM    5  H   UNL     1     -42.288  53.239 -51.851  1.00  0.00     0.165 HD
HETATM    6  H   UNL     1     -43.693  54.565 -52.749  1.00  0.00     0.164 HD
ENDROOT
BRANCH   3   7
HETATM    7  C   UNL     1     -43.766  55.294 -54.710  1.00  0.00     0.163 C 
BRANCH   7   8
HETATM    8  C   UNL     1     -44.040  56.695 -54.232  1.00  0.00    -0.035 A 
HETATM    9  C   UNL     1     -43.498  57.149 -53.025  1.00  0.00     0.066 A 
HETATM   10  C   UNL     1     -43.852  58.409 -52.576  1.00  0.00     0.164 A 
HETATM   11  N   UNL     1     -44.683  59.244 -53.236  1.00  0.00    -0.237 NA
HETATM   12  C   UNL     1     -45.182  58.792 -54.405  1.00  0.00     0.120 A 
HETATM   13  C   UNL     1     -44.902  57.541 -54.935  1.00  0.00     0.028 A 
BRANCH  10  14
HETATM   14  O   UNL     1     -43.317  58.811 -51.368  1.00  0.00    -0.329 OA
BRANCH  14  15
HETATM   15  C   UNL     1     -41.973  59.335 -51.423  1.00  0.00     0.130 C 
HETATM   16  C   UNL     1     -41.567  60.316 -50.290  1.00  0.00     0.032 C 
HETATM   17  C   UNL     1     -40.195  59.621 -50.259  1.00  0.00     0.005 C 
HETATM   18  C   UNL     1     -40.881  58.385 -50.867  1.00  0.00     0.032 C 
ENDBRANCH  14  15
ENDBRANCH  10  14
ENDBRANCH   7   8
ENDBRANCH   3   7
BRANCH   1  19
HETATM   19  C   UNL     1     -40.180  53.221 -52.078  1.00  0.00     0.119 C 
BRANCH  19  20
HETATM   20  C   UNL     1     -39.851  53.485 -50.593  1.00  0.00     0.025 C 
HETATM   21  C   UNL     1     -40.402  54.792 -50.034  1.00  0.00     0.007 C 
ENDBRANCH  19  20
BRANCH  19  22
HETATM   22  C   UNL     1     -39.896  51.784 -52.489  1.00  0.00    -0.033 A 
HETATM   23  C   UNL     1     -39.686  50.818 -51.494  1.00  0.00     0.028 A 
HETATM   24  C   UNL     1     -39.459  49.501 -51.865  1.00  0.00     0.116 A 
HETATM   25  N   UNL     1     -39.429  49.078 -53.145  1.00  0.00    -0.273 NA
HETATM   26  C   UNL     1     -39.623  50.017 -54.093  1.00  0.00     0.116 A 
HETATM   27  C   UNL     1     -39.859  51.357 -53.821  1.00  0.00     0.028 A 
ENDBRANCH  19  22
ENDBRANCH   1  19
TORSDOF 7
ENDMDL
MODEL 4
REMARK VINA RESULT:      -7.2      2.070      7.668
REMARK  7 active torsions:
REMARK  status: ('A' for Active; 'I' for Inactive)
REMARK    1  A    between atoms: C_2  and  C_3 
REMARK    2  A    between atoms: C_3  and  N_4 
REMARK    3  A    between atoms: C_3  and  C_20 
REMARK       I    between atoms: N_4  and  C_5 
REMARK       I    between atoms: C_5  and  N_6 
REMARK    4  A    between atoms: N_6  and  C_7 
REMARK    5  A    between atoms: C_7  and  C_8 
REMARK    6  A    between atoms: C_10  and  O_11 
REMARK    7  A    between atoms: O_11  and  C_12 
ROOT
HETATM    1  N   UNL     1     -42.279  57.366 -55.298  1.00  0.00    -0.334 N 
HETATM    2  C   UNL     1     -43.103  56.745 -54.400  1.00  0.00     0.316 C 
HETATM    3  N   UNL     1     -42.385  55.979 -53.516  1.00  0.00    -0.339 N 
HETATM    4  O   UNL     1     -44.319  56.866 -54.375  1.00  0.00    -0.247 OA
HETATM    5  H   UNL     1     -41.343  57.006 -55.383  1.00  0.00     0.165 HD
HETATM    6  H   UNL     1     -41.420  56.238 -53.398  1.00  0.00     0.164 HD
ENDROOT
BRANCH   3   7
HETATM    7  C   UNL     1     -43.026  55.380 -52.365  1.00  0.00     0.163 C 
BRANCH   7   8
HETATM    8  C   UNL     1     -42.008  54.662 -51.522  1.00  0.00    -0.035 A 
HETATM    9  C   UNL     1     -41.156  53.713 -52.096  1.00  0.00     0.066 A 
HETATM   10  C   UNL     1     -40.301  53.007 -51.267  1.00  0.00     0.164 A 
HETATM   11  N   UNL     1     -40.223  53.183 -49.932  1.00  0.00    -0.237 NA
HETATM   12  C   UNL     1     -41.042  54.113 -49.401  1.00  0.00     0.120 A 
HETATM   13  C   UNL     1     -41.945  54.863 -50.140  1.00  0.00     0.028 A 
BRANCH  10  14
HETATM   14  O   UNL     1     -39.494  52.061 -51.869  1.00  0.00    -0.329 OA
BRANCH  14  15
HETATM   15  C   UNL     1     -40.137  51.225 -52.855  1.00  0.00     0.130 C 
HETATM   16  C   UNL     1     -39.678  51.414 -54.326  1.00  0.00     0.032 C 
HETATM   17  C   UNL     1     -39.749  49.886 -54.483  1.00  0.00     0.005 C 
HETATM   18  C   UNL     1     -39.569  49.786 -52.958  1.00  0.00     0.032 C 
ENDBRANCH  14  15
ENDBRANCH  10  14
ENDBRANCH   7   8
ENDBRANCH   3   7
BRANCH   1  19
HETATM   19  C   UNL     1     -42.790  58.192 -56.382  1.00  0.00     0.119 C 
BRANCH  19  20
HETATM   20  C   UNL     1     -42.201  59.616 -56.296  1.00  0.00     0.025 C 
HETATM   21  C   UNL     1     -42.194  60.228 -54.898  1.00  0.00     0.007 C 
ENDBRANCH  19  20
BRANCH  19  22
HETATM   22  C   UNL     1     -42.600  57.567 -57.756  1.00  0.00    -0.033 A 
HETATM   23  C   UNL     1     -43.153  56.304 -58.013  1.00  0.00     0.028 A 
HETATM   24  C   UNL     1     -43.009  55.747 -59.274  1.00  0.00     0.116 A 
HETATM   25  N   UNL     1     -42.361  56.350 -60.292  1.00  0.00    -0.273 NA
HETATM   26  C   UNL     1     -41.826  57.560 -60.030  1.00  0.00     0.116 A 
HETATM   27  C   UNL     1     -41.919  58.200 -58.802  1.00  0.00     0.028 A 
ENDBRANCH  19  22
ENDBRANCH   1  19
TORSDOF 7
ENDMDL
MODEL 5
REMARK VINA RESULT:      -7.1      2.029      2.314
REMARK  7 active torsions:
REMARK  status: ('A' for Active; 'I' for Inactive)
REMARK    1  A    between atoms: C_2  and  C_3 
REMARK    2  A    between atoms: C_3  and  N_4 
REMARK    3  A    between atoms: C_3  and  C_20 
REMARK       I    between atoms: N_4  and  C_5 
REMARK       I    between atoms: C_5  and  N_6 
REMARK    4  A    between atoms: N_6  and  C_7 
REMARK    5  A    between atoms: C_7  and  C_8 
REMARK    6  A    between atoms: C_10  and  O_11 
REMARK    7  A    between atoms: O_11  and  C_12 
ROOT
HETATM    1  N   UNL     1     -41.494  53.917 -53.699  1.00  0.00    -0.334 N 
HETATM    2  C   UNL     1     -41.154  54.900 -54.589  1.00  0.00     0.316 C 
HETATM    3  N   UNL     1     -42.199  55.191 -55.428  1.00  0.00    -0.339 N 
HETATM    4  O   UNL     1     -40.066  55.458 -54.624  1.00  0.00    -0.247 OA
HETATM    5  H   UNL     1     -42.307  53.367 -53.916  1.00  0.00     0.165 HD
HETATM    6  H   UNL     1     -43.115  54.955 -55.083  1.00  0.00     0.164 HD
ENDROOT
BRANCH   3   7
HETATM    7  C   UNL     1     -42.133  56.324 -56.326  1.00  0.00     0.163 C 
BRANCH   7   8
HETATM    8  C   UNL     1     -43.489  56.966 -56.449  1.00  0.00    -0.035 A 
HETATM    9  C   UNL     1     -43.995  57.314 -57.705  1.00  0.00     0.066 A 
HETATM   10  C   UNL     1     -45.203  57.988 -57.766  1.00  0.00     0.164 A 
HETATM   11  N   UNL     1     -45.938  58.326 -56.686  1.00  0.00    -0.237 NA
HETATM   12  C   UNL     1     -45.438  57.968 -55.485  1.00  0.00     0.120 A 
HETATM   13  C   UNL     1     -44.232  57.303 -55.315  1.00  0.00     0.028 A 
BRANCH  10  14
HETATM   14  O   UNL     1     -45.657  58.337 -59.023  1.00  0.00    -0.329 OA
BRANCH  14  15
HETATM   15  C   UNL     1     -46.793  57.588 -59.507  1.00  0.00     0.130 C 
HETATM   16  C   UNL     1     -47.360  58.011 -60.889  1.00  0.00     0.032 C 
HETATM   17  C   UNL     1     -47.542  56.517 -61.206  1.00  0.00     0.005 C 
HETATM   18  C   UNL     1     -46.443  56.230 -60.169  1.00  0.00     0.032 C 
ENDBRANCH  14  15
ENDBRANCH  10  14
ENDBRANCH   7   8
ENDBRANCH   3   7
BRANCH   1  19
HETATM   19  C   UNL     1     -40.547  53.379 -52.734  1.00  0.00     0.119 C 
BRANCH  19  20
HETATM   20  C   UNL     1     -41.071  53.579 -51.296  1.00  0.00     0.025 C 
HETATM   21  C   UNL     1     -42.503  54.096 -51.198  1.00  0.00     0.007 C 
ENDBRANCH  19  20
BRANCH  19  22
HETATM   22  C   UNL     1     -40.158  51.935 -53.014  1.00  0.00    -0.033 A 
HETATM   23  C   UNL     1     -39.730  51.125 -51.953  1.00  0.00     0.028 A 
HETATM   24  C   UNL     1     -39.405  49.800 -52.201  1.00  0.00     0.116 A 
HETATM   25  N   UNL     1     -39.476  49.226 -53.419  1.00  0.00    -0.273 NA
HETATM   26  C   UNL     1     -39.880  50.017 -54.434  1.00  0.00     0.116 A 
HETATM   27  C   UNL     1     -40.227  51.352 -54.285  1.00  0.00     0.028 A 
ENDBRANCH  19  22
ENDBRANCH   1  19
TORSDOF 7
ENDMDL
MODEL 6
REMARK VINA RESULT:      -7.1      2.110      7.838
REMARK  7 active torsions:
REMARK  status: ('A' for Active; 'I' for Inactive)
REMARK    1  A    between atoms: C_2  and  C_3 
REMARK    2  A    between atoms: C_3  and  N_4 
REMARK    3  A    between atoms: C_3  and  C_20 
REMARK       I    between atoms: N_4  and  C_5 
REMARK       I    between atoms: C_5  and  N_6 
REMARK    4  A    between atoms: N_6  and  C_7 
REMARK    5  A    between atoms: C_7  and  C_8 
REMARK    6  A    between atoms: C_10  and  O_11 
REMARK    7  A    between atoms: O_11  and  C_12 
ROOT
HETATM    1  N   UNL     1     -41.557  55.928 -55.702  1.00  0.00    -0.334 N 
HETATM    2  C   UNL     1     -41.608  54.593 -55.403  1.00  0.00     0.316 C 
HETATM    3  N   UNL     1     -40.377  54.126 -55.018  1.00  0.00    -0.339 N 
HETATM    4  O   UNL     1     -42.618  53.907 -55.456  1.00  0.00    -0.247 OA
HETATM    5  H   UNL     1     -40.648  56.325 -55.863  1.00  0.00     0.165 HD
HETATM    6  H   UNL     1     -39.737  54.818 -54.665  1.00  0.00     0.164 HD
ENDROOT
BRANCH   3   7
HETATM    7  C   UNL     1     -40.228  52.792 -54.478  1.00  0.00     0.163 C 
BRANCH   7   8
HETATM    8  C   UNL     1     -40.313  52.830 -52.976  1.00  0.00    -0.035 A 
HETATM    9  C   UNL     1     -40.712  53.999 -52.319  1.00  0.00     0.066 A 
HETATM   10  C   UNL     1     -40.684  54.020 -50.935  1.00  0.00     0.164 A 
HETATM   11  N   UNL     1     -40.306  52.976 -50.168  1.00  0.00    -0.237 NA
HETATM   12  C   UNL     1     -39.940  51.854 -50.821  1.00  0.00     0.120 A 
HETATM   13  C   UNL     1     -39.918  51.734 -52.203  1.00  0.00     0.028 A 
BRANCH  10  14
HETATM   14  O   UNL     1     -41.061  55.200 -50.325  1.00  0.00    -0.329 OA
BRANCH  14  15
HETATM   15  C   UNL     1     -41.351  56.300 -51.215  1.00  0.00     0.130 C 
HETATM   16  C   UNL     1     -42.803  56.849 -51.184  1.00  0.00     0.032 C 
HETATM   17  C   UNL     1     -42.209  58.263 -51.290  1.00  0.00     0.005 C 
HETATM   18  C   UNL     1     -40.911  57.692 -50.692  1.00  0.00     0.032 C 
ENDBRANCH  14  15
ENDBRANCH  10  14
ENDBRANCH   7   8
ENDBRANCH   3   7
BRANCH   1  19
HETATM   19  C   UNL     1     -42.716  56.659 -56.194  1.00  0.00     0.119 C 
BRANCH  19  20
HETATM   20  C   UNL     1     -42.777  58.062 -55.554  1.00  0.00     0.025 C 
HETATM   21  C   UNL     1     -43.964  58.295 -54.625  1.00  0.00     0.007 C 
ENDBRANCH  19  20
BRANCH  19  22
HETATM   22  C   UNL     1     -42.795  56.709 -57.713  1.00  0.00    -0.033 A 
HETATM   23  C   UNL     1     -42.227  57.798 -58.390  1.00  0.00     0.028 A 
HETATM   24  C   UNL     1     -42.271  57.829 -59.776  1.00  0.00     0.116 A 
HETATM   25  N   UNL     1     -42.831  56.863 -60.531  1.00  0.00    -0.273 NA
HETATM   26  C   UNL     1     -43.381  55.826 -59.868  1.00  0.00     0.116 A 
HETATM   27  C   UNL     1     -43.387  55.704 -58.486  1.00  0.00     0.028 A 
ENDBRANCH  19  22
ENDBRANCH   1  19
TORSDOF 7
ENDMDL
MODEL 7
REMARK VINA RESULT:      -7.0      2.474      5.048
REMARK  7 active torsions:
REMARK  status: ('A' for Active; 'I' for Inactive)
REMARK    1  A    between atoms: C_2  and  C_3 
REMARK    2  A    between atoms: C_3  and  N_4 
REMARK    3  A    between atoms: C_3  and  C_20 
REMARK       I    between atoms: N_4  and  C_5 
REMARK       I    between atoms: C_5  and  N_6 
REMARK    4  A    between atoms: N_6  and  C_7 
REMARK    5  A    between atoms: C_7  and  C_8 
REMARK    6  A    between atoms: C_10  and  O_11 
REMARK    7  A    between atoms: O_11  and  C_12 
ROOT
HETATM    1  N   UNL     1     -40.969  53.762 -54.741  1.00  0.00    -0.334 N 
HETATM    2  C   UNL     1     -42.094  54.258 -55.342  1.00  0.00     0.316 C 
HETATM    3  N   UNL     1     -41.782  55.260 -56.226  1.00  0.00    -0.339 N 
HETATM    4  O   UNL     1     -43.228  53.854 -55.133  1.00  0.00    -0.247 OA
HETATM    5  H   UNL     1     -40.136  54.323 -54.798  1.00  0.00     0.165 HD
HETATM    6  H   UNL     1     -40.839  55.252 -56.580  1.00  0.00     0.164 HD
ENDROOT
BRANCH   3   7
HETATM    7  C   UNL     1     -42.788  55.805 -57.112  1.00  0.00     0.163 C 
BRANCH   7   8
HETATM    8  C   UNL     1     -42.749  57.309 -57.075  1.00  0.00    -0.035 A 
HETATM    9  C   UNL     1     -42.158  57.976 -55.997  1.00  0.00     0.066 A 
HETATM   10  C   UNL     1     -42.229  59.357 -55.956  1.00  0.00     0.164 A 
HETATM   11  N   UNL     1     -42.825  60.114 -56.901  1.00  0.00    -0.237 NA
HETATM   12  C   UNL     1     -43.376  59.452 -57.939  1.00  0.00     0.120 A 
HETATM   13  C   UNL     1     -43.372  58.071 -58.067  1.00  0.00     0.028 A 
BRANCH  10  14
HETATM   14  O   UNL     1     -41.656  59.977 -54.863  1.00  0.00    -0.329 OA
BRANCH  14  15
HETATM   15  C   UNL     1     -41.654  59.210 -53.639  1.00  0.00     0.130 C 
HETATM   16  C   UNL     1     -40.262  58.883 -53.032  1.00  0.00     0.032 C 
HETATM   17  C   UNL     1     -40.865  59.166 -51.646  1.00  0.00     0.005 C 
HETATM   18  C   UNL     1     -41.918  60.036 -52.354  1.00  0.00     0.032 C 
ENDBRANCH  14  15
ENDBRANCH  10  14
ENDBRANCH   7   8
ENDBRANCH   3   7
BRANCH   1  19
HETATM   19  C   UNL     1     -41.025  52.729 -53.717  1.00  0.00     0.119 C 
BRANCH  19  20
HETATM   20  C   UNL     1     -39.868  51.725 -53.901  1.00  0.00     0.025 C 
HETATM   21  C   UNL     1     -40.288  50.335 -54.366  1.00  0.00     0.007 C 
ENDBRANCH  19  20
BRANCH  19  22
HETATM   22  C   UNL     1     -41.089  53.288 -52.303  1.00  0.00    -0.033 A 
HETATM   23  C   UNL     1     -39.959  53.190 -51.478  1.00  0.00     0.028 A 
HETATM   24  C   UNL     1     -40.006  53.727 -50.200  1.00  0.00     0.116 A 
HETATM   25  N   UNL     1     -41.086  54.352 -49.688  1.00  0.00    -0.273 NA
HETATM   26  C   UNL     1     -42.169  54.432 -50.487  1.00  0.00     0.116 A 
HETATM   27  C   UNL     1     -42.218  53.927 -51.779  1.00  0.00     0.028 A 
ENDBRANCH  19  22
ENDBRANCH   1  19
TORSDOF 7
ENDMDL
MODEL 8
REMARK VINA RESULT:      -6.8      3.048      8.101
REMARK  7 active torsions:
REMARK  status: ('A' for Active; 'I' for Inactive)
REMARK    1  A    between atoms: C_2  and  C_3 
REMARK    2  A    between atoms: C_3  and  N_4 
REMARK    3  A    between atoms: C_3  and  C_20 
REMARK       I    between atoms: N_4  and  C_5 
REMARK       I    between atoms: C_5  and  N_6 
REMARK    4  A    between atoms: N_6  and  C_7 
REMARK    5  A    between atoms: C_7  and  C_8 
REMARK    6  A    between atoms: C_10  and  O_11 
REMARK    7  A    between atoms: O_11  and  C_12 
ROOT
HETATM    1  N   UNL     1     -43.001  56.845 -53.727  1.00  0.00    -0.334 N 
HETATM    2  C   UNL     1     -42.214  55.944 -54.392  1.00  0.00     0.316 C 
HETATM    3  N   UNL     1     -42.623  54.657 -54.151  1.00  0.00    -0.339 N 
HETATM    4  O   UNL     1     -41.276  56.244 -55.117  1.00  0.00    -0.247 OA
HETATM    5  H   UNL     1     -43.570  56.488 -52.979  1.00  0.00     0.165 HD
HETATM    6  H   UNL     1     -43.581  54.550 -53.862  1.00  0.00     0.164 HD
ENDROOT
BRANCH   3   7
HETATM    7  C   UNL     1     -42.058  53.550 -54.892  1.00  0.00     0.163 C 
BRANCH   7   8
HETATM    8  C   UNL     1     -41.143  52.748 -54.006  1.00  0.00    -0.035 A 
HETATM    9  C   UNL     1     -40.811  53.210 -52.729  1.00  0.00     0.066 A 
HETATM   10  C   UNL     1     -39.891  52.490 -51.985  1.00  0.00     0.164 A 
HETATM   11  N   UNL     1     -39.297  51.355 -52.408  1.00  0.00    -0.237 NA
HETATM   12  C   UNL     1     -39.642  50.920 -53.637  1.00  0.00     0.120 A 
HETATM   13  C   UNL     1     -40.541  51.574 -54.467  1.00  0.00     0.028 A 
BRANCH  10  14
HETATM   14  O   UNL     1     -39.571  52.992 -50.739  1.00  0.00    -0.329 OA
BRANCH  14  15
HETATM   15  C   UNL     1     -40.645  53.656 -50.037  1.00  0.00     0.130 C 
HETATM   16  C   UNL     1     -40.557  53.660 -48.487  1.00  0.00     0.032 C 
HETATM   17  C   UNL     1     -41.058  55.114 -48.521  1.00  0.00     0.005 C 
HETATM   18  C   UNL     1     -40.514  55.199 -49.957  1.00  0.00     0.032 C 
ENDBRANCH  14  15
ENDBRANCH  10  14
ENDBRANCH   7   8
ENDBRANCH   3   7
BRANCH   1  19
HETATM   19  C   UNL     1     -42.747  58.277 -53.765  1.00  0.00     0.119 C 
BRANCH  19  20
HETATM   20  C   UNL     1     -44.074  59.057 -53.872  1.00  0.00     0.025 C 
HETATM   21  C   UNL     1     -45.057  58.518 -54.906  1.00  0.00     0.007 C 
ENDBRANCH  19  20
BRANCH  19  22
HETATM   22  C   UNL     1     -41.878  58.764 -52.614  1.00  0.00    -0.033 A 
HETATM   23  C   UNL     1     -42.494  59.287 -51.468  1.00  0.00     0.028 A 
HETATM   24  C   UNL     1     -41.705  59.702 -50.406  1.00  0.00     0.116 A 
HETATM   25  N   UNL     1     -40.358  59.632 -50.399  1.00  0.00    -0.273 NA
HETATM   26  C   UNL     1     -39.777  59.135 -51.510  1.00  0.00     0.116 A 
HETATM   27  C   UNL     1     -40.480  58.694 -52.622  1.00  0.00     0.028 A 
ENDBRANCH  19  22
ENDBRANCH   1  19
TORSDOF 7
ENDMDL
MODEL 9
REMARK VINA RESULT:      -6.6      2.372      8.044
REMARK  7 active torsions:
REMARK  status: ('A' for Active; 'I' for Inactive)
REMARK    1  A    between atoms: C_2  and  C_3 
REMARK    2  A    between atoms: C_3  and  N_4 
REMARK    3  A    between atoms: C_3  and  C_20 
REMARK       I    between atoms: N_4  and  C_5 
REMARK       I    between atoms: C_5  and  N_6 
REMARK    4  A    between atoms: N_6  and  C_7 
REMARK    5  A    between atoms: C_7  and  C_8 
REMARK    6  A    between atoms: C_10  and  O_11 
REMARK    7  A    between atoms: O_11  and  C_12 
ROOT
HETATM    1  N   UNL     1     -44.142  57.312 -56.805  1.00  0.00    -0.334 N 
HETATM    2  C   UNL     1     -44.623  57.637 -55.565  1.00  0.00     0.316 C 
HETATM    3  N   UNL     1     -44.083  56.828 -54.598  1.00  0.00    -0.339 N 
HETATM    4  O   UNL     1     -45.418  58.539 -55.343  1.00  0.00    -0.247 OA
HETATM    5  H   UNL     1     -43.698  56.415 -56.901  1.00  0.00     0.165 HD
HETATM    6  H   UNL     1     -43.203  56.397 -54.830  1.00  0.00     0.164 HD
ENDROOT
BRANCH   3   7
HETATM    7  C   UNL     1     -44.301  57.107 -53.194  1.00  0.00     0.163 C 
BRANCH   7   8
HETATM    8  C   UNL     1     -43.162  56.561 -52.376  1.00  0.00    -0.035 A 
HETATM    9  C   UNL     1     -42.812  55.210 -52.462  1.00  0.00     0.066 A 
HETATM   10  C   UNL     1     -41.822  54.729 -51.622  1.00  0.00     0.164 A 
HETATM   11  N   UNL     1     -41.156  55.486 -50.725  1.00  0.00    -0.237 NA
HETATM   12  C   UNL     1     -41.499  56.789 -50.668  1.00  0.00     0.120 A 
HETATM   13  C   UNL     1     -42.486  57.366 -51.455  1.00  0.00     0.028 A 
BRANCH  10  14
HETATM   14  O   UNL     1     -41.523  53.384 -51.721  1.00  0.00    -0.329 OA
BRANCH  14  15
HETATM   15  C   UNL     1     -40.362  53.058 -52.514  1.00  0.00     0.130 C 
HETATM   16  C   UNL     1     -39.658  51.713 -52.187  1.00  0.00     0.032 C 
HETATM   17  C   UNL     1     -39.477  51.508 -53.700  1.00  0.00     0.005 C 
HETATM   18  C   UNL     1     -40.674  52.451 -53.906  1.00  0.00     0.032 C 
ENDBRANCH  14  15
ENDBRANCH  10  14
ENDBRANCH   7   8
ENDBRANCH   3   7
BRANCH   1  19
HETATM   19  C   UNL     1     -44.599  57.978 -58.016  1.00  0.00     0.119 C 
BRANCH  19  20
HETATM   20  C   UNL     1     -43.543  58.994 -58.502  1.00  0.00     0.025 C 
HETATM   21  C   UNL     1     -42.109  58.682 -58.087  1.00  0.00     0.007 C 
ENDBRANCH  19  20
BRANCH  19  22
HETATM   22  C   UNL     1     -45.022  57.011 -59.111  1.00  0.00    -0.033 A 
HETATM   23  C   UNL     1     -46.329  57.078 -59.613  1.00  0.00     0.028 A 
HETATM   24  C   UNL     1     -46.707  56.218 -60.633  1.00  0.00     0.116 A 
HETATM   25  N   UNL     1     -45.884  55.305 -61.189  1.00  0.00    -0.273 NA
HETATM   26  C   UNL     1     -44.632  55.244 -60.692  1.00  0.00     0.116 A 
HETATM   27  C   UNL     1     -44.161  56.062 -59.674  1.00  0.00     0.028 A 
ENDBRANCH  19  22
ENDBRANCH   1  19
TORSDOF 7
ENDMDL
MODEL 10
REMARK VINA RESULT:      -6.5      5.692      9.581
REMARK  7 active torsions:
REMARK  status: ('A' for Active; 'I' for Inactive)
REMARK    1  A    between atoms: C_2  and  C_3 
REMARK    2  A    between atoms: C_3  and  N_4 
REMARK    3  A    between atoms: C_3  and  C_20 
REMARK       I    between atoms: N_4  and  C_5 
REMARK       I    between atoms: C_5  and  N_6 
REMARK    4  A    between atoms: N_6  and  C_7 
REMARK    5  A    between atoms: C_7  and  C_8 
REMARK    6  A    between atoms: C_10  and  O_11 
REMARK    7  A    between atoms: O_11  and  C_12 
ROOT
HETATM    1  N   UNL     1     -44.196  60.597 -49.785  1.00  0.00    -0.334 N 
HETATM    2  C   UNL     1     -43.202  60.245 -50.657  1.00  0.00     0.316 C 
HETATM    3  N   UNL     1     -43.087  58.881 -50.751  1.00  0.00    -0.339 N 
HETATM    4  O   UNL     1     -42.515  61.039 -51.284  1.00  0.00    -0.247 OA
HETATM    5  H   UNL     1     -44.520  59.887 -49.151  1.00  0.00     0.165 HD
HETATM    6  H   UNL     1     -43.907  58.355 -50.498  1.00  0.00     0.164 HD
ENDROOT
BRANCH   3   7
HETATM    7  C   UNL     1     -42.231  58.278 -51.750  1.00  0.00     0.163 C 
BRANCH   7   8
HETATM    8  C   UNL     1     -42.225  56.782 -51.591  1.00  0.00    -0.035 A 
HETATM    9  C   UNL     1     -41.225  56.010 -52.191  1.00  0.00     0.066 A 
HETATM   10  C   UNL     1     -41.311  54.632 -52.100  1.00  0.00     0.164 A 
HETATM   11  N   UNL     1     -42.296  53.975 -51.452  1.00  0.00    -0.237 NA
HETATM   12  C   UNL     1     -43.242  54.738 -50.868  1.00  0.00     0.120 A 
HETATM   13  C   UNL     1     -43.256  56.125 -50.913  1.00  0.00     0.028 A 
BRANCH  10  14
HETATM   14  O   UNL     1     -40.319  53.904 -52.727  1.00  0.00    -0.329 OA
BRANCH  14  15
HETATM   15  C   UNL     1     -40.586  52.495 -52.893  1.00  0.00     0.130 C 
HETATM   16  C   UNL     1     -40.420  51.925 -54.328  1.00  0.00     0.032 C 
HETATM   17  C   UNL     1     -39.776  50.680 -53.696  1.00  0.00     0.005 C 
HETATM   18  C   UNL     1     -39.418  51.560 -52.486  1.00  0.00     0.032 C 
ENDBRANCH  14  15
ENDBRANCH  10  14
ENDBRANCH   7   8
ENDBRANCH   3   7
BRANCH   1  19
HETATM   19  C   UNL     1     -44.488  61.985 -49.457  1.00  0.00     0.119 C 
BRANCH  19  20
HETATM   20  C   UNL     1     -45.611  62.528 -50.366  1.00  0.00     0.025 C 
HETATM   21  C   UNL     1     -46.454  61.461 -51.057  1.00  0.00     0.007 C 
ENDBRANCH  19  20
BRANCH  19  22
HETATM   22  C   UNL     1     -44.779  62.205 -47.979  1.00  0.00    -0.033 A 
HETATM   23  C   UNL     1     -44.792  61.101 -47.115  1.00  0.00     0.028 A 
HETATM   24  C   UNL     1     -45.026  61.303 -45.763  1.00  0.00     0.116 A 
HETATM   25  N   UNL     1     -45.243  62.515 -45.212  1.00  0.00    -0.273 NA
HETATM   26  C   UNL     1     -45.238  63.567 -46.055  1.00  0.00     0.116 A 
HETATM   27  C   UNL     1     -45.012  63.466 -47.420  1.00  0.00     0.028 A 
ENDBRANCH  19  22
ENDBRANCH   1  19
TORSDOF 7
ENDMDL
