MODEL 1
REMARK VINA RESULT:      -9.0      0.000      0.000
REMARK  5 active torsions:
REMARK  status: ('A' for Active; 'I' for Inactive)
REMARK    1  A    between atoms: C_7  and  C_8 
REMARK    2  A    between atoms: N_9  and  C_10 
REMARK    3  A    between atoms: C_10  and  C_11 
REMARK       I    between atoms: C_11  and  N_12 
REMARK    4  A    between atoms: N_12  and  C_13 
REMARK    5  A    between atoms: C_13  and  C_14 
ROOT
HETATM    1  C   UNL     1     -41.906  56.756 -53.177  1.00  0.00     0.158 C 
HETATM    2  N   UNL     1     -43.362  56.760 -53.113  1.00  0.00    -0.326 N 
HETATM    3  C   UNL     1     -43.801  57.886 -52.416  1.00  0.00     0.255 C 
HETATM    4  O   UNL     1     -44.932  58.330 -52.349  1.00  0.00    -0.267 OA
HETATM    5  C   UNL     1     -42.633  58.509 -51.784  1.00  0.00     0.040 A 
HETATM    6  C   UNL     1     -41.496  57.829 -52.216  1.00  0.00    -0.015 A 
HETATM    7  C   UNL     1     -42.578  59.605 -50.945  1.00  0.00     0.017 A 
HETATM    8  C   UNL     1     -41.316  60.025 -50.521  1.00  0.00     0.001 A 
HETATM    9  C   UNL     1     -40.157  59.352 -50.949  1.00  0.00     0.001 A 
HETATM   10  C   UNL     1     -40.241  58.250 -51.807  1.00  0.00     0.011 A 
ENDROOT
BRANCH   1  11
HETATM   11  C   UNL     1     -41.314  55.458 -52.725  1.00  0.00     0.004 A 
HETATM   12  C   UNL     1     -40.792  54.472 -53.563  1.00  0.00     0.017 A 
HETATM   13  C   UNL     1     -40.691  54.433 -55.053  1.00  0.00     0.069 C 
HETATM   14  N   UNL     1     -40.345  53.434 -52.772  1.00  0.00    -0.354 N 
HETATM   15  C   UNL     1     -39.748  52.216 -53.284  1.00  0.00     0.156 C 
HETATM   16  C   UNL     1     -40.551  53.719 -51.439  1.00  0.00     0.045 A 
HETATM   17  C   UNL     1     -41.155  54.977 -51.377  1.00  0.00     0.001 A 
HETATM   18  C   UNL     1     -40.260  52.976 -50.279  1.00  0.00     0.030 A 
HETATM   19  C   UNL     1     -41.466  55.507 -50.103  1.00  0.00     0.014 A 
HETATM   20  C   UNL     1     -41.178  54.776 -48.947  1.00  0.00     0.001 A 
HETATM   21  C   UNL     1     -40.583  53.526 -49.037  1.00  0.00     0.002 A 
ENDBRANCH   1  11
BRANCH   2  22
HETATM   22  C   UNL     1     -44.119  56.311 -54.274  1.00  0.00     0.229 C 
BRANCH  22  23
HETATM   23  C   UNL     1     -43.895  57.086 -55.574  1.00  0.00     0.235 C 
HETATM   24  N   UNL     1     -43.451  56.343 -56.645  1.00  0.00    -0.357 N 
HETATM   25  H   UNL     1     -43.464  55.334 -56.559  1.00  0.00     0.162 HD
HETATM   26  O   UNL     1     -43.965  58.315 -55.603  1.00  0.00    -0.272 OA
BRANCH  24  27
HETATM   27  C   UNL     1     -43.279  56.950 -57.955  1.00  0.00     0.154 C 
BRANCH  27  28
HETATM   28  C   UNL     1     -43.201  55.916 -59.093  1.00  0.00     0.139 C 
HETATM   29  O   UNL     1     -43.997  54.757 -58.750  1.00  0.00    -0.384 OA
HETATM   30  C   UNL     1     -44.757  54.391 -59.905  1.00  0.00     0.168 C 
HETATM   31  C   UNL     1     -45.033  55.689 -60.622  1.00  0.00     0.029 C 
HETATM   32  C   UNL     1     -43.741  56.444 -60.422  1.00  0.00     0.035 C 
ENDBRANCH  27  28
ENDBRANCH  24  27
ENDBRANCH  22  23
ENDBRANCH   2  22
TORSDOF 5
ENDMDL
MODEL 2
REMARK VINA RESULT:      -8.9      2.819      5.987
REMARK  5 active torsions:
REMARK  status: ('A' for Active; 'I' for Inactive)
REMARK    1  A    between atoms: C_7  and  C_8 
REMARK    2  A    between atoms: N_9  and  C_10 
REMARK    3  A    between atoms: C_10  and  C_11 
REMARK       I    between atoms: C_11  and  N_12 
REMARK    4  A    between atoms: N_12  and  C_13 
REMARK    5  A    between atoms: C_13  and  C_14 
ROOT
HETATM    1  C   UNL     1     -41.986  57.091 -52.219  1.00  0.00     0.158 C 
HETATM    2  N   UNL     1     -40.969  58.059 -52.608  1.00  0.00    -0.326 N 
HETATM    3  C   UNL     1     -41.406  58.781 -53.720  1.00  0.00     0.255 C 
HETATM    4  O   UNL     1     -40.928  59.799 -54.184  1.00  0.00    -0.267 OA
HETATM    5  C   UNL     1     -42.608  58.123 -54.240  1.00  0.00     0.040 A 
HETATM    6  C   UNL     1     -42.953  57.098 -53.361  1.00  0.00    -0.015 A 
HETATM    7  C   UNL     1     -43.355  58.433 -55.360  1.00  0.00     0.017 A 
HETATM    8  C   UNL     1     -44.496  57.667 -55.602  1.00  0.00     0.001 A 
HETATM    9  C   UNL     1     -44.861  56.630 -54.725  1.00  0.00     0.001 A 
HETATM   10  C   UNL     1     -44.092  56.342 -53.592  1.00  0.00     0.011 A 
ENDROOT
BRANCH   1  11
HETATM   11  C   UNL     1     -41.435  55.708 -52.067  1.00  0.00     0.004 A 
HETATM   12  C   UNL     1     -41.273  55.030 -50.858  1.00  0.00     0.017 A 
HETATM   13  C   UNL     1     -41.577  55.468 -49.463  1.00  0.00     0.069 C 
HETATM   14  N   UNL     1     -40.737  53.789 -51.135  1.00  0.00    -0.354 N 
HETATM   15  C   UNL     1     -40.413  52.797 -50.128  1.00  0.00     0.156 C 
HETATM   16  C   UNL     1     -40.555  53.633 -52.492  1.00  0.00     0.045 A 
HETATM   17  C   UNL     1     -40.982  54.815 -53.102  1.00  0.00     0.001 A 
HETATM   18  C   UNL     1     -40.050  52.552 -53.239  1.00  0.00     0.030 A 
HETATM   19  C   UNL     1     -40.903  54.907 -54.511  1.00  0.00     0.014 A 
HETATM   20  C   UNL     1     -40.404  53.837 -55.259  1.00  0.00     0.001 A 
HETATM   21  C   UNL     1     -39.982  52.675 -54.629  1.00  0.00     0.002 A 
ENDBRANCH   1  11
BRANCH   2  22
HETATM   22  C   UNL     1     -40.222  58.753 -51.567  1.00  0.00     0.229 C 
BRANCH  22  23
HETATM   23  C   UNL     1     -41.047  59.549 -50.553  1.00  0.00     0.235 C 
HETATM   24  N   UNL     1     -41.954  60.438 -51.085  1.00  0.00    -0.357 N 
HETATM   25  H   UNL     1     -42.136  60.390 -52.081  1.00  0.00     0.162 HD
HETATM   26  O   UNL     1     -40.798  59.499 -49.348  1.00  0.00    -0.272 OA
BRANCH  24  27
HETATM   27  C   UNL     1     -42.852  61.195 -50.227  1.00  0.00     0.154 C 
BRANCH  27  28
HETATM   28  C   UNL     1     -44.284  60.632 -50.209  1.00  0.00     0.139 C 
HETATM   29  O   UNL     1     -45.227  61.698 -50.474  1.00  0.00    -0.384 OA
HETATM   30  C   UNL     1     -46.186  61.210 -51.415  1.00  0.00     0.168 C 
HETATM   31  C   UNL     1     -45.430  60.229 -52.276  1.00  0.00     0.029 C 
HETATM   32  C   UNL     1     -44.522  59.560 -51.274  1.00  0.00     0.035 C 
ENDBRANCH  27  28
ENDBRANCH  24  27
ENDBRANCH  22  23
ENDBRANCH   2  22
TORSDOF 5
ENDMDL
MODEL 3
REMARK VINA RESULT:      -8.8      1.695      2.684
REMARK  5 active torsions:
REMARK  status: ('A' for Active; 'I' for Inactive)
REMARK    1  A    between atoms: C_7  and  C_8 
REMARK    2  A    between atoms: N_9  and  C_10 
REMARK    3  A    between atoms: C_10  and  C_11 
REMARK       I    between atoms: C_11  and  N_12 
REMARK    4  A    between atoms: N_12  and  C_13 
REMARK    5  A    between atoms: C_13  and  C_14 
ROOT
HETATM    1  C   UNL     1     -41.771  56.389 -53.201  1.00  0.00     0.158 C 
HETATM    2  N   UNL     1     -43.225  56.346 -53.275  1.00  0.00    -0.326 N 
HETATM    3  C   UNL     1     -43.761  57.511 -52.725  1.00  0.00     0.255 C 
HETATM    4  O   UNL     1     -44.905  57.917 -52.804  1.00  0.00    -0.267 OA
HETATM    5  C   UNL     1     -42.677  58.227 -52.044  1.00  0.00     0.040 A 
HETATM    6  C   UNL     1     -41.486  57.554 -52.305  1.00  0.00    -0.015 A 
HETATM    7  C   UNL     1     -42.734  59.391 -51.303  1.00  0.00     0.017 A 
HETATM    8  C   UNL     1     -41.531  59.892 -50.802  1.00  0.00     0.001 A 
HETATM    9  C   UNL     1     -40.318  59.227 -51.057  1.00  0.00     0.001 A 
HETATM   10  C   UNL     1     -40.288  58.053 -51.819  1.00  0.00     0.011 A 
ENDROOT
BRANCH   1  11
HETATM   11  C   UNL     1     -41.189  55.157 -52.583  1.00  0.00     0.004 A 
HETATM   12  C   UNL     1     -40.635  54.084 -53.284  1.00  0.00     0.017 A 
HETATM   13  C   UNL     1     -40.484  53.874 -54.755  1.00  0.00     0.069 C 
HETATM   14  N   UNL     1     -40.212  53.148 -52.363  1.00  0.00    -0.354 N 
HETATM   15  C   UNL     1     -39.592  51.884 -52.711  1.00  0.00     0.156 C 
HETATM   16  C   UNL     1     -40.463  53.583 -51.080  1.00  0.00     0.045 A 
HETATM   17  C   UNL     1     -41.074  54.836 -51.184  1.00  0.00     0.001 A 
HETATM   18  C   UNL     1     -40.208  52.983 -49.833  1.00  0.00     0.030 A 
HETATM   19  C   UNL     1     -41.430  55.507 -49.991  1.00  0.00     0.014 A 
HETATM   20  C   UNL     1     -41.178  54.917 -48.749  1.00  0.00     0.001 A 
HETATM   21  C   UNL     1     -40.575  53.670 -48.674  1.00  0.00     0.002 A 
ENDBRANCH   1  11
BRANCH   2  22
HETATM   22  C   UNL     1     -43.854  55.772 -54.458  1.00  0.00     0.229 C 
BRANCH  22  23
HETATM   23  C   UNL     1     -43.640  56.522 -55.774  1.00  0.00     0.235 C 
HETATM   24  N   UNL     1     -44.578  57.484 -56.074  1.00  0.00    -0.357 N 
HETATM   25  H   UNL     1     -45.235  57.748 -55.349  1.00  0.00     0.162 HD
HETATM   26  O   UNL     1     -42.770  56.174 -56.573  1.00  0.00    -0.272 OA
BRANCH  24  27
HETATM   27  C   UNL     1     -44.441  58.320 -57.256  1.00  0.00     0.154 C 
BRANCH  27  28
HETATM   28  C   UNL     1     -43.861  59.711 -56.946  1.00  0.00     0.139 C 
HETATM   29  O   UNL     1     -44.359  60.171 -55.668  1.00  0.00    -0.384 OA
HETATM   30  C   UNL     1     -43.258  60.723 -54.941  1.00  0.00     0.168 C 
HETATM   31  C   UNL     1     -42.056  59.927 -55.383  1.00  0.00     0.029 C 
HETATM   32  C   UNL     1     -42.335  59.718 -56.851  1.00  0.00     0.035 C 
ENDBRANCH  27  28
ENDBRANCH  24  27
ENDBRANCH  22  23
ENDBRANCH   2  22
TORSDOF 5
ENDMDL
MODEL 4
REMARK VINA RESULT:      -8.5      1.472      2.783
REMARK  5 active torsions:
REMARK  status: ('A' for Active; 'I' for Inactive)
REMARK    1  A    between atoms: C_7  and  C_8 
REMARK    2  A    between atoms: N_9  and  C_10 
REMARK    3  A    between atoms: C_10  and  C_11 
REMARK       I    between atoms: C_11  and  N_12 
REMARK    4  A    between atoms: N_12  and  C_13 
REMARK    5  A    between atoms: C_13  and  C_14 
ROOT
HETATM    1  C   UNL     1     -41.889  57.056 -52.678  1.00  0.00     0.158 C 
HETATM    2  N   UNL     1     -43.294  57.235 -52.336  1.00  0.00    -0.326 N 
HETATM    3  C   UNL     1     -43.449  58.393 -51.572  1.00  0.00     0.255 C 
HETATM    4  O   UNL     1     -44.483  58.969 -51.291  1.00  0.00    -0.267 OA
HETATM    5  C   UNL     1     -42.114  58.856 -51.180  1.00  0.00     0.040 A 
HETATM    6  C   UNL     1     -41.174  58.051 -51.819  1.00  0.00    -0.015 A 
HETATM    7  C   UNL     1     -41.765  59.920 -50.371  1.00  0.00     0.017 A 
HETATM    8  C   UNL     1     -40.403  60.175 -50.200  1.00  0.00     0.001 A 
HETATM    9  C   UNL     1     -39.440  59.375 -50.840  1.00  0.00     0.001 A 
HETATM   10  C   UNL     1     -39.821  58.308 -51.661  1.00  0.00     0.011 A 
ENDROOT
BRANCH   1  11
HETATM   11  C   UNL     1     -41.386  55.687 -52.344  1.00  0.00     0.004 A 
HETATM   12  C   UNL     1     -41.276  55.157 -51.058  1.00  0.00     0.017 A 
HETATM   13  C   UNL     1     -41.602  55.770 -49.735  1.00  0.00     0.069 C 
HETATM   14  N   UNL     1     -40.773  53.876 -51.166  1.00  0.00    -0.354 N 
HETATM   15  C   UNL     1     -40.506  53.006 -50.038  1.00  0.00     0.156 C 
HETATM   16  C   UNL     1     -40.561  53.551 -52.489  1.00  0.00     0.045 A 
HETATM   17  C   UNL     1     -40.935  54.662 -53.250  1.00  0.00     0.001 A 
HETATM   18  C   UNL     1     -40.071  52.373 -53.084  1.00  0.00     0.030 A 
HETATM   19  C   UNL     1     -40.817  54.578 -54.656  1.00  0.00     0.014 A 
HETATM   20  C   UNL     1     -40.333  53.412 -55.255  1.00  0.00     0.001 A 
HETATM   21  C   UNL     1     -39.964  52.324 -54.476  1.00  0.00     0.002 A 
ENDBRANCH   1  11
BRANCH   2  22
HETATM   22  C   UNL     1     -44.308  56.904 -53.327  1.00  0.00     0.229 C 
BRANCH  22  23
HETATM   23  C   UNL     1     -44.198  57.615 -54.678  1.00  0.00     0.235 C 
HETATM   24  N   UNL     1     -44.069  56.796 -55.777  1.00  0.00    -0.357 N 
HETATM   25  H   UNL     1     -44.223  55.803 -55.648  1.00  0.00     0.162 HD
HETATM   26  O   UNL     1     -44.080  58.839 -54.746  1.00  0.00    -0.272 OA
BRANCH  24  27
HETATM   27  C   UNL     1     -44.037  57.348 -57.122  1.00  0.00     0.154 C 
BRANCH  27  28
HETATM   28  C   UNL     1     -42.621  57.390 -57.722  1.00  0.00     0.139 C 
HETATM   29  O   UNL     1     -42.627  56.759 -59.024  1.00  0.00    -0.384 OA
HETATM   30  C   UNL     1     -41.878  57.588 -59.917  1.00  0.00     0.168 C 
HETATM   31  C   UNL     1     -42.096  58.996 -59.423  1.00  0.00     0.029 C 
HETATM   32  C   UNL     1     -42.095  58.812 -57.925  1.00  0.00     0.035 C 
ENDBRANCH  27  28
ENDBRANCH  24  27
ENDBRANCH  22  23
ENDBRANCH   2  22
TORSDOF 5
ENDMDL
MODEL 5
REMARK VINA RESULT:      -8.5      1.837      3.499
REMARK  5 active torsions:
REMARK  status: ('A' for Active; 'I' for Inactive)
REMARK    1  A    between atoms: C_7  and  C_8 
REMARK    2  A    between atoms: N_9  and  C_10 
REMARK    3  A    between atoms: C_10  and  C_11 
REMARK       I    between atoms: C_11  and  N_12 
REMARK    4  A    between atoms: N_12  and  C_13 
REMARK    5  A    between atoms: C_13  and  C_14 
ROOT
HETATM    1  C   UNL     1     -41.773  56.359 -52.851  1.00  0.00     0.158 C 
HETATM    2  N   UNL     1     -43.228  56.359 -52.918  1.00  0.00    -0.326 N 
HETATM    3  C   UNL     1     -43.724  57.566 -52.422  1.00  0.00     0.255 C 
HETATM    4  O   UNL     1     -44.854  58.005 -52.517  1.00  0.00    -0.267 OA
HETATM    5  C   UNL     1     -42.614  58.278 -51.779  1.00  0.00     0.040 A 
HETATM    6  C   UNL     1     -41.446  57.555 -52.012  1.00  0.00    -0.015 A 
HETATM    7  C   UNL     1     -42.630  59.478 -51.095  1.00  0.00     0.017 A 
HETATM    8  C   UNL     1     -41.409  59.962 -50.621  1.00  0.00     0.001 A 
HETATM    9  C   UNL     1     -40.219  59.246 -50.849  1.00  0.00     0.001 A 
HETATM   10  C   UNL     1     -40.230  58.037 -51.553  1.00  0.00     0.011 A 
ENDROOT
BRANCH   1  11
HETATM   11  C   UNL     1     -41.229  55.139 -52.176  1.00  0.00     0.004 A 
HETATM   12  C   UNL     1     -41.183  54.929 -50.797  1.00  0.00     0.017 A 
HETATM   13  C   UNL     1     -41.629  55.810 -49.676  1.00  0.00     0.069 C 
HETATM   14  N   UNL     1     -40.613  53.692 -50.574  1.00  0.00    -0.354 N 
HETATM   15  C   UNL     1     -40.384  53.125 -49.259  1.00  0.00     0.156 C 
HETATM   16  C   UNL     1     -40.295  53.084 -51.768  1.00  0.00     0.045 A 
HETATM   17  C   UNL     1     -40.667  53.962 -52.789  1.00  0.00     0.001 A 
HETATM   18  C   UNL     1     -39.708  51.834 -52.042  1.00  0.00     0.030 A 
HETATM   19  C   UNL     1     -40.449  53.563 -54.128  1.00  0.00     0.014 A 
HETATM   20  C   UNL     1     -39.869  52.323 -54.407  1.00  0.00     0.001 A 
HETATM   21  C   UNL     1     -39.503  51.470 -53.375  1.00  0.00     0.002 A 
ENDBRANCH   1  11
BRANCH   2  22
HETATM   22  C   UNL     1     -43.880  55.750 -54.070  1.00  0.00     0.229 C 
BRANCH  22  23
HETATM   23  C   UNL     1     -43.657  56.436 -55.419  1.00  0.00     0.235 C 
HETATM   24  N   UNL     1     -44.566  57.416 -55.751  1.00  0.00    -0.357 N 
HETATM   25  H   UNL     1     -45.205  57.733 -55.031  1.00  0.00     0.162 HD
HETATM   26  O   UNL     1     -42.809  56.024 -56.212  1.00  0.00    -0.272 OA
BRANCH  24  27
HETATM   27  C   UNL     1     -44.415  58.196 -56.969  1.00  0.00     0.154 C 
BRANCH  27  28
HETATM   28  C   UNL     1     -43.799  59.585 -56.723  1.00  0.00     0.139 C 
HETATM   29  O   UNL     1     -44.287  60.116 -55.469  1.00  0.00    -0.384 OA
HETATM   30  C   UNL     1     -43.172  60.673 -54.766  1.00  0.00     0.168 C 
HETATM   31  C   UNL     1     -41.990  59.826 -55.168  1.00  0.00     0.029 C 
HETATM   32  C   UNL     1     -42.273  59.557 -56.626  1.00  0.00     0.035 C 
ENDBRANCH  27  28
ENDBRANCH  24  27
ENDBRANCH  22  23
ENDBRANCH   2  22
TORSDOF 5
ENDMDL
MODEL 6
REMARK VINA RESULT:      -8.3      1.754      4.615
REMARK  5 active torsions:
REMARK  status: ('A' for Active; 'I' for Inactive)
REMARK    1  A    between atoms: C_7  and  C_8 
REMARK    2  A    between atoms: N_9  and  C_10 
REMARK    3  A    between atoms: C_10  and  C_11 
REMARK       I    between atoms: C_11  and  N_12 
REMARK    4  A    between atoms: N_12  and  C_13 
REMARK    5  A    between atoms: C_13  and  C_14 
ROOT
HETATM    1  C   UNL     1     -42.944  55.319 -53.646  1.00  0.00     0.158 C 
HETATM    2  N   UNL     1     -42.079  55.131 -54.803  1.00  0.00    -0.326 N 
HETATM    3  C   UNL     1     -41.065  54.223 -54.492  1.00  0.00     0.255 C 
HETATM    4  O   UNL     1     -40.300  53.667 -55.256  1.00  0.00    -0.267 OA
HETATM    5  C   UNL     1     -41.094  53.996 -53.043  1.00  0.00     0.040 A 
HETATM    6  C   UNL     1     -42.201  54.663 -52.524  1.00  0.00    -0.015 A 
HETATM    7  C   UNL     1     -40.247  53.231 -52.265  1.00  0.00     0.017 A 
HETATM    8  C   UNL     1     -40.532  53.143 -50.902  1.00  0.00     0.001 A 
HETATM    9  C   UNL     1     -41.647  53.808 -50.361  1.00  0.00     0.001 A 
HETATM   10  C   UNL     1     -42.494  54.570 -51.172  1.00  0.00     0.011 A 
ENDROOT
BRANCH   1  11
HETATM   11  C   UNL     1     -43.144  56.763 -53.307  1.00  0.00     0.004 A 
HETATM   12  C   UNL     1     -44.217  57.551 -53.724  1.00  0.00     0.017 A 
HETATM   13  C   UNL     1     -45.390  57.201 -54.580  1.00  0.00     0.069 C 
HETATM   14  N   UNL     1     -44.041  58.818 -53.208  1.00  0.00    -0.354 N 
HETATM   15  C   UNL     1     -44.949  59.926 -53.435  1.00  0.00     0.156 C 
HETATM   16  C   UNL     1     -42.888  58.878 -52.455  1.00  0.00     0.045 A 
HETATM   17  C   UNL     1     -42.304  57.609 -52.497  1.00  0.00     0.001 A 
HETATM   18  C   UNL     1     -42.304  59.940 -51.739  1.00  0.00     0.030 A 
HETATM   19  C   UNL     1     -41.099  57.403 -51.787  1.00  0.00     0.014 A 
HETATM   20  C   UNL     1     -40.514  58.453 -51.074  1.00  0.00     0.001 A 
HETATM   21  C   UNL     1     -41.111  59.706 -51.052  1.00  0.00     0.002 A 
ENDBRANCH   1  11
BRANCH   2  22
HETATM   22  C   UNL     1     -42.677  55.090 -56.130  1.00  0.00     0.229 C 
BRANCH  22  23
HETATM   23  C   UNL     1     -42.525  56.351 -56.985  1.00  0.00     0.235 C 
HETATM   24  N   UNL     1     -42.586  56.162 -58.347  1.00  0.00    -0.357 N 
HETATM   25  H   UNL     1     -42.889  55.257 -58.687  1.00  0.00     0.162 HD
HETATM   26  O   UNL     1     -42.217  57.431 -56.479  1.00  0.00    -0.272 OA
BRANCH  24  27
HETATM   27  C   UNL     1     -42.535  57.291 -59.262  1.00  0.00     0.154 C 
BRANCH  27  28
HETATM   28  C   UNL     1     -43.609  57.225 -60.362  1.00  0.00     0.139 C 
HETATM   29  O   UNL     1     -43.760  55.858 -60.810  1.00  0.00    -0.384 OA
HETATM   30  C   UNL     1     -45.160  55.582 -60.910  1.00  0.00     0.168 C 
HETATM   31  C   UNL     1     -45.804  56.418 -59.833  1.00  0.00     0.029 C 
HETATM   32  C   UNL     1     -44.987  57.686 -59.884  1.00  0.00     0.035 C 
ENDBRANCH  27  28
ENDBRANCH  24  27
ENDBRANCH  22  23
ENDBRANCH   2  22
TORSDOF 5
ENDMDL
MODEL 7
REMARK VINA RESULT:      -8.3      2.633      7.545
REMARK  5 active torsions:
REMARK  status: ('A' for Active; 'I' for Inactive)
REMARK    1  A    between atoms: C_7  and  C_8 
REMARK    2  A    between atoms: N_9  and  C_10 
REMARK    3  A    between atoms: C_10  and  C_11 
REMARK       I    between atoms: C_11  and  N_12 
REMARK    4  A    between atoms: N_12  and  C_13 
REMARK    5  A    between atoms: C_13  and  C_14 
ROOT
HETATM    1  C   UNL     1     -41.657  56.467 -53.416  1.00  0.00     0.158 C 
HETATM    2  N   UNL     1     -42.822  56.102 -52.621  1.00  0.00    -0.326 N 
HETATM    3  C   UNL     1     -42.857  54.718 -52.445  1.00  0.00     0.255 C 
HETATM    4  O   UNL     1     -43.549  54.081 -51.672  1.00  0.00    -0.267 OA
HETATM    5  C   UNL     1     -41.859  54.124 -53.339  1.00  0.00     0.040 A 
HETATM    6  C   UNL     1     -41.148  55.161 -53.940  1.00  0.00    -0.015 A 
HETATM    7  C   UNL     1     -41.573  52.791 -53.562  1.00  0.00     0.017 A 
HETATM    8  C   UNL     1     -40.526  52.497 -54.437  1.00  0.00     0.001 A 
HETATM    9  C   UNL     1     -39.797  53.531 -55.052  1.00  0.00     0.001 A 
HETATM   10  C   UNL     1     -40.101  54.873 -54.801  1.00  0.00     0.011 A 
ENDROOT
BRANCH   1  11
HETATM   11  C   UNL     1     -42.005  57.345 -54.577  1.00  0.00     0.004 A 
HETATM   12  C   UNL     1     -41.895  58.736 -54.601  1.00  0.00     0.017 A 
HETATM   13  C   UNL     1     -41.437  59.682 -53.539  1.00  0.00     0.069 C 
HETATM   14  N   UNL     1     -42.311  59.175 -55.841  1.00  0.00    -0.354 N 
HETATM   15  C   UNL     1     -42.353  60.567 -56.242  1.00  0.00     0.156 C 
HETATM   16  C   UNL     1     -42.679  58.108 -56.632  1.00  0.00     0.045 A 
HETATM   17  C   UNL     1     -42.499  56.950 -55.871  1.00  0.00     0.001 A 
HETATM   18  C   UNL     1     -43.157  58.060 -57.955  1.00  0.00     0.030 A 
HETATM   19  C   UNL     1     -42.803  55.705 -56.466  1.00  0.00     0.014 A 
HETATM   20  C   UNL     1     -43.277  55.649 -57.780  1.00  0.00     0.001 A 
HETATM   21  C   UNL     1     -43.452  56.814 -58.513  1.00  0.00     0.002 A 
ENDBRANCH   1  11
BRANCH   2  22
HETATM   22  C   UNL     1     -43.218  56.964 -51.515  1.00  0.00     0.229 C 
BRANCH  22  23
HETATM   23  C   UNL     1     -44.420  57.878 -51.762  1.00  0.00     0.235 C 
HETATM   24  N   UNL     1     -44.816  58.648 -50.691  1.00  0.00    -0.357 N 
HETATM   25  H   UNL     1     -44.203  58.689 -49.885  1.00  0.00     0.162 HD
HETATM   26  O   UNL     1     -45.072  57.807 -52.804  1.00  0.00    -0.272 OA
BRANCH  24  27
HETATM   27  C   UNL     1     -45.893  59.616 -50.823  1.00  0.00     0.154 C 
BRANCH  27  28
HETATM   28  C   UNL     1     -45.488  61.034 -50.385  1.00  0.00     0.139 C 
HETATM   29  O   UNL     1     -46.521  61.596 -49.543  1.00  0.00    -0.384 OA
HETATM   30  C   UNL     1     -45.885  62.219 -48.424  1.00  0.00     0.168 C 
HETATM   31  C   UNL     1     -44.644  61.399 -48.171  1.00  0.00     0.029 C 
HETATM   32  C   UNL     1     -44.193  61.064 -49.571  1.00  0.00     0.035 C 
ENDBRANCH  27  28
ENDBRANCH  24  27
ENDBRANCH  22  23
ENDBRANCH   2  22
TORSDOF 5
ENDMDL
MODEL 8
REMARK VINA RESULT:      -8.3      1.446      4.516
REMARK  5 active torsions:
REMARK  status: ('A' for Active; 'I' for Inactive)
REMARK    1  A    between atoms: C_7  and  C_8 
REMARK    2  A    between atoms: N_9  and  C_10 
REMARK    3  A    between atoms: C_10  and  C_11 
REMARK       I    between atoms: C_11  and  N_12 
REMARK    4  A    between atoms: N_12  and  C_13 
REMARK    5  A    between atoms: C_13  and  C_14 
ROOT
HETATM    1  C   UNL     1     -43.176  55.831 -51.966  1.00  0.00     0.158 C 
HETATM    2  N   UNL     1     -42.794  55.641 -53.358  1.00  0.00    -0.326 N 
HETATM    3  C   UNL     1     -41.865  54.604 -53.456  1.00  0.00     0.255 C 
HETATM    4  O   UNL     1     -41.490  54.029 -54.460  1.00  0.00    -0.267 OA
HETATM    5  C   UNL     1     -41.425  54.266 -52.099  1.00  0.00     0.040 A 
HETATM    6  C   UNL     1     -42.188  55.008 -51.200  1.00  0.00    -0.015 A 
HETATM    7  C   UNL     1     -40.472  53.350 -51.696  1.00  0.00     0.017 A 
HETATM    8  C   UNL     1     -40.281  53.186 -50.323  1.00  0.00     0.001 A 
HETATM    9  C   UNL     1     -41.044  53.925 -49.401  1.00  0.00     0.001 A 
HETATM   10  C   UNL     1     -42.009  54.840 -49.836  1.00  0.00     0.011 A 
ENDROOT
BRANCH   1  11
HETATM   11  C   UNL     1     -43.055  57.257 -51.525  1.00  0.00     0.004 A 
HETATM   12  C   UNL     1     -44.120  58.136 -51.326  1.00  0.00     0.017 A 
HETATM   13  C   UNL     1     -45.588  57.919 -51.492  1.00  0.00     0.069 C 
HETATM   14  N   UNL     1     -43.600  59.350 -50.925  1.00  0.00    -0.354 N 
HETATM   15  C   UNL     1     -44.400  60.523 -50.634  1.00  0.00     0.156 C 
HETATM   16  C   UNL     1     -42.226  59.285 -50.847  1.00  0.00     0.045 A 
HETATM   17  C   UNL     1     -41.854  57.990 -51.216  1.00  0.00     0.001 A 
HETATM   18  C   UNL     1     -41.274  60.257 -50.485  1.00  0.00     0.030 A 
HETATM   19  C   UNL     1     -40.479  57.662 -51.211  1.00  0.00     0.014 A 
HETATM   20  C   UNL     1     -39.527  58.621 -50.851  1.00  0.00     0.001 A 
HETATM   21  C   UNL     1     -39.923  59.902 -50.493  1.00  0.00     0.002 A 
ENDBRANCH   1  11
BRANCH   2  22
HETATM   22  C   UNL     1     -43.812  55.775 -54.393  1.00  0.00     0.229 C 
BRANCH  22  23
HETATM   23  C   UNL     1     -43.453  56.657 -55.591  1.00  0.00     0.235 C 
HETATM   24  N   UNL     1     -43.354  56.009 -56.802  1.00  0.00    -0.357 N 
HETATM   25  H   UNL     1     -43.682  55.052 -56.856  1.00  0.00     0.162 HD
HETATM   26  O   UNL     1     -43.128  57.835 -55.441  1.00  0.00    -0.272 OA
BRANCH  24  27
HETATM   27  C   UNL     1     -43.098  56.750 -58.027  1.00  0.00     0.154 C 
BRANCH  27  28
HETATM   28  C   UNL     1     -43.258  55.892 -59.295  1.00  0.00     0.139 C 
HETATM   29  O   UNL     1     -44.013  54.698 -58.980  1.00  0.00    -0.384 OA
HETATM   30  C   UNL     1     -44.981  54.506 -60.015  1.00  0.00     0.168 C 
HETATM   31  C   UNL     1     -45.344  55.895 -60.477  1.00  0.00     0.029 C 
HETATM   32  C   UNL     1     -44.016  56.609 -60.413  1.00  0.00     0.035 C 
ENDBRANCH  27  28
ENDBRANCH  24  27
ENDBRANCH  22  23
ENDBRANCH   2  22
TORSDOF 5
ENDMDL
MODEL 9
REMARK VINA RESULT:      -8.1      1.604      2.647
REMARK  5 active torsions:
REMARK  status: ('A' for Active; 'I' for Inactive)
REMARK    1  A    between atoms: C_7  and  C_8 
REMARK    2  A    between atoms: N_9  and  C_10 
REMARK    3  A    between atoms: C_10  and  C_11 
REMARK       I    between atoms: C_11  and  N_12 
REMARK    4  A    between atoms: N_12  and  C_13 
REMARK    5  A    between atoms: C_13  and  C_14 
ROOT
HETATM    1  C   UNL     1     -42.781  57.849 -53.532  1.00  0.00     0.158 C 
HETATM    2  N   UNL     1     -44.191  58.105 -53.796  1.00  0.00    -0.326 N 
HETATM    3  C   UNL     1     -44.596  59.259 -53.123  1.00  0.00     0.255 C 
HETATM    4  O   UNL     1     -45.624  59.891 -53.276  1.00  0.00    -0.267 OA
HETATM    5  C   UNL     1     -43.525  59.638 -52.196  1.00  0.00     0.040 A 
HETATM    6  C   UNL     1     -42.443  58.789 -52.417  1.00  0.00    -0.015 A 
HETATM    7  C   UNL     1     -43.494  60.669 -51.276  1.00  0.00     0.017 A 
HETATM    8  C   UNL     1     -42.317  60.842 -50.546  1.00  0.00     0.001 A 
HETATM    9  C   UNL     1     -41.214  59.996 -50.758  1.00  0.00     0.001 A 
HETATM   10  C   UNL     1     -41.268  58.965 -51.702  1.00  0.00     0.011 A 
ENDROOT
BRANCH   1  11
HETATM   11  C   UNL     1     -42.528  56.449 -53.069  1.00  0.00     0.004 A 
HETATM   12  C   UNL     1     -43.095  55.854 -51.942  1.00  0.00     0.017 A 
HETATM   13  C   UNL     1     -44.049  56.413 -50.937  1.00  0.00     0.069 C 
HETATM   14  N   UNL     1     -42.615  54.563 -51.855  1.00  0.00    -0.354 N 
HETATM   15  C   UNL     1     -42.969  53.630 -50.802  1.00  0.00     0.156 C 
HETATM   16  C   UNL     1     -41.758  54.295 -52.900  1.00  0.00     0.045 A 
HETATM   17  C   UNL     1     -41.683  55.454 -53.677  1.00  0.00     0.001 A 
HETATM   18  C   UNL     1     -41.039  53.131 -53.230  1.00  0.00     0.030 A 
HETATM   19  C   UNL     1     -40.862  55.434 -54.828  1.00  0.00     0.014 A 
HETATM   20  C   UNL     1     -40.146  54.281 -55.163  1.00  0.00     0.001 A 
HETATM   21  C   UNL     1     -40.234  53.145 -54.372  1.00  0.00     0.002 A 
ENDBRANCH   1  11
BRANCH   2  22
HETATM   22  C   UNL     1     -44.715  57.848 -55.131  1.00  0.00     0.229 C 
BRANCH  22  23
HETATM   23  C   UNL     1     -43.850  58.314 -56.304  1.00  0.00     0.235 C 
HETATM   24  N   UNL     1     -43.265  57.316 -57.050  1.00  0.00    -0.357 N 
HETATM   25  H   UNL     1     -43.570  56.363 -56.889  1.00  0.00     0.162 HD
HETATM   26  O   UNL     1     -43.581  59.505 -56.464  1.00  0.00    -0.272 OA
BRANCH  24  27
HETATM   27  C   UNL     1     -42.486  57.628 -58.237  1.00  0.00     0.154 C 
BRANCH  27  28
HETATM   28  C   UNL     1     -42.718  56.635 -59.390  1.00  0.00     0.139 C 
HETATM   29  O   UNL     1     -43.237  55.392 -58.862  1.00  0.00    -0.384 OA
HETATM   30  C   UNL     1     -44.318  54.977 -59.702  1.00  0.00     0.168 C 
HETATM   31  C   UNL     1     -44.942  56.256 -60.202  1.00  0.00     0.029 C 
HETATM   32  C   UNL     1     -43.735  57.135 -60.417  1.00  0.00     0.035 C 
ENDBRANCH  27  28
ENDBRANCH  24  27
ENDBRANCH  22  23
ENDBRANCH   2  22
TORSDOF 5
ENDMDL
MODEL 10
REMARK VINA RESULT:      -7.9      2.133      5.307
REMARK  5 active torsions:
REMARK  status: ('A' for Active; 'I' for Inactive)
REMARK    1  A    between atoms: C_7  and  C_8 
REMARK    2  A    between atoms: N_9  and  C_10 
REMARK    3  A    between atoms: C_10  and  C_11 
REMARK       I    between atoms: C_11  and  N_12 
REMARK    4  A    between atoms: N_12  and  C_13 
REMARK    5  A    between atoms: C_13  and  C_14 
ROOT
HETATM    1  C   UNL     1     -43.023  55.772 -51.838  1.00  0.00     0.158 C 
HETATM    2  N   UNL     1     -42.564  55.531 -53.200  1.00  0.00    -0.326 N 
HETATM    3  C   UNL     1     -41.600  54.521 -53.201  1.00  0.00     0.255 C 
HETATM    4  O   UNL     1     -41.156  53.914 -54.157  1.00  0.00    -0.267 OA
HETATM    5  C   UNL     1     -41.221  54.259 -51.809  1.00  0.00     0.040 A 
HETATM    6  C   UNL     1     -42.051  55.017 -50.986  1.00  0.00    -0.015 A 
HETATM    7  C   UNL     1     -40.262  53.395 -51.316  1.00  0.00     0.017 A 
HETATM    8  C   UNL     1     -40.138  53.299 -49.929  1.00  0.00     0.001 A 
HETATM    9  C   UNL     1     -40.970  54.054 -49.083  1.00  0.00     0.001 A 
HETATM   10  C   UNL     1     -41.938  54.916 -49.608  1.00  0.00     0.011 A 
ENDROOT
BRANCH   1  11
HETATM   11  C   UNL     1     -42.967  57.219 -51.460  1.00  0.00     0.004 A 
HETATM   12  C   UNL     1     -44.071  58.059 -51.311  1.00  0.00     0.017 A 
HETATM   13  C   UNL     1     -45.527  57.773 -51.485  1.00  0.00     0.069 C 
HETATM   14  N   UNL     1     -43.609  59.311 -50.959  1.00  0.00    -0.354 N 
HETATM   15  C   UNL     1     -44.461  60.460 -50.729  1.00  0.00     0.156 C 
HETATM   16  C   UNL     1     -42.234  59.308 -50.862  1.00  0.00     0.045 A 
HETATM   17  C   UNL     1     -41.803  58.015 -51.169  1.00  0.00     0.001 A 
HETATM   18  C   UNL     1     -41.328  60.334 -50.532  1.00  0.00     0.030 A 
HETATM   19  C   UNL     1     -40.415  57.747 -51.133  1.00  0.00     0.014 A 
HETATM   20  C   UNL     1     -39.510  58.760 -50.805  1.00  0.00     0.001 A 
HETATM   21  C   UNL     1     -39.964  60.038 -50.508  1.00  0.00     0.002 A 
ENDBRANCH   1  11
BRANCH   2  22
HETATM   22  C   UNL     1     -43.530  55.584 -54.289  1.00  0.00     0.229 C 
BRANCH  22  23
HETATM   23  C   UNL     1     -43.192  56.518 -55.453  1.00  0.00     0.235 C 
HETATM   24  N   UNL     1     -44.232  57.287 -55.925  1.00  0.00    -0.357 N 
HETATM   25  H   UNL     1     -45.087  57.314 -55.381  1.00  0.00     0.162 HD
HETATM   26  O   UNL     1     -42.099  56.463 -56.019  1.00  0.00    -0.272 OA
BRANCH  24  27
HETATM   27  C   UNL     1     -44.019  58.270 -56.975  1.00  0.00     0.154 C 
BRANCH  27  28
HETATM   28  C   UNL     1     -43.734  59.681 -56.430  1.00  0.00     0.139 C 
HETATM   29  O   UNL     1     -44.338  59.827 -55.124  1.00  0.00    -0.384 OA
HETATM   30  C   UNL     1     -43.383  60.461 -54.268  1.00  0.00     0.168 C 
HETATM   31  C   UNL     1     -42.038  59.993 -54.764  1.00  0.00     0.029 C 
HETATM   32  C   UNL     1     -42.241  59.969 -56.260  1.00  0.00     0.035 C 
ENDBRANCH  27  28
ENDBRANCH  24  27
ENDBRANCH  22  23
ENDBRANCH   2  22
TORSDOF 5
ENDMDL
