MODEL 1
REMARK VINA RESULT:      -7.6      0.000      0.000
REMARK  6 active torsions:
REMARK  status: ('A' for Active; 'I' for Inactive)
REMARK    1  A    between atoms: C_2  and  N_3 
REMARK    2  A    between atoms: N_3  and  C_5 
REMARK    3  A    between atoms: N_3  and  C_28 
REMARK    4  A    between atoms: C_8  and  C_9 
REMARK    5  A    between atoms: N_10  and  C_11 
REMARK    6  A    between atoms: C_11  and  C_12 
ROOT
HETATM    1  C   UNL     1     -42.198  55.604 -56.380  1.00  0.00     0.199 C 
HETATM    2  N   UNL     1     -42.604  56.998 -56.333  1.00  0.00    -0.321 N 
HETATM    3  C   UNL     1     -43.031  57.592 -57.519  1.00  0.00     0.257 C 
HETATM    4  O   UNL     1     -43.020  58.804 -57.716  1.00  0.00    -0.267 OA
HETATM    5  C   UNL     1     -43.558  56.684 -58.560  1.00  0.00     0.053 A 
HETATM    6  C   UNL     1     -43.664  55.322 -58.255  1.00  0.00     0.026 A 
HETATM    7  N   UNL     1     -43.267  54.827 -56.998  1.00  0.00    -0.266 NA
HETATM    8  C   UNL     1     -43.996  57.187 -59.790  1.00  0.00     0.019 A 
HETATM    9  C   UNL     1     -44.590  56.330 -60.715  1.00  0.00     0.001 A 
HETATM   10  C   UNL     1     -44.762  54.984 -60.397  1.00  0.00     0.002 A 
HETATM   11  C   UNL     1     -44.314  54.486 -59.169  1.00  0.00     0.024 A 
HETATM   12  H   UNL     1     -43.043  53.838 -57.053  1.00  0.00     0.130 HD
ENDROOT
BRANCH   1  13
HETATM   13  C   UNL     1     -41.890  54.965 -55.029  1.00  0.00    -0.021 A 
HETATM   14  C   UNL     1     -40.575  54.681 -54.635  1.00  0.00     0.013 A 
HETATM   15  C   UNL     1     -40.317  54.007 -53.435  1.00  0.00     0.038 A 
HETATM   16  C   UNL     1     -41.361  53.654 -52.568  1.00  0.00     0.134 A 
HETATM   17  C   UNL     1     -42.670  53.977 -52.937  1.00  0.00     0.038 A 
HETATM   18  C   UNL     1     -42.931  54.615 -54.157  1.00  0.00     0.013 A 
BRANCH  16  19
HETATM   19  N   UNL     1     -41.024  52.892 -51.324  1.00  0.00    -0.042 N 
HETATM   20  H   UNL     1     -41.783  52.199 -51.253  1.00  0.00     0.286 HD
BRANCH  19  21
HETATM   21  C   UNL     1     -41.064  53.673 -50.027  1.00  0.00     0.237 C 
HETATM   22  C   UNL     1     -39.727  54.334 -49.736  1.00  0.00     0.035 C 
ENDBRANCH  19  21
BRANCH  19  23
HETATM   23  C   UNL     1     -39.746  52.084 -51.465  1.00  0.00     0.237 C 
HETATM   24  C   UNL     1     -39.851  50.696 -50.860  1.00  0.00     0.035 C 
ENDBRANCH  19  23
ENDBRANCH  16  19
ENDBRANCH   1  13
BRANCH   2  25
HETATM   25  C   UNL     1     -42.134  57.889 -55.277  1.00  0.00     0.193 C 
BRANCH  25  26
HETATM   26  C   UNL     1     -43.093  57.981 -54.145  1.00  0.00     0.070 A 
HETATM   27  O   UNL     1     -42.569  57.870 -52.887  1.00  0.00    -0.325 OA
HETATM   28  C   UNL     1     -43.613  57.891 -52.021  1.00  0.00     0.142 A 
HETATM   29  C   UNL     1     -44.801  58.041 -52.699  1.00  0.00     0.027 A 
HETATM   30  C   UNL     1     -44.465  58.102 -54.073  1.00  0.00     0.036 A 
ENDBRANCH  25  26
ENDBRANCH   2  25
TORSDOF 6
ENDMDL
MODEL 2
REMARK VINA RESULT:      -7.5      2.583      7.205
REMARK  6 active torsions:
REMARK  status: ('A' for Active; 'I' for Inactive)
REMARK    1  A    between atoms: C_2  and  N_3 
REMARK    2  A    between atoms: N_3  and  C_5 
REMARK    3  A    between atoms: N_3  and  C_28 
REMARK    4  A    between atoms: C_8  and  C_9 
REMARK    5  A    between atoms: N_10  and  C_11 
REMARK    6  A    between atoms: C_11  and  C_12 
ROOT
HETATM    1  C   UNL     1     -42.429  54.690 -53.535  1.00  0.00     0.199 C 
HETATM    2  N   UNL     1     -41.753  55.177 -52.345  1.00  0.00    -0.321 N 
HETATM    3  C   UNL     1     -41.082  54.249 -51.551  1.00  0.00     0.257 C 
HETATM    4  O   UNL     1     -40.822  54.429 -50.365  1.00  0.00    -0.267 OA
HETATM    5  C   UNL     1     -40.639  53.006 -52.219  1.00  0.00     0.053 A 
HETATM    6  C   UNL     1     -40.850  52.888 -53.598  1.00  0.00     0.026 A 
HETATM    7  N   UNL     1     -41.480  53.915 -54.326  1.00  0.00    -0.266 NA
HETATM    8  C   UNL     1     -39.972  52.009 -51.500  1.00  0.00     0.019 A 
HETATM    9  C   UNL     1     -39.466  50.896 -52.170  1.00  0.00     0.001 A 
HETATM   10  C   UNL     1     -39.612  50.796 -53.552  1.00  0.00     0.002 A 
HETATM   11  C   UNL     1     -40.288  51.793 -54.264  1.00  0.00     0.024 A 
HETATM   12  H   UNL     1     -41.895  53.552 -55.179  1.00  0.00     0.130 HD
ENDROOT
BRANCH   1  13
HETATM   13  C   UNL     1     -43.012  55.767 -54.445  1.00  0.00    -0.021 A 
HETATM   14  C   UNL     1     -44.231  56.394 -54.152  1.00  0.00     0.013 A 
HETATM   15  C   UNL     1     -44.798  57.310 -55.046  1.00  0.00     0.038 A 
HETATM   16  C   UNL     1     -44.134  57.670 -56.227  1.00  0.00     0.134 A 
HETATM   17  C   UNL     1     -42.896  57.080 -56.500  1.00  0.00     0.038 A 
HETATM   18  C   UNL     1     -42.347  56.133 -55.624  1.00  0.00     0.013 A 
BRANCH  16  19
HETATM   19  N   UNL     1     -44.815  58.618 -57.165  1.00  0.00    -0.042 N 
HETATM   20  H   UNL     1     -45.458  59.141 -56.553  1.00  0.00     0.286 HD
BRANCH  19  21
HETATM   21  C   UNL     1     -45.687  57.993 -58.234  1.00  0.00     0.237 C 
HETATM   22  C   UNL     1     -47.154  58.027 -57.843  1.00  0.00     0.035 C 
ENDBRANCH  19  21
BRANCH  19  23
HETATM   23  C   UNL     1     -43.864  59.655 -57.737  1.00  0.00     0.237 C 
HETATM   24  C   UNL     1     -43.673  59.522 -59.237  1.00  0.00     0.035 C 
ENDBRANCH  19  23
ENDBRANCH  16  19
ENDBRANCH   1  13
BRANCH   2  25
HETATM   25  C   UNL     1     -42.145  56.431 -51.710  1.00  0.00     0.193 C 
BRANCH  25  26
HETATM   26  C   UNL     1     -41.130  57.501 -51.893  1.00  0.00     0.070 A 
HETATM   27  O   UNL     1     -40.610  58.054 -50.757  1.00  0.00    -0.325 OA
HETATM   28  C   UNL     1     -39.783  59.057 -51.148  1.00  0.00     0.142 A 
HETATM   29  C   UNL     1     -39.742  59.141 -52.520  1.00  0.00     0.027 A 
HETATM   30  C   UNL     1     -40.612  58.134 -53.004  1.00  0.00     0.036 A 
ENDBRANCH  25  26
ENDBRANCH   2  25
TORSDOF 6
ENDMDL
MODEL 3
REMARK VINA RESULT:      -7.1      1.904      4.977
REMARK  6 active torsions:
REMARK  status: ('A' for Active; 'I' for Inactive)
REMARK    1  A    between atoms: C_2  and  N_3 
REMARK    2  A    between atoms: N_3  and  C_5 
REMARK    3  A    between atoms: N_3  and  C_28 
REMARK    4  A    between atoms: C_8  and  C_9 
REMARK    5  A    between atoms: N_10  and  C_11 
REMARK    6  A    between atoms: C_11  and  C_12 
ROOT
HETATM    1  C   UNL     1     -43.357  56.276 -53.539  1.00  0.00     0.199 C 
HETATM    2  N   UNL     1     -42.747  57.382 -54.255  1.00  0.00    -0.321 N 
HETATM    3  C   UNL     1     -43.446  58.587 -54.311  1.00  0.00     0.257 C 
HETATM    4  O   UNL     1     -43.262  59.441 -55.173  1.00  0.00    -0.267 OA
HETATM    5  C   UNL     1     -44.427  58.832 -53.232  1.00  0.00     0.053 A 
HETATM    6  C   UNL     1     -44.525  57.888 -52.203  1.00  0.00     0.026 A 
HETATM    7  N   UNL     1     -43.724  56.731 -52.201  1.00  0.00    -0.266 NA
HETATM    8  C   UNL     1     -45.187  60.007 -53.214  1.00  0.00     0.019 A 
HETATM    9  C   UNL     1     -46.025  60.269 -52.131  1.00  0.00     0.001 A 
HETATM   10  C   UNL     1     -46.083  59.369 -51.068  1.00  0.00     0.002 A 
HETATM   11  C   UNL     1     -45.327  58.193 -51.098  1.00  0.00     0.024 A 
HETATM   12  H   UNL     1     -44.151  55.995 -51.647  1.00  0.00     0.130 HD
ENDROOT
BRANCH   1  13
HETATM   13  C   UNL     1     -42.483  55.036 -53.377  1.00  0.00    -0.021 A 
HETATM   14  C   UNL     1     -41.568  54.916 -52.321  1.00  0.00     0.013 A 
HETATM   15  C   UNL     1     -40.706  53.816 -52.242  1.00  0.00     0.038 A 
HETATM   16  C   UNL     1     -40.777  52.777 -53.182  1.00  0.00     0.134 A 
HETATM   17  C   UNL     1     -41.718  52.873 -54.210  1.00  0.00     0.038 A 
HETATM   18  C   UNL     1     -42.554  53.993 -54.312  1.00  0.00     0.013 A 
BRANCH  16  19
HETATM   19  N   UNL     1     -39.795  51.652 -53.071  1.00  0.00    -0.042 N 
HETATM   20  H   UNL     1     -39.007  51.961 -53.658  1.00  0.00     0.286 HD
BRANCH  19  21
HETATM   21  C   UNL     1     -40.232  50.320 -53.644  1.00  0.00     0.237 C 
HETATM   22  C   UNL     1     -39.309  49.868 -54.762  1.00  0.00     0.035 C 
ENDBRANCH  19  21
BRANCH  19  23
HETATM   23  C   UNL     1     -39.226  51.512 -51.669  1.00  0.00     0.237 C 
HETATM   24  C   UNL     1     -39.616  50.207 -50.998  1.00  0.00     0.035 C 
ENDBRANCH  19  23
ENDBRANCH  16  19
ENDBRANCH   1  13
BRANCH   2  25
HETATM   25  C   UNL     1     -41.737  57.154 -55.282  1.00  0.00     0.193 C 
BRANCH  25  26
HETATM   26  C   UNL     1     -42.335  56.852 -56.609  1.00  0.00     0.070 A 
HETATM   27  O   UNL     1     -42.188  57.803 -57.579  1.00  0.00    -0.325 OA
HETATM   28  C   UNL     1     -42.875  57.369 -58.666  1.00  0.00     0.142 A 
HETATM   29  C   UNL     1     -43.441  56.140 -58.420  1.00  0.00     0.027 A 
HETATM   30  C   UNL     1     -43.090  55.802 -57.090  1.00  0.00     0.036 A 
ENDBRANCH  25  26
ENDBRANCH   2  25
TORSDOF 6
ENDMDL
MODEL 4
REMARK VINA RESULT:      -7.0      2.782      6.890
REMARK  6 active torsions:
REMARK  status: ('A' for Active; 'I' for Inactive)
REMARK    1  A    between atoms: C_2  and  N_3 
REMARK    2  A    between atoms: N_3  and  C_5 
REMARK    3  A    between atoms: N_3  and  C_28 
REMARK    4  A    between atoms: C_8  and  C_9 
REMARK    5  A    between atoms: N_10  and  C_11 
REMARK    6  A    between atoms: C_11  and  C_12 
ROOT
HETATM    1  C   UNL     1     -42.227  56.244 -52.846  1.00  0.00     0.199 C 
HETATM    2  N   UNL     1     -42.947  55.580 -53.918  1.00  0.00    -0.321 N 
HETATM    3  C   UNL     1     -42.356  54.463 -54.506  1.00  0.00     0.257 C 
HETATM    4  O   UNL     1     -42.634  54.059 -55.631  1.00  0.00    -0.267 OA
HETATM    5  C   UNL     1     -41.373  53.726 -53.683  1.00  0.00     0.053 A 
HETATM    6  C   UNL     1     -41.169  54.148 -52.364  1.00  0.00     0.026 A 
HETATM    7  N   UNL     1     -41.868  55.252 -51.839  1.00  0.00    -0.266 NA
HETATM    8  C   UNL     1     -40.717  52.601 -54.194  1.00  0.00     0.019 A 
HETATM    9  C   UNL     1     -39.877  51.857 -53.366  1.00  0.00     0.001 A 
HETATM   10  C   UNL     1     -39.716  52.227 -52.033  1.00  0.00     0.002 A 
HETATM   11  C   UNL     1     -40.369  53.358 -51.531  1.00  0.00     0.024 A 
HETATM   12  H   UNL     1     -41.365  55.660 -51.057  1.00  0.00     0.130 HD
ENDROOT
BRANCH   1  13
HETATM   13  C   UNL     1     -42.988  57.361 -52.138  1.00  0.00    -0.021 A 
HETATM   14  C   UNL     1     -44.206  57.121 -51.486  1.00  0.00     0.013 A 
HETATM   15  C   UNL     1     -44.937  58.174 -50.925  1.00  0.00     0.038 A 
HETATM   16  C   UNL     1     -44.443  59.486 -50.945  1.00  0.00     0.134 A 
HETATM   17  C   UNL     1     -43.207  59.722 -51.554  1.00  0.00     0.038 A 
HETATM   18  C   UNL     1     -42.493  58.674 -52.151  1.00  0.00     0.013 A 
BRANCH  16  19
HETATM   19  N   UNL     1     -45.295  60.575 -50.371  1.00  0.00    -0.042 N 
HETATM   20  H   UNL     1     -46.133  60.075 -50.040  1.00  0.00     0.286 HD
BRANCH  19  21
HETATM   21  C   UNL     1     -45.799  61.617 -51.346  1.00  0.00     0.237 C 
HETATM   22  C   UNL     1     -46.932  61.075 -52.201  1.00  0.00     0.035 C 
ENDBRANCH  19  21
BRANCH  19  23
HETATM   23  C   UNL     1     -44.680  61.202 -49.131  1.00  0.00     0.237 C 
HETATM   24  C   UNL     1     -45.507  60.975 -47.879  1.00  0.00     0.035 C 
ENDBRANCH  19  23
ENDBRANCH  16  19
ENDBRANCH   1  13
BRANCH   2  25
HETATM   25  C   UNL     1     -43.959  56.282 -54.699  1.00  0.00     0.193 C 
BRANCH  25  26
HETATM   26  C   UNL     1     -43.365  57.136 -55.762  1.00  0.00     0.070 A 
HETATM   27  O   UNL     1     -43.585  56.749 -57.054  1.00  0.00    -0.325 OA
HETATM   28  C   UNL     1     -42.890  57.604 -57.846  1.00  0.00     0.142 A 
HETATM   29  C   UNL     1     -42.246  58.552 -57.085  1.00  0.00     0.027 A 
HETATM   30  C   UNL     1     -42.555  58.252 -55.736  1.00  0.00     0.036 A 
ENDBRANCH  25  26
ENDBRANCH   2  25
TORSDOF 6
ENDMDL
MODEL 5
REMARK VINA RESULT:      -7.0      2.250      7.073
REMARK  6 active torsions:
REMARK  status: ('A' for Active; 'I' for Inactive)
REMARK    1  A    between atoms: C_2  and  N_3 
REMARK    2  A    between atoms: N_3  and  C_5 
REMARK    3  A    between atoms: N_3  and  C_28 
REMARK    4  A    between atoms: C_8  and  C_9 
REMARK    5  A    between atoms: N_10  and  C_11 
REMARK    6  A    between atoms: C_11  and  C_12 
ROOT
HETATM    1  C   UNL     1     -41.710  53.714 -53.509  1.00  0.00     0.199 C 
HETATM    2  N   UNL     1     -40.890  54.044 -52.358  1.00  0.00    -0.321 N 
HETATM    3  C   UNL     1     -40.298  52.995 -51.657  1.00  0.00     0.257 C 
HETATM    4  O   UNL     1     -39.931  53.078 -50.489  1.00  0.00    -0.267 OA
HETATM    5  C   UNL     1     -40.081  51.739 -52.407  1.00  0.00     0.053 A 
HETATM    6  C   UNL     1     -40.406  51.720 -53.768  1.00  0.00     0.026 A 
HETATM    7  N   UNL     1     -40.938  52.858 -54.404  1.00  0.00    -0.266 NA
HETATM    8  C   UNL     1     -39.508  50.626 -51.783  1.00  0.00     0.019 A 
HETATM    9  C   UNL     1     -39.212  49.490 -52.534  1.00  0.00     0.001 A 
HETATM   10  C   UNL     1     -39.468  49.481 -53.904  1.00  0.00     0.002 A 
HETATM   11  C   UNL     1     -40.049  50.595 -54.520  1.00  0.00     0.024 A 
HETATM   12  H   UNL     1     -41.459  52.598 -55.235  1.00  0.00     0.130 HD
ENDROOT
BRANCH   1  13
HETATM   13  C   UNL     1     -42.203  54.905 -54.327  1.00  0.00    -0.021 A 
HETATM   14  C   UNL     1     -43.561  55.248 -54.379  1.00  0.00     0.013 A 
HETATM   15  C   UNL     1     -44.007  56.283 -55.209  1.00  0.00     0.038 A 
HETATM   16  C   UNL     1     -43.101  57.043 -55.963  1.00  0.00     0.134 A 
HETATM   17  C   UNL     1     -41.740  56.732 -55.879  1.00  0.00     0.038 A 
HETATM   18  C   UNL     1     -41.298  55.670 -55.078  1.00  0.00     0.013 A 
BRANCH  16  19
HETATM   19  N   UNL     1     -43.645  58.104 -56.869  1.00  0.00    -0.042 N 
HETATM   20  H   UNL     1     -44.223  58.682 -56.242  1.00  0.00     0.286 HD
BRANCH  19  21
HETATM   21  C   UNL     1     -44.576  57.636 -57.968  1.00  0.00     0.237 C 
HETATM   22  C   UNL     1     -43.864  56.717 -58.945  1.00  0.00     0.035 C 
ENDBRANCH  19  21
BRANCH  19  23
HETATM   23  C   UNL     1     -42.562  59.032 -57.394  1.00  0.00     0.237 C 
HETATM   24  C   UNL     1     -42.373  60.268 -56.535  1.00  0.00     0.035 C 
ENDBRANCH  19  23
ENDBRANCH  16  19
ENDBRANCH   1  13
BRANCH   2  25
HETATM   25  C   UNL     1     -41.058  55.306 -51.644  1.00  0.00     0.193 C 
BRANCH  25  26
HETATM   26  C   UNL     1     -42.460  55.525 -51.201  1.00  0.00     0.070 A 
HETATM   27  O   UNL     1     -42.980  56.772 -51.407  1.00  0.00    -0.325 OA
HETATM   28  C   UNL     1     -44.220  56.779 -50.856  1.00  0.00     0.142 A 
HETATM   29  C   UNL     1     -44.518  55.547 -50.321  1.00  0.00     0.027 A 
HETATM   30  C   UNL     1     -43.380  54.734 -50.546  1.00  0.00     0.036 A 
ENDBRANCH  25  26
ENDBRANCH   2  25
TORSDOF 6
ENDMDL
MODEL 6
REMARK VINA RESULT:      -7.0      3.075      7.190
REMARK  6 active torsions:
REMARK  status: ('A' for Active; 'I' for Inactive)
REMARK    1  A    between atoms: C_2  and  N_3 
REMARK    2  A    between atoms: N_3  and  C_5 
REMARK    3  A    between atoms: N_3  and  C_28 
REMARK    4  A    between atoms: C_8  and  C_9 
REMARK    5  A    between atoms: N_10  and  C_11 
REMARK    6  A    between atoms: C_11  and  C_12 
ROOT
HETATM    1  C   UNL     1     -42.456  55.021 -53.197  1.00  0.00     0.199 C 
HETATM    2  N   UNL     1     -42.100  55.317 -51.821  1.00  0.00    -0.321 N 
HETATM    3  C   UNL     1     -41.532  54.297 -51.060  1.00  0.00     0.257 C 
HETATM    4  O   UNL     1     -41.551  54.270 -49.834  1.00  0.00    -0.267 OA
HETATM    5  C   UNL     1     -40.842  53.223 -51.807  1.00  0.00     0.053 A 
HETATM    6  C   UNL     1     -40.740  53.348 -53.198  1.00  0.00     0.026 A 
HETATM    7  N   UNL     1     -41.291  54.455 -53.869  1.00  0.00    -0.266 NA
HETATM    8  C   UNL     1     -40.255  52.148 -51.131  1.00  0.00     0.019 A 
HETATM    9  C   UNL     1     -39.516  51.205 -51.843  1.00  0.00     0.001 A 
HETATM   10  C   UNL     1     -39.350  51.353 -53.219  1.00  0.00     0.002 A 
HETATM   11  C   UNL     1     -39.947  52.425 -53.890  1.00  0.00     0.024 A 
HETATM   12  H   UNL     1     -41.477  54.233 -54.842  1.00  0.00     0.130 HD
ENDROOT
BRANCH   1  13
HETATM   13  C   UNL     1     -42.927  56.214 -54.024  1.00  0.00    -0.021 A 
HETATM   14  C   UNL     1     -42.018  57.088 -54.636  1.00  0.00     0.013 A 
HETATM   15  C   UNL     1     -42.465  58.230 -55.311  1.00  0.00     0.038 A 
HETATM   16  C   UNL     1     -43.835  58.497 -55.444  1.00  0.00     0.134 A 
HETATM   17  C   UNL     1     -44.746  57.604 -54.873  1.00  0.00     0.038 A 
HETATM   18  C   UNL     1     -44.297  56.481 -54.164  1.00  0.00     0.013 A 
BRANCH  16  19
HETATM   19  N   UNL     1     -44.249  59.760 -56.134  1.00  0.00    -0.042 N 
HETATM   20  H   UNL     1     -44.529  59.441 -57.072  1.00  0.00     0.286 HD
BRANCH  19  21
HETATM   21  C   UNL     1     -43.160  60.788 -56.362  1.00  0.00     0.237 C 
HETATM   22  C   UNL     1     -43.247  61.388 -57.755  1.00  0.00     0.035 C 
ENDBRANCH  19  21
BRANCH  19  23
HETATM   23  C   UNL     1     -45.496  60.375 -55.523  1.00  0.00     0.237 C 
HETATM   24  C   UNL     1     -45.192  61.314 -54.370  1.00  0.00     0.035 C 
ENDBRANCH  19  23
ENDBRANCH  16  19
ENDBRANCH   1  13
BRANCH   2  25
HETATM   25  C   UNL     1     -42.735  56.411 -51.093  1.00  0.00     0.193 C 
BRANCH  25  26
HETATM   26  C   UNL     1     -41.912  57.649 -51.099  1.00  0.00     0.070 A 
HETATM   27  O   UNL     1     -42.512  58.781 -51.578  1.00  0.00    -0.325 OA
HETATM   28  C   UNL     1     -41.569  59.757 -51.578  1.00  0.00     0.142 A 
HETATM   29  C   UNL     1     -40.379  59.279 -51.082  1.00  0.00     0.027 A 
HETATM   30  C   UNL     1     -40.600  57.916 -50.769  1.00  0.00     0.036 A 
ENDBRANCH  25  26
ENDBRANCH   2  25
TORSDOF 6
ENDMDL
MODEL 7
REMARK VINA RESULT:      -6.7      2.860      6.837
REMARK  6 active torsions:
REMARK  status: ('A' for Active; 'I' for Inactive)
REMARK    1  A    between atoms: C_2  and  N_3 
REMARK    2  A    between atoms: N_3  and  C_5 
REMARK    3  A    between atoms: N_3  and  C_28 
REMARK    4  A    between atoms: C_8  and  C_9 
REMARK    5  A    between atoms: N_10  and  C_11 
REMARK    6  A    between atoms: C_11  and  C_12 
ROOT
HETATM    1  C   UNL     1     -40.678  55.763 -52.642  1.00  0.00     0.199 C 
HETATM    2  N   UNL     1     -41.026  55.247 -53.954  1.00  0.00    -0.321 N 
HETATM    3  C   UNL     1     -40.550  53.985 -54.305  1.00  0.00     0.257 C 
HETATM    4  O   UNL     1     -40.424  53.603 -55.464  1.00  0.00    -0.267 OA
HETATM    5  C   UNL     1     -40.228  53.068 -53.190  1.00  0.00     0.053 A 
HETATM    6  C   UNL     1     -40.496  53.496 -51.885  1.00  0.00     0.026 A 
HETATM    7  N   UNL     1     -41.042  54.770 -51.637  1.00  0.00    -0.266 NA
HETATM    8  C   UNL     1     -39.729  51.786 -53.445  1.00  0.00     0.019 A 
HETATM    9  C   UNL     1     -39.536  50.898 -52.387  1.00  0.00     0.001 A 
HETATM   10  C   UNL     1     -39.860  51.289 -51.089  1.00  0.00     0.002 A 
HETATM   11  C   UNL     1     -40.350  52.576 -50.842  1.00  0.00     0.024 A 
HETATM   12  H   UNL     1     -40.828  55.078 -50.694  1.00  0.00     0.130 HD
ENDROOT
BRANCH   1  13
HETATM   13  C   UNL     1     -41.352  57.076 -52.253  1.00  0.00    -0.021 A 
HETATM   14  C   UNL     1     -42.593  57.098 -51.601  1.00  0.00     0.013 A 
HETATM   15  C   UNL     1     -43.241  58.311 -51.338  1.00  0.00     0.038 A 
HETATM   16  C   UNL     1     -42.640  59.535 -51.664  1.00  0.00     0.134 A 
HETATM   17  C   UNL     1     -41.383  59.517 -52.273  1.00  0.00     0.038 A 
HETATM   18  C   UNL     1     -40.751  58.302 -52.573  1.00  0.00     0.013 A 
BRANCH  16  19
HETATM   19  N   UNL     1     -43.406  60.794 -51.401  1.00  0.00    -0.042 N 
HETATM   20  H   UNL     1     -43.319  61.318 -52.284  1.00  0.00     0.286 HD
BRANCH  19  21
HETATM   21  C   UNL     1     -42.850  61.707 -50.329  1.00  0.00     0.237 C 
HETATM   22  C   UNL     1     -43.246  63.154 -50.572  1.00  0.00     0.035 C 
ENDBRANCH  19  21
BRANCH  19  23
HETATM   23  C   UNL     1     -44.894  60.544 -51.223  1.00  0.00     0.237 C 
HETATM   24  C   UNL     1     -45.681  60.703 -52.510  1.00  0.00     0.035 C 
ENDBRANCH  19  23
ENDBRANCH  16  19
ENDBRANCH   1  13
BRANCH   2  25
HETATM   25  C   UNL     1     -41.401  56.141 -55.045  1.00  0.00     0.193 C 
BRANCH  25  26
HETATM   26  C   UNL     1     -42.820  56.575 -54.961  1.00  0.00     0.070 A 
HETATM   27  O   UNL     1     -43.070  57.900 -55.183  1.00  0.00    -0.325 OA
HETATM   28  C   UNL     1     -44.396  58.093 -54.972  1.00  0.00     0.142 A 
HETATM   29  C   UNL     1     -45.011  56.907 -54.642  1.00  0.00     0.027 A 
HETATM   30  C   UNL     1     -43.992  55.923 -54.637  1.00  0.00     0.036 A 
ENDBRANCH  25  26
ENDBRANCH   2  25
TORSDOF 6
ENDMDL
MODEL 8
REMARK VINA RESULT:      -6.7      2.403      6.980
REMARK  6 active torsions:
REMARK  status: ('A' for Active; 'I' for Inactive)
REMARK    1  A    between atoms: C_2  and  N_3 
REMARK    2  A    between atoms: N_3  and  C_5 
REMARK    3  A    between atoms: N_3  and  C_28 
REMARK    4  A    between atoms: C_8  and  C_9 
REMARK    5  A    between atoms: N_10  and  C_11 
REMARK    6  A    between atoms: C_11  and  C_12 
ROOT
HETATM    1  C   UNL     1     -42.263  55.107 -53.780  1.00  0.00     0.199 C 
HETATM    2  N   UNL     1     -41.455  55.676 -52.716  1.00  0.00    -0.321 N 
HETATM    3  C   UNL     1     -40.811  54.799 -51.846  1.00  0.00     0.257 C 
HETATM    4  O   UNL     1     -40.443  55.107 -50.716  1.00  0.00    -0.267 OA
HETATM    5  C   UNL     1     -40.537  53.440 -52.362  1.00  0.00     0.053 A 
HETATM    6  C   UNL     1     -40.865  53.161 -53.693  1.00  0.00     0.026 A 
HETATM    7  N   UNL     1     -41.454  54.141 -54.516  1.00  0.00    -0.266 NA
HETATM    8  C   UNL     1     -39.909  52.485 -51.555  1.00  0.00     0.019 A 
HETATM    9  C   UNL     1     -39.561  51.247 -52.094  1.00  0.00     0.001 A 
HETATM   10  C   UNL     1     -39.822  50.980 -53.437  1.00  0.00     0.002 A 
HETATM   11  C   UNL     1     -40.458  51.937 -54.235  1.00  0.00     0.024 A 
HETATM   12  H   UNL     1     -41.965  53.712 -55.281  1.00  0.00     0.130 HD
ENDROOT
BRANCH   1  13
HETATM   13  C   UNL     1     -42.815  56.107 -54.792  1.00  0.00    -0.021 A 
HETATM   14  C   UNL     1     -44.138  56.565 -54.724  1.00  0.00     0.013 A 
HETATM   15  C   UNL     1     -44.656  57.407 -55.715  1.00  0.00     0.038 A 
HETATM   16  C   UNL     1     -43.849  57.863 -56.767  1.00  0.00     0.134 A 
HETATM   17  C   UNL     1     -42.516  57.444 -56.813  1.00  0.00     0.038 A 
HETATM   18  C   UNL     1     -42.008  56.568 -55.843  1.00  0.00     0.013 A 
BRANCH  16  19
HETATM   19  N   UNL     1     -44.475  58.722 -57.822  1.00  0.00    -0.042 N 
HETATM   20  H   UNL     1     -44.230  58.242 -58.700  1.00  0.00     0.286 HD
BRANCH  19  21
HETATM   21  C   UNL     1     -43.924  60.126 -57.958  1.00  0.00     0.237 C 
HETATM   22  C   UNL     1     -43.966  60.869 -56.634  1.00  0.00     0.035 C 
ENDBRANCH  19  21
BRANCH  19  23
HETATM   23  C   UNL     1     -45.992  58.707 -57.759  1.00  0.00     0.237 C 
HETATM   24  C   UNL     1     -46.619  57.765 -58.771  1.00  0.00     0.035 C 
ENDBRANCH  19  23
ENDBRANCH  16  19
ENDBRANCH   1  13
BRANCH   2  25
HETATM   25  C   UNL     1     -41.680  57.036 -52.239  1.00  0.00     0.193 C 
BRANCH  25  26
HETATM   26  C   UNL     1     -43.058  57.233 -51.716  1.00  0.00     0.070 A 
HETATM   27  O   UNL     1     -43.620  58.462 -51.919  1.00  0.00    -0.325 OA
HETATM   28  C   UNL     1     -44.825  58.453 -51.294  1.00  0.00     0.142 A 
HETATM   29  C   UNL     1     -45.058  57.228 -50.712  1.00  0.00     0.027 A 
HETATM   30  C   UNL     1     -43.916  56.437 -50.987  1.00  0.00     0.036 A 
ENDBRANCH  25  26
ENDBRANCH   2  25
TORSDOF 6
ENDMDL
MODEL 9
REMARK VINA RESULT:      -6.6      2.361      4.221
REMARK  6 active torsions:
REMARK  status: ('A' for Active; 'I' for Inactive)
REMARK    1  A    between atoms: C_2  and  N_3 
REMARK    2  A    between atoms: N_3  and  C_5 
REMARK    3  A    between atoms: N_3  and  C_28 
REMARK    4  A    between atoms: C_8  and  C_9 
REMARK    5  A    between atoms: N_10  and  C_11 
REMARK    6  A    between atoms: C_11  and  C_12 
ROOT
HETATM    1  C   UNL     1     -43.143  57.670 -55.960  1.00  0.00     0.199 C 
HETATM    2  N   UNL     1     -43.101  56.308 -56.462  1.00  0.00    -0.321 N 
HETATM    3  C   UNL     1     -43.299  56.110 -57.828  1.00  0.00     0.257 C 
HETATM    4  O   UNL     1     -43.676  55.048 -58.314  1.00  0.00    -0.267 OA
HETATM    5  C   UNL     1     -42.990  57.254 -58.712  1.00  0.00     0.053 A 
HETATM    6  C   UNL     1     -42.451  58.409 -58.133  1.00  0.00     0.026 A 
HETATM    7  N   UNL     1     -42.224  58.486 -56.746  1.00  0.00    -0.266 NA
HETATM    8  C   UNL     1     -43.173  57.155 -60.096  1.00  0.00     0.019 A 
HETATM    9  C   UNL     1     -42.773  58.205 -60.922  1.00  0.00     0.001 A 
HETATM   10  C   UNL     1     -42.174  59.333 -60.365  1.00  0.00     0.002 A 
HETATM   11  C   UNL     1     -42.002  59.429 -58.980  1.00  0.00     0.024 A 
HETATM   12  H   UNL     1     -42.205  59.453 -56.436  1.00  0.00     0.130 HD
ENDROOT
BRANCH   1  13
HETATM   13  C   UNL     1     -42.766  57.840 -54.492  1.00  0.00    -0.021 A 
HETATM   14  C   UNL     1     -41.429  57.813 -54.069  1.00  0.00     0.013 A 
HETATM   15  C   UNL     1     -41.107  57.874 -52.709  1.00  0.00     0.038 A 
HETATM   16  C   UNL     1     -42.107  58.025 -51.738  1.00  0.00     0.134 A 
HETATM   17  C   UNL     1     -43.438  58.098 -52.159  1.00  0.00     0.038 A 
HETATM   18  C   UNL     1     -43.764  57.997 -53.518  1.00  0.00     0.013 A 
BRANCH  16  19
HETATM   19  N   UNL     1     -41.701  58.035 -50.296  1.00  0.00    -0.042 N 
HETATM   20  H   UNL     1     -42.590  57.894 -49.795  1.00  0.00     0.286 HD
BRANCH  19  21
HETATM   21  C   UNL     1     -41.138  59.337 -49.766  1.00  0.00     0.237 C 
HETATM   22  C   UNL     1     -39.762  59.621 -50.342  1.00  0.00     0.035 C 
ENDBRANCH  19  21
BRANCH  19  23
HETATM   23  C   UNL     1     -40.833  56.845 -49.928  1.00  0.00     0.237 C 
HETATM   24  C   UNL     1     -41.623  55.557 -49.780  1.00  0.00     0.035 C 
ENDBRANCH  19  23
ENDBRANCH  16  19
ENDBRANCH   1  13
BRANCH   2  25
HETATM   25  C   UNL     1     -43.349  55.169 -55.585  1.00  0.00     0.193 C 
BRANCH  25  26
HETATM   26  C   UNL     1     -42.102  54.437 -55.239  1.00  0.00     0.070 A 
HETATM   27  O   UNL     1     -42.223  53.404 -54.352  1.00  0.00    -0.325 OA
HETATM   28  C   UNL     1     -40.971  52.941 -54.111  1.00  0.00     0.142 A 
HETATM   29  C   UNL     1     -40.046  53.642 -54.850  1.00  0.00     0.027 A 
HETATM   30  C   UNL     1     -40.777  54.610 -55.582  1.00  0.00     0.036 A 
ENDBRANCH  25  26
ENDBRANCH   2  25
TORSDOF 6
ENDMDL
MODEL 10
REMARK VINA RESULT:      -6.6      2.287      7.333
REMARK  6 active torsions:
REMARK  status: ('A' for Active; 'I' for Inactive)
REMARK    1  A    between atoms: C_2  and  N_3 
REMARK    2  A    between atoms: N_3  and  C_5 
REMARK    3  A    between atoms: N_3  and  C_28 
REMARK    4  A    between atoms: C_8  and  C_9 
REMARK    5  A    between atoms: N_10  and  C_11 
REMARK    6  A    between atoms: C_11  and  C_12 
ROOT
HETATM    1  C   UNL     1     -42.625  56.229 -53.204  1.00  0.00     0.199 C 
HETATM    2  N   UNL     1     -41.983  57.196 -52.330  1.00  0.00    -0.321 N 
HETATM    3  C   UNL     1     -41.428  56.730 -51.140  1.00  0.00     0.257 C 
HETATM    4  O   UNL     1     -41.222  57.441 -50.160  1.00  0.00    -0.267 OA
HETATM    5  C   UNL     1     -41.040  55.303 -51.105  1.00  0.00     0.053 A 
HETATM    6  C   UNL     1     -41.181  54.554 -52.279  1.00  0.00     0.026 A 
HETATM    7  N   UNL     1     -41.692  55.135 -53.455  1.00  0.00    -0.266 NA
HETATM    8  C   UNL     1     -40.489  54.743 -49.948  1.00  0.00     0.019 A 
HETATM    9  C   UNL     1     -40.029  53.426 -49.971  1.00  0.00     0.001 A 
HETATM   10  C   UNL     1     -40.104  52.689 -51.151  1.00  0.00     0.002 A 
HETATM   11  C   UNL     1     -40.664  53.254 -52.302  1.00  0.00     0.024 A 
HETATM   12  H   UNL     1     -42.084  54.428 -54.068  1.00  0.00     0.130 HD
ENDROOT
BRANCH   1  13
HETATM   13  C   UNL     1     -43.075  56.767 -54.559  1.00  0.00    -0.021 A 
HETATM   14  C   UNL     1     -44.375  57.253 -54.760  1.00  0.00     0.013 A 
HETATM   15  C   UNL     1     -44.800  57.653 -56.032  1.00  0.00     0.038 A 
HETATM   16  C   UNL     1     -43.921  57.636 -57.124  1.00  0.00     0.134 A 
HETATM   17  C   UNL     1     -42.611  57.194 -56.917  1.00  0.00     0.038 A 
HETATM   18  C   UNL     1     -42.197  56.756 -55.652  1.00  0.00     0.013 A 
BRANCH  16  19
HETATM   19  N   UNL     1     -44.451  58.029 -58.468  1.00  0.00    -0.042 N 
HETATM   20  H   UNL     1     -45.246  58.644 -58.243  1.00  0.00     0.286 HD
BRANCH  19  21
HETATM   21  C   UNL     1     -45.026  56.914 -59.316  1.00  0.00     0.237 C 
HETATM   22  C   UNL     1     -46.529  57.062 -59.482  1.00  0.00     0.035 C 
ENDBRANCH  19  21
BRANCH  19  23
HETATM   23  C   UNL     1     -43.475  58.895 -59.247  1.00  0.00     0.237 C 
HETATM   24  C   UNL     1     -42.753  58.135 -60.344  1.00  0.00     0.035 C 
ENDBRANCH  19  23
ENDBRANCH  16  19
ENDBRANCH   1  13
BRANCH   2  25
HETATM   25  C   UNL     1     -42.317  58.614 -52.394  1.00  0.00     0.193 C 
BRANCH  25  26
HETATM   26  C   UNL     1     -43.576  58.934 -51.670  1.00  0.00     0.070 A 
HETATM   27  O   UNL     1     -43.701  60.209 -51.192  1.00  0.00    -0.325 OA
HETATM   28  C   UNL     1     -44.866  60.258 -50.498  1.00  0.00     0.142 A 
HETATM   29  C   UNL     1     -45.507  59.041 -50.543  1.00  0.00     0.027 A 
HETATM   30  C   UNL     1     -44.674  58.184 -51.304  1.00  0.00     0.036 A 
ENDBRANCH  25  26
ENDBRANCH   2  25
TORSDOF 6
ENDMDL
