MODEL 1
REMARK VINA RESULT:      -7.8      0.000      0.000
REMARK  3 active torsions:
REMARK  status: ('A' for Active; 'I' for Inactive)
REMARK    1  A    between atoms: C_10  and  C_11 
REMARK    2  A    between atoms: C_11  and  C_12 
REMARK    3  A    between atoms: C_13  and  O_14 
ROOT
HETATM    1  C   UNL     1     -41.198  55.369 -53.504  1.00  0.00     0.196 C 
HETATM    2  O   UNL     1     -41.174  55.510 -54.725  1.00  0.00    -0.286 OA
ENDROOT
BRANCH   1   3
HETATM    3  C   UNL     1     -40.761  54.084 -52.922  1.00  0.00     0.034 A 
HETATM    4  C   UNL     1     -40.544  54.020 -51.545  1.00  0.00     0.134 A 
HETATM    5  N   UNL     1     -40.140  52.921 -50.858  1.00  0.00    -0.240 NA
HETATM    6  C   UNL     1     -39.934  51.859 -51.660  1.00  0.00     0.155 A 
HETATM    7  N   UNL     1     -39.517  50.619 -51.270  1.00  0.00    -0.260 N 
HETATM    8  C   UNL     1     -40.086  51.793 -53.037  1.00  0.00     0.038 A 
HETATM    9  N   UNL     1     -39.393  49.743 -52.287  1.00  0.00    -0.177 NA
HETATM   10  H   UNL     1     -39.304  50.319 -50.328  1.00  0.00     0.191 HD
HETATM   11  C   UNL     1     -39.733  50.458 -53.370  1.00  0.00     0.065 A 
HETATM   12  C   UNL     1     -39.717  49.833 -54.716  1.00  0.00     0.073 C 
HETATM   13  C   UNL     1     -40.508  52.952 -53.707  1.00  0.00     0.034 A 
ENDBRANCH   1   3
BRANCH   1  14
HETATM   14  C   UNL     1     -41.694  56.500 -52.678  1.00  0.00     0.051 A 
HETATM   15  C   UNL     1     -43.075  56.636 -52.453  1.00  0.00     0.101 A 
HETATM   16  C   UNL     1     -43.552  57.688 -51.660  1.00  0.00     0.069 A 
HETATM   17 CL   UNL     1     -45.237  57.880 -51.335  1.00  0.00    -0.081 Cl
HETATM   18  C   UNL     1     -42.666  58.617 -51.116  1.00  0.00     0.050 A 
HETATM   19  C   UNL     1     -41.303  58.498 -51.374  1.00  0.00     0.036 A 
HETATM   20 CL   UNL     1     -40.208  59.652 -50.719  1.00  0.00    -0.084 Cl
HETATM   21  C   UNL     1     -40.811  57.453 -52.156  1.00  0.00     0.042 A 
BRANCH  15  22
HETATM   22  O   UNL     1     -43.980  55.755 -52.991  1.00  0.00    -0.358 OA
HETATM   23  H   UNL     1     -44.447  56.196 -53.734  1.00  0.00     0.218 HD
ENDBRANCH  15  22
ENDBRANCH   1  14
TORSDOF 3
ENDMDL
MODEL 2
REMARK VINA RESULT:      -7.6      5.080      6.687
REMARK  3 active torsions:
REMARK  status: ('A' for Active; 'I' for Inactive)
REMARK    1  A    between atoms: C_10  and  C_11 
REMARK    2  A    between atoms: C_11  and  C_12 
REMARK    3  A    between atoms: C_13  and  O_14 
ROOT
HETATM    1  C   UNL     1     -42.904  54.598 -54.098  1.00  0.00     0.196 C 
HETATM    2  O   UNL     1     -43.985  54.622 -53.513  1.00  0.00    -0.286 OA
ENDROOT
BRANCH   1   3
HETATM    3  C   UNL     1     -42.747  55.370 -55.347  1.00  0.00     0.034 A 
HETATM    4  C   UNL     1     -42.106  56.608 -55.284  1.00  0.00     0.134 A 
HETATM    5  N   UNL     1     -41.885  57.439 -56.335  1.00  0.00    -0.240 NA
HETATM    6  C   UNL     1     -42.383  56.954 -57.488  1.00  0.00     0.155 A 
HETATM    7  N   UNL     1     -42.328  57.558 -58.711  1.00  0.00    -0.260 N 
HETATM    8  C   UNL     1     -43.058  55.759 -57.686  1.00  0.00     0.038 A 
HETATM    9  N   UNL     1     -42.910  56.846 -59.696  1.00  0.00    -0.177 NA
HETATM   10  H   UNL     1     -41.907  58.453 -58.927  1.00  0.00     0.191 HD
HETATM   11  C   UNL     1     -43.364  55.748 -59.072  1.00  0.00     0.065 A 
HETATM   12  C   UNL     1     -44.084  54.698 -59.835  1.00  0.00     0.073 C 
HETATM   13  C   UNL     1     -43.263  54.928 -56.572  1.00  0.00     0.034 A 
ENDBRANCH   1   3
BRANCH   1  14
HETATM   14  C   UNL     1     -41.816  53.765 -53.524  1.00  0.00     0.051 A 
HETATM   15  C   UNL     1     -41.246  54.128 -52.291  1.00  0.00     0.101 A 
HETATM   16  C   UNL     1     -40.233  53.338 -51.732  1.00  0.00     0.069 A 
HETATM   17 CL   UNL     1     -39.520  53.730 -50.208  1.00  0.00    -0.081 Cl
HETATM   18  C   UNL     1     -39.767  52.210 -52.407  1.00  0.00     0.050 A 
HETATM   19  C   UNL     1     -40.309  51.878 -53.645  1.00  0.00     0.036 A 
HETATM   20 CL   UNL     1     -39.725  50.497 -54.488  1.00  0.00    -0.084 Cl
HETATM   21  C   UNL     1     -41.323  52.650 -54.213  1.00  0.00     0.042 A 
BRANCH  15  22
HETATM   22  O   UNL     1     -41.662  55.244 -51.609  1.00  0.00    -0.358 OA
HETATM   23  H   UNL     1     -42.164  54.959 -50.813  1.00  0.00     0.218 HD
ENDBRANCH  15  22
ENDBRANCH   1  14
TORSDOF 3
ENDMDL
MODEL 3
REMARK VINA RESULT:      -7.5      1.781      2.279
REMARK  3 active torsions:
REMARK  status: ('A' for Active; 'I' for Inactive)
REMARK    1  A    between atoms: C_10  and  C_11 
REMARK    2  A    between atoms: C_11  and  C_12 
REMARK    3  A    between atoms: C_13  and  O_14 
ROOT
HETATM    1  C   UNL     1     -41.950  55.094 -50.500  1.00  0.00     0.196 C 
HETATM    2  O   UNL     1     -42.429  54.654 -49.457  1.00  0.00    -0.286 OA
ENDROOT
BRANCH   1   3
HETATM    3  C   UNL     1     -41.330  54.153 -51.456  1.00  0.00     0.034 A 
HETATM    4  C   UNL     1     -41.312  54.499 -52.807  1.00  0.00     0.134 A 
HETATM    5  N   UNL     1     -40.786  53.748 -53.809  1.00  0.00    -0.240 NA
HETATM    6  C   UNL     1     -40.284  52.579 -53.368  1.00  0.00     0.155 A 
HETATM    7  N   UNL     1     -39.699  51.611 -54.131  1.00  0.00    -0.260 N 
HETATM    8  C   UNL     1     -40.259  52.104 -52.066  1.00  0.00     0.038 A 
HETATM    9  N   UNL     1     -39.286  50.539 -53.425  1.00  0.00    -0.177 NA
HETATM   10  H   UNL     1     -39.558  51.630 -55.133  1.00  0.00     0.191 HD
HETATM   11  C   UNL     1     -39.633  50.834 -52.163  1.00  0.00     0.065 A 
HETATM   12  C   UNL     1     -39.344  49.878 -51.065  1.00  0.00     0.073 C 
HETATM   13  C   UNL     1     -40.812  52.914 -51.060  1.00  0.00     0.034 A 
ENDBRANCH   1   3
BRANCH   1  14
HETATM   14  C   UNL     1     -41.997  56.560 -50.729  1.00  0.00     0.051 A 
HETATM   15  C   UNL     1     -43.184  57.148 -51.201  1.00  0.00     0.101 A 
HETATM   16  C   UNL     1     -43.245  58.532 -51.402  1.00  0.00     0.069 A 
HETATM   17 CL   UNL     1     -44.689  59.301 -51.956  1.00  0.00    -0.081 Cl
HETATM   18  C   UNL     1     -42.125  59.328 -51.163  1.00  0.00     0.050 A 
HETATM   19  C   UNL     1     -40.941  58.736 -50.733  1.00  0.00     0.036 A 
HETATM   20 CL   UNL     1     -39.552  59.711 -50.454  1.00  0.00    -0.084 Cl
HETATM   21  C   UNL     1     -40.865  57.358 -50.521  1.00  0.00     0.042 A 
BRANCH  15  22
HETATM   22  O   UNL     1     -44.300  56.394 -51.469  1.00  0.00    -0.358 OA
HETATM   23  H   UNL     1     -44.905  56.917 -52.040  1.00  0.00     0.218 HD
ENDBRANCH  15  22
ENDBRANCH   1  14
TORSDOF 3
ENDMDL
MODEL 4
REMARK VINA RESULT:      -7.3      4.310      7.027
REMARK  3 active torsions:
REMARK  status: ('A' for Active; 'I' for Inactive)
REMARK    1  A    between atoms: C_10  and  C_11 
REMARK    2  A    between atoms: C_11  and  C_12 
REMARK    3  A    between atoms: C_13  and  O_14 
ROOT
HETATM    1  C   UNL     1     -41.149  55.029 -50.506  1.00  0.00     0.196 C 
HETATM    2  O   UNL     1     -40.542  55.067 -49.438  1.00  0.00    -0.286 OA
ENDROOT
BRANCH   1   3
HETATM    3  C   UNL     1     -42.268  55.967 -50.728  1.00  0.00     0.034 A 
HETATM    4  C   UNL     1     -43.569  55.502 -50.536  1.00  0.00     0.134 A 
HETATM    5  N   UNL     1     -44.703  56.232 -50.699  1.00  0.00    -0.240 NA
HETATM    6  C   UNL     1     -44.451  57.490 -51.106  1.00  0.00     0.155 A 
HETATM    7  N   UNL     1     -45.378  58.458 -51.364  1.00  0.00    -0.260 N 
HETATM    8  C   UNL     1     -43.217  58.070 -51.357  1.00  0.00     0.038 A 
HETATM    9  N   UNL     1     -44.843  59.631 -51.759  1.00  0.00    -0.177 NA
HETATM   10  H   UNL     1     -46.383  58.371 -51.289  1.00  0.00     0.191 HD
HETATM   11  C   UNL     1     -43.522  59.396 -51.762  1.00  0.00     0.065 A 
HETATM   12  C   UNL     1     -42.572  60.468 -52.153  1.00  0.00     0.073 C 
HETATM   13  C   UNL     1     -42.070  57.281 -51.172  1.00  0.00     0.034 A 
ENDBRANCH   1   3
BRANCH   1  14
HETATM   14  C   UNL     1     -40.735  54.017 -51.511  1.00  0.00     0.051 A 
HETATM   15  C   UNL     1     -40.352  52.734 -51.081  1.00  0.00     0.101 A 
HETATM   16  C   UNL     1     -39.979  51.765 -52.022  1.00  0.00     0.069 A 
HETATM   17 CL   UNL     1     -39.525  50.169 -51.542  1.00  0.00    -0.081 Cl
HETATM   18  C   UNL     1     -39.959  52.076 -53.381  1.00  0.00     0.050 A 
HETATM   19  C   UNL     1     -40.303  53.359 -53.798  1.00  0.00     0.036 A 
HETATM   20 CL   UNL     1     -40.262  53.751 -55.472  1.00  0.00    -0.084 Cl
HETATM   21  C   UNL     1     -40.683  54.334 -52.874  1.00  0.00     0.042 A 
BRANCH  15  22
HETATM   22  O   UNL     1     -40.338  52.398 -49.750  1.00  0.00    -0.358 OA
HETATM   23  H   UNL     1     -40.956  52.990 -49.268  1.00  0.00     0.218 HD
ENDBRANCH  15  22
ENDBRANCH   1  14
TORSDOF 3
ENDMDL
MODEL 5
REMARK VINA RESULT:      -7.2     14.628     16.252
REMARK  3 active torsions:
REMARK  status: ('A' for Active; 'I' for Inactive)
REMARK    1  A    between atoms: C_10  and  C_11 
REMARK    2  A    between atoms: C_11  and  C_12 
REMARK    3  A    between atoms: C_13  and  O_14 
ROOT
HETATM    1  C   UNL     1     -37.594  40.882 -55.217  1.00  0.00     0.196 C 
HETATM    2  O   UNL     1     -38.663  41.186 -54.691  1.00  0.00    -0.286 OA
ENDROOT
BRANCH   1   3
HETATM    3  C   UNL     1     -37.509  40.835 -56.691  1.00  0.00     0.034 A 
HETATM    4  C   UNL     1     -36.936  41.919 -57.356  1.00  0.00     0.134 A 
HETATM    5  N   UNL     1     -36.785  42.033 -58.701  1.00  0.00    -0.240 NA
HETATM    6  C   UNL     1     -37.282  40.973 -59.366  1.00  0.00     0.155 A 
HETATM    7  N   UNL     1     -37.289  40.798 -60.720  1.00  0.00    -0.260 N 
HETATM    8  C   UNL     1     -37.895  39.849 -58.835  1.00  0.00     0.038 A 
HETATM    9  N   UNL     1     -37.854  39.639 -61.115  1.00  0.00    -0.177 NA
HETATM   10  H   UNL     1     -36.923  41.435 -61.416  1.00  0.00     0.191 HD
HETATM   11  C   UNL     1     -38.232  39.059 -59.966  1.00  0.00     0.065 A 
HETATM   12  C   UNL     1     -38.911  37.739 -59.983  1.00  0.00     0.073 C 
HETATM   13  C   UNL     1     -38.028  39.770 -57.439  1.00  0.00     0.034 A 
ENDBRANCH   1   3
BRANCH   1  14
HETATM   14  C   UNL     1     -36.448  40.549 -54.334  1.00  0.00     0.051 A 
HETATM   15  C   UNL     1     -36.071  41.451 -53.322  1.00  0.00     0.101 A 
HETATM   16  C   UNL     1     -35.004  41.138 -52.471  1.00  0.00     0.069 A 
HETATM   17 CL   UNL     1     -34.522  42.203 -51.200  1.00  0.00    -0.081 Cl
HETATM   18  C   UNL     1     -34.294  39.949 -52.640  1.00  0.00     0.050 A 
HETATM   19  C   UNL     1     -34.647  39.079 -53.667  1.00  0.00     0.036 A 
HETATM   20 CL   UNL     1     -33.763  37.620 -53.890  1.00  0.00    -0.084 Cl
HETATM   21  C   UNL     1     -35.713  39.372 -54.520  1.00  0.00     0.042 A 
BRANCH  15  22
HETATM   22  O   UNL     1     -36.731  42.640 -53.140  1.00  0.00    -0.358 OA
HETATM   23  H   UNL     1     -37.633  42.453 -52.798  1.00  0.00     0.218 HD
ENDBRANCH  15  22
ENDBRANCH   1  14
TORSDOF 3
ENDMDL
MODEL 6
REMARK VINA RESULT:      -7.2      1.341      2.069
REMARK  3 active torsions:
REMARK  status: ('A' for Active; 'I' for Inactive)
REMARK    1  A    between atoms: C_10  and  C_11 
REMARK    2  A    between atoms: C_11  and  C_12 
REMARK    3  A    between atoms: C_13  and  O_14 
ROOT
HETATM    1  C   UNL     1     -41.912  56.129 -54.145  1.00  0.00     0.196 C 
HETATM    2  O   UNL     1     -42.296  56.381 -55.285  1.00  0.00    -0.286 OA
ENDROOT
BRANCH   1   3
HETATM    3  C   UNL     1     -41.229  54.845 -53.887  1.00  0.00     0.034 A 
HETATM    4  C   UNL     1     -40.717  54.137 -54.974  1.00  0.00     0.134 A 
HETATM    5  N   UNL     1     -40.067  52.946 -54.908  1.00  0.00    -0.240 NA
HETATM    6  C   UNL     1     -39.980  52.476 -53.649  1.00  0.00     0.155 A 
HETATM    7  N   UNL     1     -39.395  51.306 -53.261  1.00  0.00    -0.260 N 
HETATM    8  C   UNL     1     -40.463  53.062 -52.489  1.00  0.00     0.038 A 
HETATM    9  N   UNL     1     -39.453  51.083 -51.932  1.00  0.00    -0.177 NA
HETATM   10  H   UNL     1     -38.945  50.624 -53.859  1.00  0.00     0.191 HD
HETATM   11  C   UNL     1     -40.112  52.152 -51.457  1.00  0.00     0.065 A 
HETATM   12  C   UNL     1     -40.385  52.277 -50.004  1.00  0.00     0.073 C 
HETATM   13  C   UNL     1     -41.127  54.295 -52.602  1.00  0.00     0.034 A 
ENDBRANCH   1   3
BRANCH   1  14
HETATM   14  C   UNL     1     -42.184  57.125 -53.078  1.00  0.00     0.051 A 
HETATM   15  C   UNL     1     -43.511  57.378 -52.691  1.00  0.00     0.101 A 
HETATM   16  C   UNL     1     -43.777  58.303 -51.673  1.00  0.00     0.069 A 
HETATM   17 CL   UNL     1     -45.390  58.627 -51.146  1.00  0.00    -0.081 Cl
HETATM   18  C   UNL     1     -42.732  58.994 -51.060  1.00  0.00     0.050 A 
HETATM   19  C   UNL     1     -41.423  58.768 -51.474  1.00  0.00     0.036 A 
HETATM   20 CL   UNL     1     -40.133  59.632 -50.733  1.00  0.00    -0.084 Cl
HETATM   21  C   UNL     1     -41.140  57.845 -52.483  1.00  0.00     0.042 A 
BRANCH  15  22
HETATM   22  O   UNL     1     -44.567  56.734 -53.286  1.00  0.00    -0.358 OA
HETATM   23  H   UNL     1     -44.228  55.943 -53.760  1.00  0.00     0.218 HD
ENDBRANCH  15  22
ENDBRANCH   1  14
TORSDOF 3
ENDMDL
MODEL 7
REMARK VINA RESULT:      -7.1     14.840     16.256
REMARK  3 active torsions:
REMARK  status: ('A' for Active; 'I' for Inactive)
REMARK    1  A    between atoms: C_10  and  C_11 
REMARK    2  A    between atoms: C_11  and  C_12 
REMARK    3  A    between atoms: C_13  and  O_14 
ROOT
HETATM    1  C   UNL     1     -37.477  40.986 -56.155  1.00  0.00     0.196 C 
HETATM    2  O   UNL     1     -38.529  41.176 -55.549  1.00  0.00    -0.286 OA
ENDROOT
BRANCH   1   3
HETATM    3  C   UNL     1     -36.217  40.884 -55.391  1.00  0.00     0.034 A 
HETATM    4  C   UNL     1     -36.256  41.118 -54.016  1.00  0.00     0.134 A 
HETATM    5  N   UNL     1     -35.192  41.066 -53.174  1.00  0.00    -0.240 NA
HETATM    6  C   UNL     1     -34.042  40.783 -53.814  1.00  0.00     0.155 A 
HETATM    7  N   UNL     1     -32.806  40.673 -53.247  1.00  0.00    -0.260 N 
HETATM    8  C   UNL     1     -33.858  40.556 -55.169  1.00  0.00     0.038 A 
HETATM    9  N   UNL     1     -31.827  40.382 -54.127  1.00  0.00    -0.177 NA
HETATM   10  H   UNL     1     -32.575  40.786 -52.268  1.00  0.00     0.191 HD
HETATM   11  C   UNL     1     -32.465  40.316 -55.305  1.00  0.00     0.065 A 
HETATM   12  C   UNL     1     -31.713  40.014 -56.548  1.00  0.00     0.073 C 
HETATM   13  C   UNL     1     -34.987  40.615 -56.004  1.00  0.00     0.034 A 
ENDBRANCH   1   3
BRANCH   1  14
HETATM   14  C   UNL     1     -37.529  40.896 -57.637  1.00  0.00     0.051 A 
HETATM   15  C   UNL     1     -37.720  39.643 -58.246  1.00  0.00     0.101 A 
HETATM   16  C   UNL     1     -37.790  39.550 -59.642  1.00  0.00     0.069 A 
HETATM   17 CL   UNL     1     -38.048  38.037 -60.434  1.00  0.00    -0.081 Cl
HETATM   18  C   UNL     1     -37.643  40.691 -60.432  1.00  0.00     0.050 A 
HETATM   19  C   UNL     1     -37.416  41.922 -59.824  1.00  0.00     0.036 A 
HETATM   20 CL   UNL     1     -37.217  43.328 -60.795  1.00  0.00    -0.084 Cl
HETATM   21  C   UNL     1     -37.350  42.033 -58.434  1.00  0.00     0.042 A 
BRANCH  15  22
HETATM   22  O   UNL     1     -37.845  38.496 -57.503  1.00  0.00    -0.358 OA
HETATM   23  H   UNL     1     -38.801  38.302 -57.380  1.00  0.00     0.218 HD
ENDBRANCH  15  22
ENDBRANCH   1  14
TORSDOF 3
ENDMDL
MODEL 8
REMARK VINA RESULT:      -7.1      2.259      3.146
REMARK  3 active torsions:
REMARK  status: ('A' for Active; 'I' for Inactive)
REMARK    1  A    between atoms: C_10  and  C_11 
REMARK    2  A    between atoms: C_11  and  C_12 
REMARK    3  A    between atoms: C_13  and  O_14 
ROOT
HETATM    1  C   UNL     1     -40.959  54.759 -51.449  1.00  0.00     0.196 C 
HETATM    2  O   UNL     1     -40.902  55.393 -50.397  1.00  0.00    -0.286 OA
ENDROOT
BRANCH   1   3
HETATM    3  C   UNL     1     -40.604  53.325 -51.442  1.00  0.00     0.034 A 
HETATM    4  C   UNL     1     -40.504  52.674 -50.213  1.00  0.00     0.134 A 
HETATM    5  N   UNL     1     -40.186  51.366 -50.034  1.00  0.00    -0.240 NA
HETATM    6  C   UNL     1     -39.941  50.732 -51.196  1.00  0.00     0.155 A 
HETATM    7  N   UNL     1     -39.589  49.422 -51.344  1.00  0.00    -0.260 N 
HETATM    8  C   UNL     1     -39.980  51.261 -52.477  1.00  0.00     0.038 A 
HETATM    9  N   UNL     1     -39.402  49.051 -52.627  1.00  0.00    -0.177 NA
HETATM   10  H   UNL     1     -39.462  48.740 -50.607  1.00  0.00     0.191 HD
HETATM   11  C   UNL     1     -39.634  50.175 -53.322  1.00  0.00     0.065 A 
HETATM   12  C   UNL     1     -39.521  50.176 -54.802  1.00  0.00     0.073 C 
HETATM   13  C   UNL     1     -40.316  52.618 -52.617  1.00  0.00     0.034 A 
ENDBRANCH   1   3
BRANCH   1  14
HETATM   14  C   UNL     1     -41.360  55.483 -52.682  1.00  0.00     0.051 A 
HETATM   15  C   UNL     1     -41.197  56.879 -52.748  1.00  0.00     0.101 A 
HETATM   16  C   UNL     1     -41.554  57.569 -53.913  1.00  0.00     0.069 A 
HETATM   17 CL   UNL     1     -41.347  59.278 -54.048  1.00  0.00    -0.081 Cl
HETATM   18  C   UNL     1     -42.097  56.882 -54.999  1.00  0.00     0.050 A 
HETATM   19  C   UNL     1     -42.291  55.507 -54.914  1.00  0.00     0.036 A 
HETATM   20 CL   UNL     1     -42.977  54.659 -56.244  1.00  0.00    -0.084 Cl
HETATM   21  C   UNL     1     -41.935  54.803 -53.762  1.00  0.00     0.042 A 
BRANCH  15  22
HETATM   22  O   UNL     1     -40.687  57.591 -51.691  1.00  0.00    -0.358 OA
HETATM   23  H   UNL     1     -39.713  57.668 -51.802  1.00  0.00     0.218 HD
ENDBRANCH  15  22
ENDBRANCH   1  14
TORSDOF 3
ENDMDL
MODEL 9
REMARK VINA RESULT:      -7.1      3.639      4.443
REMARK  3 active torsions:
REMARK  status: ('A' for Active; 'I' for Inactive)
REMARK    1  A    between atoms: C_10  and  C_11 
REMARK    2  A    between atoms: C_11  and  C_12 
REMARK    3  A    between atoms: C_13  and  O_14 
ROOT
HETATM    1  C   UNL     1     -43.409  56.030 -54.499  1.00  0.00     0.196 C 
HETATM    2  O   UNL     1     -44.558  56.171 -54.086  1.00  0.00    -0.286 OA
ENDROOT
BRANCH   1   3
HETATM    3  C   UNL     1     -42.455  55.229 -53.705  1.00  0.00     0.034 A 
HETATM    4  C   UNL     1     -42.005  55.748 -52.491  1.00  0.00     0.134 A 
HETATM    5  N   UNL     1     -41.130  55.141 -51.647  1.00  0.00    -0.240 NA
HETATM    6  C   UNL     1     -40.698  53.956 -52.118  1.00  0.00     0.155 A 
HETATM    7  N   UNL     1     -39.811  53.118 -51.507  1.00  0.00    -0.260 N 
HETATM    8  C   UNL     1     -41.043  53.340 -53.311  1.00  0.00     0.038 A 
HETATM    9  N   UNL     1     -39.555  51.994 -52.206  1.00  0.00    -0.177 NA
HETATM   10  H   UNL     1     -39.353  53.263 -50.616  1.00  0.00     0.191 HD
HETATM   11  C   UNL     1     -40.301  52.129 -53.313  1.00  0.00     0.065 A 
HETATM   12  C   UNL     1     -40.288  51.075 -54.358  1.00  0.00     0.073 C 
HETATM   13  C   UNL     1     -41.953  54.000 -54.152  1.00  0.00     0.034 A 
ENDBRANCH   1   3
BRANCH   1  14
HETATM   14  C   UNL     1     -43.034  56.701 -55.769  1.00  0.00     0.051 A 
HETATM   15  C   UNL     1     -42.705  58.068 -55.758  1.00  0.00     0.101 A 
HETATM   16  C   UNL     1     -42.332  58.706 -56.948  1.00  0.00     0.069 A 
HETATM   17 CL   UNL     1     -41.896  60.377 -56.978  1.00  0.00    -0.081 Cl
HETATM   18  C   UNL     1     -42.313  57.998 -58.150  1.00  0.00     0.050 A 
HETATM   19  C   UNL     1     -42.676  56.654 -58.161  1.00  0.00     0.036 A 
HETATM   20 CL   UNL     1     -42.670  55.782 -59.644  1.00  0.00    -0.084 Cl
HETATM   21  C   UNL     1     -43.044  56.002 -56.983  1.00  0.00     0.042 A 
BRANCH  15  22
HETATM   22  O   UNL     1     -42.736  58.803 -54.599  1.00  0.00    -0.358 OA
HETATM   23  H   UNL     1     -42.014  59.470 -54.629  1.00  0.00     0.218 HD
ENDBRANCH  15  22
ENDBRANCH   1  14
TORSDOF 3
ENDMDL
MODEL 10
REMARK VINA RESULT:      -7.1      3.786      4.513
REMARK  3 active torsions:
REMARK  status: ('A' for Active; 'I' for Inactive)
REMARK    1  A    between atoms: C_10  and  C_11 
REMARK    2  A    between atoms: C_11  and  C_12 
REMARK    3  A    between atoms: C_13  and  O_14 
ROOT
HETATM    1  C   UNL     1     -43.563  56.369 -54.688  1.00  0.00     0.196 C 
HETATM    2  O   UNL     1     -44.731  56.537 -54.345  1.00  0.00    -0.286 OA
ENDROOT
BRANCH   1   3
HETATM    3  C   UNL     1     -42.656  55.614 -53.799  1.00  0.00     0.034 A 
HETATM    4  C   UNL     1     -42.351  56.155 -52.550  1.00  0.00     0.134 A 
HETATM    5  N   UNL     1     -41.537  55.591 -51.621  1.00  0.00    -0.240 NA
HETATM    6  C   UNL     1     -41.007  54.426 -52.039  1.00  0.00     0.155 A 
HETATM    7  N   UNL     1     -40.148  53.630 -51.339  1.00  0.00    -0.260 N 
HETATM    8  C   UNL     1     -41.205  53.792 -53.256  1.00  0.00     0.038 A 
HETATM    9  N   UNL     1     -39.774  52.518 -52.003  1.00  0.00    -0.177 NA
HETATM   10  H   UNL     1     -39.786  53.798 -50.409  1.00  0.00     0.191 HD
HETATM   11  C   UNL     1     -40.413  52.617 -53.178  1.00  0.00     0.065 A 
HETATM   12  C   UNL     1     -40.250  51.562 -54.210  1.00  0.00     0.073 C 
HETATM   13  C   UNL     1     -42.057  54.409 -54.187  1.00  0.00     0.034 A 
ENDBRANCH   1   3
BRANCH   1  14
HETATM   14  C   UNL     1     -43.118  56.964 -55.974  1.00  0.00     0.051 A 
HETATM   15  C   UNL     1     -43.152  56.185 -57.144  1.00  0.00     0.101 A 
HETATM   16  C   UNL     1     -42.753  56.743 -58.365  1.00  0.00     0.069 A 
HETATM   17 CL   UNL     1     -42.802  55.832 -59.832  1.00  0.00    -0.081 Cl
HETATM   18  C   UNL     1     -42.295  58.059 -58.422  1.00  0.00     0.050 A 
HETATM   19  C   UNL     1     -42.228  58.813 -57.254  1.00  0.00     0.036 A 
HETATM   20 CL   UNL     1     -41.647  60.431 -57.316  1.00  0.00    -0.084 Cl
HETATM   21  C   UNL     1     -42.628  58.275 -56.030  1.00  0.00     0.042 A 
BRANCH  15  22
HETATM   22  O   UNL     1     -43.575  54.879 -57.123  1.00  0.00    -0.358 OA
HETATM   23  H   UNL     1     -44.154  54.722 -57.902  1.00  0.00     0.218 HD
ENDBRANCH  15  22
ENDBRANCH   1  14
TORSDOF 3
ENDMDL
