MODEL 1
REMARK VINA RESULT:      -8.5      0.000      0.000
REMARK  8 active torsions:
REMARK  status: ('A' for Active; 'I' for Inactive)
REMARK    1  A    between atoms: C_2  and  N_3 
REMARK    2  A    between atoms: C_2  and  C_26 
REMARK       I    between atoms: N_3  and  C_4 
REMARK    3  A    between atoms: C_4  and  C_5 
REMARK    4  A    between atoms: C_5  and  S_6 
REMARK    5  A    between atoms: S_6  and  C_7 
REMARK    6  A    between atoms: C_10  and  C_11 
REMARK    7  A    between atoms: C_11  and  O_12 
REMARK    8  A    between atoms: O_12  and  C_13 
ROOT
HETATM    1  C   UNL     1     -43.872  58.252 -55.162  1.00  0.00     0.191 A 
HETATM    2  N   UNL     1     -43.157  57.403 -55.959  1.00  0.00    -0.314 N 
HETATM    3  C   UNL     1     -42.337  57.731 -57.097  1.00  0.00     0.160 C 
HETATM    4  C   UNL     1     -43.334  56.150 -55.414  1.00  0.00     0.154 A 
HETATM    5  N   UNL     1     -44.148  56.247 -54.378  1.00  0.00    -0.132 NA
HETATM    6  N   UNL     1     -44.477  57.569 -54.217  1.00  0.00    -0.123 NA
ENDROOT
BRANCH   1   7
HETATM    7  S   UNL     1     -43.906  59.967 -55.362  1.00  0.00    -0.081 SA
BRANCH   7   8
HETATM    8  C   UNL     1     -43.389  60.531 -53.717  1.00  0.00     0.185 C 
BRANCH   8   9
HETATM    9  C   UNL     1     -42.137  59.800 -53.272  1.00  0.00     0.227 C 
HETATM   10  N   UNL     1     -42.276  59.107 -52.090  1.00  0.00    -0.352 N 
HETATM   11  H   UNL     1     -43.048  59.379 -51.483  1.00  0.00     0.163 HD
HETATM   12  O   UNL     1     -41.096  59.822 -53.924  1.00  0.00    -0.273 OA
BRANCH  10  13
HETATM   13  C   UNL     1     -41.153  58.438 -51.458  1.00  0.00     0.113 C 
HETATM   14  C   UNL     1     -40.492  59.338 -50.412  1.00  0.00     0.037 C 
BRANCH  13  15
HETATM   15  C   UNL     1     -41.605  57.115 -50.868  1.00  0.00    -0.036 A 
HETATM   16  C   UNL     1     -42.847  56.573 -51.238  1.00  0.00     0.009 A 
HETATM   17  C   UNL     1     -43.285  55.360 -50.703  1.00  0.00     0.001 A 
HETATM   18  C   UNL     1     -42.490  54.674 -49.788  1.00  0.00     0.000 A 
HETATM   19  C   UNL     1     -41.259  55.200 -49.405  1.00  0.00     0.001 A 
HETATM   20  C   UNL     1     -40.818  56.413 -49.938  1.00  0.00     0.009 A 
ENDBRANCH  13  15
ENDBRANCH  10  13
ENDBRANCH   8   9
ENDBRANCH   7   8
ENDBRANCH   1   7
BRANCH   4  21
HETATM   21  C   UNL     1     -42.648  54.913 -55.888  1.00  0.00     0.256 C 
BRANCH  21  22
HETATM   22  O   UNL     1     -41.299  54.981 -55.433  1.00  0.00    -0.344 OA
BRANCH  22  23
HETATM   23  C   UNL     1     -40.877  53.987 -54.593  1.00  0.00     0.069 A 
HETATM   24  C   UNL     1     -40.652  52.653 -54.940  1.00  0.00     0.044 A 
HETATM   25  C   UNL     1     -40.228  51.720 -53.974  1.00  0.00    -0.049 A 
HETATM   26  C   UNL     1     -40.044  52.132 -52.643  1.00  0.00    -0.052 A 
HETATM   27  C   UNL     1     -40.044  50.278 -54.381  1.00  0.00     0.039 C 
HETATM   28  C   UNL     1     -39.557  51.178 -51.580  1.00  0.00     0.039 C 
HETATM   29  C   UNL     1     -40.257  53.476 -52.306  1.00  0.00     0.010 A 
HETATM   30  C   UNL     1     -39.738  49.710 -51.960  1.00  0.00     0.005 C 
HETATM   31  C   UNL     1     -39.235  49.462 -53.376  1.00  0.00     0.005 C 
HETATM   32  C   UNL     1     -40.675  54.390 -53.274  1.00  0.00     0.037 A 
ENDBRANCH  22  23
ENDBRANCH  21  22
ENDBRANCH   4  21
TORSDOF 8
ENDMDL
MODEL 2
REMARK VINA RESULT:      -8.1      2.340      5.272
REMARK  8 active torsions:
REMARK  status: ('A' for Active; 'I' for Inactive)
REMARK    1  A    between atoms: C_2  and  N_3 
REMARK    2  A    between atoms: C_2  and  C_26 
REMARK       I    between atoms: N_3  and  C_4 
REMARK    3  A    between atoms: C_4  and  C_5 
REMARK    4  A    between atoms: C_5  and  S_6 
REMARK    5  A    between atoms: S_6  and  C_7 
REMARK    6  A    between atoms: C_10  and  C_11 
REMARK    7  A    between atoms: C_11  and  O_12 
REMARK    8  A    between atoms: O_12  and  C_13 
ROOT
HETATM    1  C   UNL     1     -42.583  59.570 -54.182  1.00  0.00     0.191 A 
HETATM    2  N   UNL     1     -42.725  58.368 -53.546  1.00  0.00    -0.314 N 
HETATM    3  C   UNL     1     -43.920  57.578 -53.395  1.00  0.00     0.160 C 
HETATM    4  C   UNL     1     -41.461  58.028 -53.116  1.00  0.00     0.154 A 
HETATM    5  N   UNL     1     -40.626  58.999 -53.439  1.00  0.00    -0.132 NA
HETATM    6  N   UNL     1     -41.331  59.961 -54.116  1.00  0.00    -0.123 NA
ENDROOT
BRANCH   1   7
HETATM    7  S   UNL     1     -43.868  60.394 -54.989  1.00  0.00    -0.081 SA
BRANCH   7   8
HETATM    8  C   UNL     1     -43.075  60.851 -56.555  1.00  0.00     0.185 C 
BRANCH   8   9
HETATM    9  C   UNL     1     -42.483  59.627 -57.229  1.00  0.00     0.227 C 
HETATM   10  N   UNL     1     -43.322  58.534 -57.255  1.00  0.00    -0.352 N 
HETATM   11  H   UNL     1     -44.091  58.527 -56.587  1.00  0.00     0.163 HD
HETATM   12  O   UNL     1     -41.355  59.625 -57.716  1.00  0.00    -0.273 OA
BRANCH  10  13
HETATM   13  C   UNL     1     -42.886  57.246 -57.762  1.00  0.00     0.113 C 
HETATM   14  C   UNL     1     -42.565  56.282 -56.619  1.00  0.00     0.037 C 
BRANCH  13  15
HETATM   15  C   UNL     1     -43.930  56.682 -58.708  1.00  0.00    -0.036 A 
HETATM   16  C   UNL     1     -43.655  55.511 -59.435  1.00  0.00     0.009 A 
HETATM   17  C   UNL     1     -44.599  54.978 -60.315  1.00  0.00     0.001 A 
HETATM   18  C   UNL     1     -45.828  55.609 -60.484  1.00  0.00     0.000 A 
HETATM   19  C   UNL     1     -46.115  56.775 -59.776  1.00  0.00     0.001 A 
HETATM   20  C   UNL     1     -45.173  57.310 -58.896  1.00  0.00     0.009 A 
ENDBRANCH  13  15
ENDBRANCH  10  13
ENDBRANCH   8   9
ENDBRANCH   7   8
ENDBRANCH   1   7
BRANCH   4  21
HETATM   21  C   UNL     1     -41.106  56.736 -52.462  1.00  0.00     0.256 C 
BRANCH  21  22
HETATM   22  O   UNL     1     -41.223  55.718 -53.452  1.00  0.00    -0.344 OA
BRANCH  22  23
HETATM   23  C   UNL     1     -40.803  54.463 -53.105  1.00  0.00     0.069 A 
HETATM   24  C   UNL     1     -40.674  53.368 -53.963  1.00  0.00     0.044 A 
HETATM   25  C   UNL     1     -40.241  52.120 -53.477  1.00  0.00    -0.049 A 
HETATM   26  C   UNL     1     -39.950  51.969 -52.110  1.00  0.00    -0.052 A 
HETATM   27  C   UNL     1     -40.164  50.951 -54.429  1.00  0.00     0.039 C 
HETATM   28  C   UNL     1     -39.450  50.660 -51.548  1.00  0.00     0.039 C 
HETATM   29  C   UNL     1     -40.068  53.075 -51.258  1.00  0.00     0.010 A 
HETATM   30  C   UNL     1     -39.735  49.466 -52.456  1.00  0.00     0.005 C 
HETATM   31  C   UNL     1     -39.338  49.784 -53.892  1.00  0.00     0.005 C 
HETATM   32  C   UNL     1     -40.495  54.308 -51.754  1.00  0.00     0.037 A 
ENDBRANCH  22  23
ENDBRANCH  21  22
ENDBRANCH   4  21
TORSDOF 8
ENDMDL
MODEL 3
REMARK VINA RESULT:      -8.0      3.014      7.067
REMARK  8 active torsions:
REMARK  status: ('A' for Active; 'I' for Inactive)
REMARK    1  A    between atoms: C_2  and  N_3 
REMARK    2  A    between atoms: C_2  and  C_26 
REMARK       I    between atoms: N_3  and  C_4 
REMARK    3  A    between atoms: C_4  and  C_5 
REMARK    4  A    between atoms: C_5  and  S_6 
REMARK    5  A    between atoms: S_6  and  C_7 
REMARK    6  A    between atoms: C_10  and  C_11 
REMARK    7  A    between atoms: C_11  and  O_12 
REMARK    8  A    between atoms: O_12  and  C_13 
ROOT
HETATM    1  C   UNL     1     -42.583  57.829 -52.785  1.00  0.00     0.191 A 
HETATM    2  N   UNL     1     -43.147  57.795 -54.029  1.00  0.00    -0.314 N 
HETATM    3  C   UNL     1     -44.430  57.262 -54.409  1.00  0.00     0.160 C 
HETATM    4  C   UNL     1     -42.250  58.434 -54.858  1.00  0.00     0.154 A 
HETATM    5  N   UNL     1     -41.192  58.785 -54.149  1.00  0.00    -0.132 NA
HETATM    6  N   UNL     1     -41.407  58.412 -52.847  1.00  0.00    -0.123 NA
ENDROOT
BRANCH   1   7
HETATM    7  S   UNL     1     -43.353  57.237 -51.357  1.00  0.00    -0.081 SA
BRANCH   7   8
HETATM    8  C   UNL     1     -42.353  55.769 -50.991  1.00  0.00     0.185 C 
BRANCH   8   9
HETATM    9  C   UNL     1     -42.381  54.800 -52.159  1.00  0.00     0.227 C 
HETATM   10  N   UNL     1     -41.145  54.537 -52.707  1.00  0.00    -0.352 N 
HETATM   11  H   UNL     1     -40.402  55.207 -52.512  1.00  0.00     0.163 HD
HETATM   12  O   UNL     1     -43.423  54.293 -52.567  1.00  0.00    -0.273 OA
BRANCH  10  13
HETATM   13  C   UNL     1     -40.993  53.720 -53.897  1.00  0.00     0.113 C 
HETATM   14  C   UNL     1     -40.091  54.405 -54.925  1.00  0.00     0.037 C 
BRANCH  13  15
HETATM   15  C   UNL     1     -40.480  52.342 -53.516  1.00  0.00    -0.036 A 
HETATM   16  C   UNL     1     -39.920  52.133 -52.245  1.00  0.00     0.009 A 
HETATM   17  C   UNL     1     -39.437  50.876 -51.877  1.00  0.00     0.001 A 
HETATM   18  C   UNL     1     -39.503  49.813 -52.773  1.00  0.00     0.000 A 
HETATM   19  C   UNL     1     -40.050  50.005 -54.040  1.00  0.00     0.001 A 
HETATM   20  C   UNL     1     -40.534  51.261 -54.412  1.00  0.00     0.009 A 
ENDBRANCH  13  15
ENDBRANCH  10  13
ENDBRANCH   8   9
ENDBRANCH   7   8
ENDBRANCH   1   7
BRANCH   4  21
HETATM   21  C   UNL     1     -42.490  58.735 -56.298  1.00  0.00     0.256 C 
BRANCH  21  22
HETATM   22  O   UNL     1     -42.281  57.525 -57.020  1.00  0.00    -0.344 OA
BRANCH  22  23
HETATM   23  C   UNL     1     -43.230  57.181 -57.944  1.00  0.00     0.069 A 
HETATM   24  C   UNL     1     -44.382  57.907 -58.253  1.00  0.00     0.044 A 
HETATM   25  C   UNL     1     -45.291  57.436 -59.219  1.00  0.00    -0.049 A 
HETATM   26  C   UNL     1     -45.046  56.214 -59.868  1.00  0.00    -0.052 A 
HETATM   27  C   UNL     1     -46.549  58.228 -59.488  1.00  0.00     0.039 C 
HETATM   28  C   UNL     1     -45.973  55.685 -60.936  1.00  0.00     0.039 C 
HETATM   29  C   UNL     1     -43.881  55.498 -59.563  1.00  0.00     0.010 A 
HETATM   30  C   UNL     1     -47.361  56.322 -60.898  1.00  0.00     0.005 C 
HETATM   31  C   UNL     1     -47.246  57.837 -60.789  1.00  0.00     0.005 C 
HETATM   32  C   UNL     1     -42.987  55.978 -58.605  1.00  0.00     0.037 A 
ENDBRANCH  22  23
ENDBRANCH  21  22
ENDBRANCH   4  21
TORSDOF 8
ENDMDL
MODEL 4
REMARK VINA RESULT:      -7.9      4.933      9.530
REMARK  8 active torsions:
REMARK  status: ('A' for Active; 'I' for Inactive)
REMARK    1  A    between atoms: C_2  and  N_3 
REMARK    2  A    between atoms: C_2  and  C_26 
REMARK       I    between atoms: N_3  and  C_4 
REMARK    3  A    between atoms: C_4  and  C_5 
REMARK    4  A    between atoms: C_5  and  S_6 
REMARK    5  A    between atoms: S_6  and  C_7 
REMARK    6  A    between atoms: C_10  and  C_11 
REMARK    7  A    between atoms: C_11  and  O_12 
REMARK    8  A    between atoms: O_12  and  C_13 
ROOT
HETATM    1  C   UNL     1     -43.404  58.277 -51.484  1.00  0.00     0.191 A 
HETATM    2  N   UNL     1     -43.635  59.456 -50.833  1.00  0.00    -0.314 N 
HETATM    3  C   UNL     1     -42.696  60.510 -50.545  1.00  0.00     0.160 C 
HETATM    4  C   UNL     1     -44.983  59.463 -50.548  1.00  0.00     0.154 A 
HETATM    5  N   UNL     1     -45.511  58.327 -50.967  1.00  0.00    -0.132 NA
HETATM    6  N   UNL     1     -44.520  57.589 -51.562  1.00  0.00    -0.123 NA
ENDROOT
BRANCH   1   7
HETATM    7  S   UNL     1     -41.875  57.819 -52.143  1.00  0.00    -0.081 SA
BRANCH   7   8
HETATM    8  C   UNL     1     -41.601  56.217 -51.337  1.00  0.00     0.185 C 
BRANCH   8   9
HETATM    9  C   UNL     1     -41.893  55.081 -52.298  1.00  0.00     0.227 C 
HETATM   10  N   UNL     1     -40.791  54.624 -52.986  1.00  0.00    -0.352 N 
HETATM   11  H   UNL     1     -39.986  55.246 -53.035  1.00  0.00     0.163 HD
HETATM   12  O   UNL     1     -43.019  54.610 -52.437  1.00  0.00    -0.273 OA
BRANCH  10  13
HETATM   13  C   UNL     1     -40.900  53.615 -54.025  1.00  0.00     0.113 C 
HETATM   14  C   UNL     1     -40.163  54.048 -55.294  1.00  0.00     0.037 C 
BRANCH  13  15
HETATM   15  C   UNL     1     -40.402  52.279 -53.504  1.00  0.00    -0.036 A 
HETATM   16  C   UNL     1     -39.965  52.169 -52.173  1.00  0.00     0.009 A 
HETATM   17  C   UNL     1     -39.497  50.951 -51.675  1.00  0.00     0.001 A 
HETATM   18  C   UNL     1     -39.457  49.829 -52.499  1.00  0.00     0.000 A 
HETATM   19  C   UNL     1     -39.881  49.923 -53.823  1.00  0.00     0.001 A 
HETATM   20  C   UNL     1     -40.348  51.140 -54.324  1.00  0.00     0.009 A 
ENDBRANCH  13  15
ENDBRANCH  10  13
ENDBRANCH   8   9
ENDBRANCH   7   8
ENDBRANCH   1   7
BRANCH   4  21
HETATM   21  C   UNL     1     -45.715  60.607 -49.935  1.00  0.00     0.256 C 
BRANCH  21  22
HETATM   22  O   UNL     1     -46.036  60.233 -48.598  1.00  0.00    -0.344 OA
BRANCH  22  23
HETATM   23  C   UNL     1     -45.720  61.126 -47.611  1.00  0.00     0.069 A 
HETATM   24  C   UNL     1     -45.116  60.827 -46.388  1.00  0.00     0.044 A 
HETATM   25  C   UNL     1     -44.854  61.840 -45.447  1.00  0.00    -0.049 A 
HETATM   26  C   UNL     1     -45.220  63.167 -45.734  1.00  0.00    -0.052 A 
HETATM   27  C   UNL     1     -44.244  61.464 -44.118  1.00  0.00     0.039 C 
HETATM   28  C   UNL     1     -44.929  64.293 -44.772  1.00  0.00     0.039 C 
HETATM   29  C   UNL     1     -45.813  63.462 -46.969  1.00  0.00     0.010 A 
HETATM   30  C   UNL     1     -44.657  63.813 -43.347  1.00  0.00     0.005 C 
HETATM   31  C   UNL     1     -43.667  62.656 -43.357  1.00  0.00     0.005 C 
HETATM   32  C   UNL     1     -46.064  62.448 -47.893  1.00  0.00     0.037 A 
ENDBRANCH  22  23
ENDBRANCH  21  22
ENDBRANCH   4  21
TORSDOF 8
ENDMDL
MODEL 5
REMARK VINA RESULT:      -7.8      2.469      5.607
REMARK  8 active torsions:
REMARK  status: ('A' for Active; 'I' for Inactive)
REMARK    1  A    between atoms: C_2  and  N_3 
REMARK    2  A    between atoms: C_2  and  C_26 
REMARK       I    between atoms: N_3  and  C_4 
REMARK    3  A    between atoms: C_4  and  C_5 
REMARK    4  A    between atoms: C_5  and  S_6 
REMARK    5  A    between atoms: S_6  and  C_7 
REMARK    6  A    between atoms: C_10  and  C_11 
REMARK    7  A    between atoms: C_11  and  O_12 
REMARK    8  A    between atoms: O_12  and  C_13 
ROOT
HETATM    1  C   UNL     1     -44.016  58.457 -53.457  1.00  0.00     0.191 A 
HETATM    2  N   UNL     1     -43.763  57.135 -53.218  1.00  0.00    -0.314 N 
HETATM    3  C   UNL     1     -44.116  56.001 -54.034  1.00  0.00     0.160 C 
HETATM    4  C   UNL     1     -43.039  57.104 -52.046  1.00  0.00     0.154 A 
HETATM    5  N   UNL     1     -42.912  58.338 -51.592  1.00  0.00    -0.132 NA
HETATM    6  N   UNL     1     -43.518  59.185 -52.484  1.00  0.00    -0.123 NA
ENDROOT
BRANCH   1   7
HETATM    7  S   UNL     1     -44.821  59.048 -54.865  1.00  0.00    -0.081 SA
BRANCH   7   8
HETATM    8  C   UNL     1     -43.457  59.857 -55.747  1.00  0.00     0.185 C 
BRANCH   8   9
HETATM    9  C   UNL     1     -43.026  59.024 -56.939  1.00  0.00     0.227 C 
HETATM   10  N   UNL     1     -43.684  57.820 -57.056  1.00  0.00    -0.352 N 
HETATM   11  H   UNL     1     -44.144  57.461 -56.221  1.00  0.00     0.163 HD
HETATM   12  O   UNL     1     -42.168  59.405 -57.732  1.00  0.00    -0.273 OA
BRANCH  10  13
HETATM   13  C   UNL     1     -43.327  56.847 -58.073  1.00  0.00     0.113 C 
HETATM   14  C   UNL     1     -42.826  55.547 -57.441  1.00  0.00     0.037 C 
BRANCH  13  15
HETATM   15  C   UNL     1     -44.504  56.613 -59.003  1.00  0.00    -0.036 A 
HETATM   16  C   UNL     1     -44.392  55.685 -60.051  1.00  0.00     0.009 A 
HETATM   17  C   UNL     1     -45.460  55.459 -60.921  1.00  0.00     0.001 A 
HETATM   18  C   UNL     1     -46.652  56.160 -60.759  1.00  0.00     0.000 A 
HETATM   19  C   UNL     1     -46.778  57.089 -59.729  1.00  0.00     0.001 A 
HETATM   20  C   UNL     1     -45.711  57.318 -58.857  1.00  0.00     0.009 A 
ENDBRANCH  13  15
ENDBRANCH  10  13
ENDBRANCH   8   9
ENDBRANCH   7   8
ENDBRANCH   1   7
BRANCH   4  21
HETATM   21  C   UNL     1     -42.443  55.875 -51.449  1.00  0.00     0.256 C 
BRANCH  21  22
HETATM   22  O   UNL     1     -41.170  55.685 -52.059  1.00  0.00    -0.344 OA
BRANCH  22  23
HETATM   23  C   UNL     1     -40.889  54.433 -52.533  1.00  0.00     0.069 A 
HETATM   24  C   UNL     1     -40.382  53.364 -51.791  1.00  0.00     0.044 A 
HETATM   25  C   UNL     1     -40.123  52.123 -52.402  1.00  0.00    -0.049 A 
HETATM   26  C   UNL     1     -40.361  51.962 -53.778  1.00  0.00    -0.052 A 
HETATM   27  C   UNL     1     -39.529  51.009 -51.573  1.00  0.00     0.039 C 
HETATM   28  C   UNL     1     -40.131  50.640 -54.471  1.00  0.00     0.039 C 
HETATM   29  C   UNL     1     -40.882  53.035 -54.513  1.00  0.00     0.010 A 
HETATM   30  C   UNL     1     -39.217  49.700 -53.687  1.00  0.00     0.005 C 
HETATM   31  C   UNL     1     -39.649  49.635 -52.228  1.00  0.00     0.005 C 
HETATM   32  C   UNL     1     -41.137  54.259 -53.894  1.00  0.00     0.037 A 
ENDBRANCH  22  23
ENDBRANCH  21  22
ENDBRANCH   4  21
TORSDOF 8
ENDMDL
MODEL 6
REMARK VINA RESULT:      -7.8      3.365      7.373
REMARK  8 active torsions:
REMARK  status: ('A' for Active; 'I' for Inactive)
REMARK    1  A    between atoms: C_2  and  N_3 
REMARK    2  A    between atoms: C_2  and  C_26 
REMARK       I    between atoms: N_3  and  C_4 
REMARK    3  A    between atoms: C_4  and  C_5 
REMARK    4  A    between atoms: C_5  and  S_6 
REMARK    5  A    between atoms: S_6  and  C_7 
REMARK    6  A    between atoms: C_10  and  C_11 
REMARK    7  A    between atoms: C_11  and  O_12 
REMARK    8  A    between atoms: O_12  and  C_13 
ROOT
HETATM    1  C   UNL     1     -43.054  55.142 -52.623  1.00  0.00     0.191 A 
HETATM    2  N   UNL     1     -43.385  56.368 -53.128  1.00  0.00    -0.314 N 
HETATM    3  C   UNL     1     -43.960  57.490 -52.432  1.00  0.00     0.160 C 
HETATM    4  C   UNL     1     -43.000  56.337 -54.451  1.00  0.00     0.154 A 
HETATM    5  N   UNL     1     -42.512  55.140 -54.724  1.00  0.00    -0.132 NA
HETATM    6  N   UNL     1     -42.539  54.395 -53.572  1.00  0.00    -0.123 NA
ENDROOT
BRANCH   1   7
HETATM    7  S   UNL     1     -43.246  54.696 -50.965  1.00  0.00    -0.081 SA
BRANCH   7   8
HETATM    8  C   UNL     1     -41.758  55.422 -50.223  1.00  0.00     0.185 C 
BRANCH   8   9
HETATM    9  C   UNL     1     -40.666  54.378 -50.089  1.00  0.00     0.227 C 
HETATM   10  N   UNL     1     -40.912  53.210 -50.777  1.00  0.00    -0.352 N 
HETATM   11  H   UNL     1     -41.878  53.024 -51.039  1.00  0.00     0.163 HD
HETATM   12  O   UNL     1     -39.648  54.571 -49.428  1.00  0.00    -0.273 OA
BRANCH  10  13
HETATM   13  C   UNL     1     -40.029  52.062 -50.677  1.00  0.00     0.113 C 
HETATM   14  C   UNL     1     -40.495  51.101 -49.581  1.00  0.00     0.037 C 
BRANCH  13  15
HETATM   15  C   UNL     1     -39.917  51.377 -52.027  1.00  0.00    -0.036 A 
HETATM   16  C   UNL     1     -39.604  50.008 -52.091  1.00  0.00     0.009 A 
HETATM   17  C   UNL     1     -39.490  49.359 -53.322  1.00  0.00     0.001 A 
HETATM   18  C   UNL     1     -39.682  50.069 -54.505  1.00  0.00     0.000 A 
HETATM   19  C   UNL     1     -39.986  51.427 -54.460  1.00  0.00     0.001 A 
HETATM   20  C   UNL     1     -40.101  52.079 -53.230  1.00  0.00     0.009 A 
ENDBRANCH  13  15
ENDBRANCH  10  13
ENDBRANCH   8   9
ENDBRANCH   7   8
ENDBRANCH   1   7
BRANCH   4  21
HETATM   21  C   UNL     1     -43.066  57.499 -55.382  1.00  0.00     0.256 C 
BRANCH  21  22
HETATM   22  O   UNL     1     -42.519  57.073 -56.626  1.00  0.00    -0.344 OA
BRANCH  22  23
HETATM   23  C   UNL     1     -43.401  56.852 -57.649  1.00  0.00     0.069 A 
HETATM   24  C   UNL     1     -44.536  57.611 -57.939  1.00  0.00     0.044 A 
HETATM   25  C   UNL     1     -45.374  57.270 -59.017  1.00  0.00    -0.049 A 
HETATM   26  C   UNL     1     -45.074  56.143 -59.802  1.00  0.00    -0.052 A 
HETATM   27  C   UNL     1     -46.618  58.090 -59.265  1.00  0.00     0.039 C 
HETATM   28  C   UNL     1     -45.922  55.758 -60.989  1.00  0.00     0.039 C 
HETATM   29  C   UNL     1     -43.925  55.395 -59.513  1.00  0.00     0.010 A 
HETATM   30  C   UNL     1     -47.315  56.384 -60.963  1.00  0.00     0.005 C 
HETATM   31  C   UNL     1     -47.222  57.871 -60.650  1.00  0.00     0.005 C 
HETATM   32  C   UNL     1     -43.102  55.745 -58.443  1.00  0.00     0.037 A 
ENDBRANCH  22  23
ENDBRANCH  21  22
ENDBRANCH   4  21
TORSDOF 8
ENDMDL
MODEL 7
REMARK VINA RESULT:      -7.6      2.191      5.003
REMARK  8 active torsions:
REMARK  status: ('A' for Active; 'I' for Inactive)
REMARK    1  A    between atoms: C_2  and  N_3 
REMARK    2  A    between atoms: C_2  and  C_26 
REMARK       I    between atoms: N_3  and  C_4 
REMARK    3  A    between atoms: C_4  and  C_5 
REMARK    4  A    between atoms: C_5  and  S_6 
REMARK    5  A    between atoms: S_6  and  C_7 
REMARK    6  A    between atoms: C_10  and  C_11 
REMARK    7  A    between atoms: C_11  and  O_12 
REMARK    8  A    between atoms: O_12  and  C_13 
ROOT
HETATM    1  C   UNL     1     -44.141  58.489 -51.198  1.00  0.00     0.191 A 
HETATM    2  N   UNL     1     -42.823  58.213 -51.430  1.00  0.00    -0.314 N 
HETATM    3  C   UNL     1     -41.760  59.139 -51.731  1.00  0.00     0.160 C 
HETATM    4  C   UNL     1     -42.696  56.851 -51.262  1.00  0.00     0.154 A 
HETATM    5  N   UNL     1     -43.886  56.344 -50.991  1.00  0.00    -0.132 NA
HETATM    6  N   UNL     1     -44.789  57.376 -50.943  1.00  0.00    -0.123 NA
ENDROOT
BRANCH   1   7
HETATM    7  S   UNL     1     -44.809  60.082 -51.192  1.00  0.00    -0.081 SA
BRANCH   7   8
HETATM    8  C   UNL     1     -45.725  60.093 -52.758  1.00  0.00     0.185 C 
BRANCH   8   9
HETATM    9  C   UNL     1     -44.777  59.929 -53.931  1.00  0.00     0.227 C 
HETATM   10  N   UNL     1     -44.930  58.747 -54.622  1.00  0.00    -0.352 N 
HETATM   11  H   UNL     1     -45.408  57.989 -54.139  1.00  0.00     0.163 HD
HETATM   12  O   UNL     1     -43.953  60.788 -54.235  1.00  0.00    -0.273 OA
BRANCH  10  13
HETATM   13  C   UNL     1     -44.039  58.372 -55.705  1.00  0.00     0.113 C 
HETATM   14  C   UNL     1     -43.097  57.244 -55.279  1.00  0.00     0.037 C 
BRANCH  13  15
HETATM   15  C   UNL     1     -44.847  58.007 -56.937  1.00  0.00    -0.036 A 
HETATM   16  C   UNL     1     -46.228  58.263 -56.966  1.00  0.00     0.009 A 
HETATM   17  C   UNL     1     -46.992  57.929 -58.087  1.00  0.00     0.001 A 
HETATM   18  C   UNL     1     -46.388  57.332 -59.190  1.00  0.00     0.000 A 
HETATM   19  C   UNL     1     -45.021  57.064 -59.174  1.00  0.00     0.001 A 
HETATM   20  C   UNL     1     -44.254  57.397 -58.055  1.00  0.00     0.009 A 
ENDBRANCH  13  15
ENDBRANCH  10  13
ENDBRANCH   8   9
ENDBRANCH   7   8
ENDBRANCH   1   7
BRANCH   4  21
HETATM   21  C   UNL     1     -41.406  56.106 -51.309  1.00  0.00     0.256 C 
BRANCH  21  22
HETATM   22  O   UNL     1     -41.139  55.813 -52.678  1.00  0.00    -0.344 OA
BRANCH  22  23
HETATM   23  C   UNL     1     -40.860  54.511 -52.991  1.00  0.00     0.069 A 
HETATM   24  C   UNL     1     -40.395  53.532 -52.111  1.00  0.00     0.044 A 
HETATM   25  C   UNL     1     -40.133  52.224 -52.562  1.00  0.00    -0.049 A 
HETATM   26  C   UNL     1     -40.326  51.904 -53.917  1.00  0.00    -0.052 A 
HETATM   27  C   UNL     1     -39.584  51.210 -51.587  1.00  0.00     0.039 C 
HETATM   28  C   UNL     1     -40.091  50.508 -54.441  1.00  0.00     0.039 C 
HETATM   29  C   UNL     1     -40.806  52.888 -54.791  1.00  0.00     0.010 A 
HETATM   30  C   UNL     1     -39.219  49.658 -53.520  1.00  0.00     0.005 C 
HETATM   31  C   UNL     1     -39.701  49.770 -52.080  1.00  0.00     0.005 C 
HETATM   32  C   UNL     1     -41.065  54.180 -54.330  1.00  0.00     0.037 A 
ENDBRANCH  22  23
ENDBRANCH  21  22
ENDBRANCH   4  21
TORSDOF 8
ENDMDL
MODEL 8
REMARK VINA RESULT:      -7.5      2.712      5.597
REMARK  8 active torsions:
REMARK  status: ('A' for Active; 'I' for Inactive)
REMARK    1  A    between atoms: C_2  and  N_3 
REMARK    2  A    between atoms: C_2  and  C_26 
REMARK       I    between atoms: N_3  and  C_4 
REMARK    3  A    between atoms: C_4  and  C_5 
REMARK    4  A    between atoms: C_5  and  S_6 
REMARK    5  A    between atoms: S_6  and  C_7 
REMARK    6  A    between atoms: C_10  and  C_11 
REMARK    7  A    between atoms: C_11  and  O_12 
REMARK    8  A    between atoms: O_12  and  C_13 
ROOT
HETATM    1  C   UNL     1     -44.254  58.411 -55.379  1.00  0.00     0.191 A 
HETATM    2  N   UNL     1     -43.677  58.107 -54.178  1.00  0.00    -0.314 N 
HETATM    3  C   UNL     1     -43.583  58.934 -53.002  1.00  0.00     0.160 C 
HETATM    4  C   UNL     1     -43.242  56.805 -54.297  1.00  0.00     0.154 A 
HETATM    5  N   UNL     1     -43.507  56.378 -55.519  1.00  0.00    -0.132 NA
HETATM    6  N   UNL     1     -44.149  57.385 -56.193  1.00  0.00    -0.123 NA
ENDROOT
BRANCH   1   7
HETATM    7  S   UNL     1     -45.044  59.908 -55.720  1.00  0.00    -0.081 SA
BRANCH   7   8
HETATM    8  C   UNL     1     -43.780  60.766 -56.699  1.00  0.00     0.185 C 
BRANCH   8   9
HETATM    9  C   UNL     1     -43.941  60.447 -58.173  1.00  0.00     0.227 C 
HETATM   10  N   UNL     1     -43.568  59.167 -58.519  1.00  0.00    -0.352 N 
HETATM   11  H   UNL     1     -42.957  58.673 -57.871  1.00  0.00     0.163 HD
HETATM   12  O   UNL     1     -44.376  61.265 -58.980  1.00  0.00    -0.273 OA
BRANCH  10  13
HETATM   13  C   UNL     1     -43.553  58.720 -59.900  1.00  0.00     0.113 C 
HETATM   14  C   UNL     1     -42.140  58.784 -60.485  1.00  0.00     0.037 C 
BRANCH  13  15
HETATM   15  C   UNL     1     -44.150  57.328 -60.001  1.00  0.00    -0.036 A 
HETATM   16  C   UNL     1     -45.526  57.174 -60.239  1.00  0.00     0.009 A 
HETATM   17  C   UNL     1     -46.097  55.903 -60.329  1.00  0.00     0.001 A 
HETATM   18  C   UNL     1     -45.303  54.770 -60.178  1.00  0.00     0.000 A 
HETATM   19  C   UNL     1     -43.938  54.904 -59.935  1.00  0.00     0.001 A 
HETATM   20  C   UNL     1     -43.364  56.174 -59.844  1.00  0.00     0.009 A 
ENDBRANCH  13  15
ENDBRANCH  10  13
ENDBRANCH   8   9
ENDBRANCH   7   8
ENDBRANCH   1   7
BRANCH   4  21
HETATM   21  C   UNL     1     -42.643  56.005 -53.191  1.00  0.00     0.256 C 
BRANCH  21  22
HETATM   22  O   UNL     1     -41.331  55.634 -53.604  1.00  0.00    -0.344 OA
BRANCH  22  23
HETATM   23  C   UNL     1     -40.885  54.399 -53.220  1.00  0.00     0.069 A 
HETATM   24  C   UNL     1     -40.711  53.289 -54.050  1.00  0.00     0.044 A 
HETATM   25  C   UNL     1     -40.256  52.064 -53.527  1.00  0.00    -0.049 A 
HETATM   26  C   UNL     1     -39.988  51.951 -52.152  1.00  0.00    -0.052 A 
HETATM   27  C   UNL     1     -40.128  50.876 -54.451  1.00  0.00     0.039 C 
HETATM   28  C   UNL     1     -39.465  50.669 -51.551  1.00  0.00     0.039 C 
HETATM   29  C   UNL     1     -40.151  53.073 -51.328  1.00  0.00     0.010 A 
HETATM   30  C   UNL     1     -39.701  49.448 -52.437  1.00  0.00     0.005 C 
HETATM   31  C   UNL     1     -39.283  49.744 -53.871  1.00  0.00     0.005 C 
HETATM   32  C   UNL     1     -40.601  54.282 -51.860  1.00  0.00     0.037 A 
ENDBRANCH  22  23
ENDBRANCH  21  22
ENDBRANCH   4  21
TORSDOF 8
ENDMDL
MODEL 9
REMARK VINA RESULT:      -7.5      2.321      5.605
REMARK  8 active torsions:
REMARK  status: ('A' for Active; 'I' for Inactive)
REMARK    1  A    between atoms: C_2  and  N_3 
REMARK    2  A    between atoms: C_2  and  C_26 
REMARK       I    between atoms: N_3  and  C_4 
REMARK    3  A    between atoms: C_4  and  C_5 
REMARK    4  A    between atoms: C_5  and  S_6 
REMARK    5  A    between atoms: S_6  and  C_7 
REMARK    6  A    between atoms: C_10  and  C_11 
REMARK    7  A    between atoms: C_11  and  O_12 
REMARK    8  A    between atoms: O_12  and  C_13 
ROOT
HETATM    1  C   UNL     1     -42.023  59.994 -53.403  1.00  0.00     0.191 A 
HETATM    2  N   UNL     1     -42.208  59.501 -52.142  1.00  0.00    -0.314 N 
HETATM    3  C   UNL     1     -43.278  59.792 -51.222  1.00  0.00     0.160 C 
HETATM    4  C   UNL     1     -41.177  58.609 -51.940  1.00  0.00     0.154 A 
HETATM    5  N   UNL     1     -40.399  58.610 -53.007  1.00  0.00    -0.132 NA
HETATM    6  N   UNL     1     -40.937  59.474 -53.927  1.00  0.00    -0.123 NA
ENDROOT
BRANCH   1   7
HETATM    7  S   UNL     1     -43.107  61.091 -54.181  1.00  0.00    -0.081 SA
BRANCH   7   8
HETATM    8  C   UNL     1     -44.425  59.969 -54.723  1.00  0.00     0.185 C 
BRANCH   8   9
HETATM    9  C   UNL     1     -44.535  59.969 -56.237  1.00  0.00     0.227 C 
HETATM   10  N   UNL     1     -43.396  59.549 -56.887  1.00  0.00    -0.352 N 
HETATM   11  H   UNL     1     -42.526  59.576 -56.357  1.00  0.00     0.163 HD
HETATM   12  O   UNL     1     -45.561  60.309 -56.822  1.00  0.00    -0.273 OA
BRANCH  10  13
HETATM   13  C   UNL     1     -43.281  59.586 -58.334  1.00  0.00     0.113 C 
HETATM   14  C   UNL     1     -41.971  60.246 -58.767  1.00  0.00     0.037 C 
BRANCH  13  15
HETATM   15  C   UNL     1     -43.430  58.186 -58.901  1.00  0.00    -0.036 A 
HETATM   16  C   UNL     1     -44.711  57.633 -59.069  1.00  0.00     0.009 A 
HETATM   17  C   UNL     1     -44.870  56.345 -59.583  1.00  0.00     0.001 A 
HETATM   18  C   UNL     1     -43.753  55.590 -59.931  1.00  0.00     0.000 A 
HETATM   19  C   UNL     1     -42.476  56.120 -59.765  1.00  0.00     0.001 A 
HETATM   20  C   UNL     1     -42.313  57.408 -59.251  1.00  0.00     0.009 A 
ENDBRANCH  13  15
ENDBRANCH  10  13
ENDBRANCH   8   9
ENDBRANCH   7   8
ENDBRANCH   1   7
BRANCH   4  21
HETATM   21  C   UNL     1     -41.029  57.741 -50.737  1.00  0.00     0.256 C 
BRANCH  21  22
HETATM   22  O   UNL     1     -41.903  56.629 -50.911  1.00  0.00    -0.344 OA
BRANCH  22  23
HETATM   23  C   UNL     1     -41.331  55.442 -51.279  1.00  0.00     0.069 A 
HETATM   24  C   UNL     1     -41.450  54.819 -52.523  1.00  0.00     0.044 A 
HETATM   25  C   UNL     1     -40.820  53.585 -52.774  1.00  0.00    -0.049 A 
HETATM   26  C   UNL     1     -40.075  52.966 -51.756  1.00  0.00    -0.052 A 
HETATM   27  C   UNL     1     -41.015  52.923 -54.117  1.00  0.00     0.039 C 
HETATM   28  C   UNL     1     -39.352  51.661 -51.987  1.00  0.00     0.039 C 
HETATM   29  C   UNL     1     -39.948  53.604 -50.515  1.00  0.00     0.010 A 
HETATM   30  C   UNL     1     -39.873  50.890 -53.199  1.00  0.00     0.005 C 
HETATM   31  C   UNL     1     -40.002  51.816 -54.401  1.00  0.00     0.005 C 
HETATM   32  C   UNL     1     -40.576  54.827 -50.281  1.00  0.00     0.037 A 
ENDBRANCH  22  23
ENDBRANCH  21  22
ENDBRANCH   4  21
TORSDOF 8
ENDMDL
MODEL 10
REMARK VINA RESULT:      -7.4      2.493      5.725
REMARK  8 active torsions:
REMARK  status: ('A' for Active; 'I' for Inactive)
REMARK    1  A    between atoms: C_2  and  N_3 
REMARK    2  A    between atoms: C_2  and  C_26 
REMARK       I    between atoms: N_3  and  C_4 
REMARK    3  A    between atoms: C_4  and  C_5 
REMARK    4  A    between atoms: C_5  and  S_6 
REMARK    5  A    between atoms: S_6  and  C_7 
REMARK    6  A    between atoms: C_10  and  C_11 
REMARK    7  A    between atoms: C_11  and  O_12 
REMARK    8  A    between atoms: O_12  and  C_13 
ROOT
HETATM    1  C   UNL     1     -44.417  58.280 -54.324  1.00  0.00     0.191 A 
HETATM    2  N   UNL     1     -43.898  57.855 -53.133  1.00  0.00    -0.314 N 
HETATM    3  C   UNL     1     -43.755  58.601 -51.909  1.00  0.00     0.160 C 
HETATM    4  C   UNL     1     -43.581  56.527 -53.322  1.00  0.00     0.154 A 
HETATM    5  N   UNL     1     -43.855  56.199 -54.572  1.00  0.00    -0.132 NA
HETATM    6  N   UNL     1     -44.388  57.298 -55.195  1.00  0.00    -0.123 NA
ENDROOT
BRANCH   1   7
HETATM    7  S   UNL     1     -45.058  59.861 -54.589  1.00  0.00    -0.081 SA
BRANCH   7   8
HETATM    8  C   UNL     1     -43.542  60.850 -54.705  1.00  0.00     0.185 C 
BRANCH   8   9
HETATM    9  C   UNL     1     -42.538  60.178 -55.624  1.00  0.00     0.227 C 
HETATM   10  N   UNL     1     -42.995  59.969 -56.906  1.00  0.00    -0.352 N 
HETATM   11  H   UNL     1     -44.005  59.985 -57.045  1.00  0.00     0.163 HD
HETATM   12  O   UNL     1     -41.412  59.861 -55.248  1.00  0.00    -0.273 OA
BRANCH  10  13
HETATM   13  C   UNL     1     -42.212  59.244 -57.890  1.00  0.00     0.113 C 
HETATM   14  C   UNL     1     -42.931  57.969 -58.337  1.00  0.00     0.037 C 
BRANCH  13  15
HETATM   15  C   UNL     1     -41.882  60.152 -59.061  1.00  0.00    -0.036 A 
HETATM   16  C   UNL     1     -41.306  61.412 -58.825  1.00  0.00     0.009 A 
HETATM   17  C   UNL     1     -41.000  62.266 -59.886  1.00  0.00     0.001 A 
HETATM   18  C   UNL     1     -41.268  61.876 -61.195  1.00  0.00     0.000 A 
HETATM   19  C   UNL     1     -41.845  60.633 -61.446  1.00  0.00     0.001 A 
HETATM   20  C   UNL     1     -42.153  59.776 -60.387  1.00  0.00     0.009 A 
ENDBRANCH  13  15
ENDBRANCH  10  13
ENDBRANCH   8   9
ENDBRANCH   7   8
ENDBRANCH   1   7
BRANCH   4  21
HETATM   21  C   UNL     1     -43.083  55.613 -52.255  1.00  0.00     0.256 C 
BRANCH  21  22
HETATM   22  O   UNL     1     -41.667  55.533 -52.397  1.00  0.00    -0.344 OA
BRANCH  22  23
HETATM   23  C   UNL     1     -41.106  54.287 -52.331  1.00  0.00     0.069 A 
HETATM   24  C   UNL     1     -40.990  53.377 -53.384  1.00  0.00     0.044 A 
HETATM   25  C   UNL     1     -40.400  52.115 -53.183  1.00  0.00    -0.049 A 
HETATM   26  C   UNL     1     -39.937  51.760 -51.904  1.00  0.00    -0.052 A 
HETATM   27  C   UNL     1     -40.339  51.143 -54.337  1.00  0.00     0.039 C 
HETATM   28  C   UNL     1     -39.266  50.432 -51.646  1.00  0.00     0.039 C 
HETATM   29  C   UNL     1     -40.045  52.684 -50.856  1.00  0.00     0.010 A 
HETATM   30  C   UNL     1     -39.557  49.391 -52.725  1.00  0.00     0.005 C 
HETATM   31  C   UNL     1     -39.361  49.993 -54.110  1.00  0.00     0.005 C 
HETATM   32  C   UNL     1     -40.629  53.932 -51.070  1.00  0.00     0.037 A 
ENDBRANCH  22  23
ENDBRANCH  21  22
ENDBRANCH   4  21
TORSDOF 8
ENDMDL
