MODEL 1
REMARK VINA RESULT:      -8.3      0.000      0.000
REMARK  5 active torsions:
REMARK  status: ('A' for Active; 'I' for Inactive)
REMARK    1  A    between atoms: C_2  and  C_3 
REMARK    2  A    between atoms: C_3  and  N_4 
REMARK    3  A    between atoms: N_8  and  C_10 
REMARK    4  A    between atoms: C_10  and  C_11 
REMARK    5  A    between atoms: C_14  and  C_15 
ROOT
HETATM    1  N   UNL     1     -43.090  58.917 -58.310  1.00  0.00     0.104 N 
HETATM    2  C   UNL     1     -43.951  57.773 -57.803  1.00  0.00     0.206 C 
HETATM    3  C   UNL     1     -45.088  58.231 -56.857  1.00  0.00     0.076 C 
HETATM    4  C   UNL     1     -44.533  58.923 -55.616  1.00  0.00     0.238 C 
HETATM    5  N   UNL     1     -43.654  57.979 -54.826  1.00  0.00    -0.065 N 
HETATM    6  H   UNL     1     -43.203  58.579 -54.120  1.00  0.00     0.280 HD
HETATM    7  C   UNL     1     -42.533  57.435 -55.676  1.00  0.00     0.238 C 
HETATM    8  C   UNL     1     -43.073  56.798 -56.958  1.00  0.00     0.076 C 
HETATM    9  C   UNL     1     -44.514  57.013 -58.988  1.00  0.00     0.072 A 
HETATM   10  C   UNL     1     -43.994  57.077 -60.266  1.00  0.00     0.037 A 
HETATM   11  N   UNL     1     -44.770  56.249 -61.047  1.00  0.00    -0.354 N 
HETATM   12  H   UNL     1     -44.647  56.092 -62.047  1.00  0.00     0.166 HD
HETATM   13  C   UNL     1     -45.736  55.686 -60.316  1.00  0.00     0.181 A 
HETATM   14  N   UNL     1     -45.584  56.138 -59.060  1.00  0.00    -0.352 N 
HETATM   15  H   UNL     1     -46.210  55.866 -58.305  1.00  0.00     0.166 HD
HETATM   16  C   UNL     1     -42.860  57.922 -60.684  1.00  0.00     0.089 C 
HETATM   17  C   UNL     1     -42.164  58.477 -59.415  1.00  0.00     0.280 C 
ENDROOT
BRANCH   1  18
HETATM   18  C   UNL     1     -43.851  60.126 -58.734  1.00  0.00     0.273 C 
BRANCH  18  19
HETATM   19  C   UNL     1     -43.355  61.463 -58.157  1.00  0.00     0.026 C 
HETATM   20  C   UNL     1     -42.171  61.306 -57.213  1.00  0.00     0.007 C 
ENDBRANCH  18  19
ENDBRANCH   1  18
BRANCH   5  21
HETATM   21  C   UNL     1     -44.368  56.917 -53.981  1.00  0.00     0.301 C 
BRANCH  21  22
HETATM   22  C   UNL     1     -43.448  55.907 -53.427  1.00  0.00     0.107 A 
HETATM   23  O   UNL     1     -42.614  56.362 -52.459  1.00  0.00    -0.216 OA
HETATM   24  N   UNL     1     -41.646  55.423 -52.209  1.00  0.00    -0.128 NA
HETATM   25  C   UNL     1     -41.934  54.359 -52.976  1.00  0.00     0.097 A 
HETATM   26  C   UNL     1     -43.114  54.611 -53.735  1.00  0.00     0.071 A 
BRANCH  25  27
HETATM   27  C   UNL     1     -41.057  53.197 -53.052  1.00  0.00    -0.005 A 
HETATM   28  C   UNL     1     -41.012  52.429 -54.228  1.00  0.00     0.014 A 
HETATM   29  C   UNL     1     -40.234  51.272 -54.289  1.00  0.00     0.001 A 
HETATM   30  C   UNL     1     -39.487  50.877 -53.183  1.00  0.00     0.000 A 
HETATM   31  C   UNL     1     -39.511  51.640 -52.016  1.00  0.00     0.001 A 
HETATM   32  C   UNL     1     -40.295  52.794 -51.948  1.00  0.00     0.014 A 
ENDBRANCH  25  27
ENDBRANCH  21  22
ENDBRANCH   5  21
TORSDOF 5
ENDMDL
MODEL 2
REMARK VINA RESULT:      -8.2      1.622      3.565
REMARK  5 active torsions:
REMARK  status: ('A' for Active; 'I' for Inactive)
REMARK    1  A    between atoms: C_2  and  C_3 
REMARK    2  A    between atoms: C_3  and  N_4 
REMARK    3  A    between atoms: N_8  and  C_10 
REMARK    4  A    between atoms: C_10  and  C_11 
REMARK    5  A    between atoms: C_14  and  C_15 
ROOT
HETATM    1  N   UNL     1     -44.631  57.489 -59.058  1.00  0.00     0.104 N 
HETATM    2  C   UNL     1     -43.559  58.085 -58.162  1.00  0.00     0.206 C 
HETATM    3  C   UNL     1     -42.422  57.092 -57.818  1.00  0.00     0.076 C 
HETATM    4  C   UNL     1     -42.958  55.869 -57.078  1.00  0.00     0.238 C 
HETATM    5  N   UNL     1     -43.602  56.277 -55.771  1.00  0.00    -0.065 N 
HETATM    6  H   UNL     1     -44.072  55.421 -55.440  1.00  0.00     0.280 HD
HETATM    7  C   UNL     1     -44.700  57.286 -55.992  1.00  0.00     0.238 C 
HETATM    8  C   UNL     1     -44.192  58.486 -56.793  1.00  0.00     0.076 C 
HETATM    9  C   UNL     1     -43.000  59.331 -58.821  1.00  0.00     0.072 A 
HETATM   10  C   UNL     1     -43.641  60.032 -59.823  1.00  0.00     0.037 A 
HETATM   11  N   UNL     1     -42.824  61.092 -60.146  1.00  0.00    -0.354 N 
HETATM   12  H   UNL     1     -43.015  61.790 -60.865  1.00  0.00     0.166 HD
HETATM   13  C   UNL     1     -41.717  61.075 -59.397  1.00  0.00     0.181 A 
HETATM   14  N   UNL     1     -41.819  60.013 -58.582  1.00  0.00    -0.352 N 
HETATM   15  H   UNL     1     -41.089  59.768 -57.915  1.00  0.00     0.166 HD
HETATM   16  C   UNL     1     -44.927  59.654 -60.438  1.00  0.00     0.089 C 
HETATM   17  C   UNL     1     -45.578  58.540 -59.578  1.00  0.00     0.280 C 
ENDROOT
BRANCH   1  18
HETATM   18  C   UNL     1     -44.110  56.668 -60.188  1.00  0.00     0.273 C 
BRANCH  18  19
HETATM   19  C   UNL     1     -44.990  55.479 -60.611  1.00  0.00     0.026 C 
HETATM   20  C   UNL     1     -44.728  54.221 -59.796  1.00  0.00     0.007 C 
ENDBRANCH  18  19
ENDBRANCH   1  18
BRANCH   5  21
HETATM   21  C   UNL     1     -42.655  56.627 -54.617  1.00  0.00     0.301 C 
BRANCH  21  22
HETATM   22  C   UNL     1     -41.728  55.532 -54.279  1.00  0.00     0.107 A 
HETATM   23  O   UNL     1     -40.600  55.485 -55.032  1.00  0.00    -0.216 OA
HETATM   24  N   UNL     1     -39.950  54.298 -54.812  1.00  0.00    -0.128 NA
HETATM   25  C   UNL     1     -40.646  53.648 -53.864  1.00  0.00     0.097 A 
HETATM   26  C   UNL     1     -41.766  54.431 -53.459  1.00  0.00     0.071 A 
BRANCH  25  27
HETATM   27  C   UNL     1     -40.308  52.293 -53.444  1.00  0.00    -0.005 A 
HETATM   28  C   UNL     1     -39.942  52.044 -52.111  1.00  0.00     0.014 A 
HETATM   29  C   UNL     1     -39.544  50.767 -51.713  1.00  0.00     0.001 A 
HETATM   30  C   UNL     1     -39.518  49.726 -52.637  1.00  0.00     0.000 A 
HETATM   31  C   UNL     1     -39.895  49.958 -53.960  1.00  0.00     0.001 A 
HETATM   32  C   UNL     1     -40.286  51.237 -54.365  1.00  0.00     0.014 A 
ENDBRANCH  25  27
ENDBRANCH  21  22
ENDBRANCH   5  21
TORSDOF 5
ENDMDL
MODEL 3
REMARK VINA RESULT:      -8.1      4.430      6.773
REMARK  5 active torsions:
REMARK  status: ('A' for Active; 'I' for Inactive)
REMARK    1  A    between atoms: C_2  and  C_3 
REMARK    2  A    between atoms: C_3  and  N_4 
REMARK    3  A    between atoms: N_8  and  C_10 
REMARK    4  A    between atoms: C_10  and  C_11 
REMARK    5  A    between atoms: C_14  and  C_15 
ROOT
HETATM    1  N   UNL     1     -44.623  61.038 -52.096  1.00  0.00     0.104 N 
HETATM    2  C   UNL     1     -44.238  60.228 -50.871  1.00  0.00     0.206 C 
HETATM    3  C   UNL     1     -42.709  60.051 -50.705  1.00  0.00     0.076 C 
HETATM    4  C   UNL     1     -42.102  59.322 -51.900  1.00  0.00     0.238 C 
HETATM    5  N   UNL     1     -42.696  57.937 -52.039  1.00  0.00    -0.065 N 
HETATM    6  H   UNL     1     -42.355  57.602 -52.952  1.00  0.00     0.280 HD
HETATM    7  C   UNL     1     -44.198  57.995 -52.160  1.00  0.00     0.238 C 
HETATM    8  C   UNL     1     -44.814  58.784 -51.003  1.00  0.00     0.076 C 
HETATM    9  C   UNL     1     -44.838  60.878 -49.639  1.00  0.00     0.072 A 
HETATM   10  C   UNL     1     -45.888  61.774 -49.670  1.00  0.00     0.037 A 
HETATM   11  N   UNL     1     -46.143  62.125 -48.363  1.00  0.00    -0.354 N 
HETATM   12  H   UNL     1     -46.856  62.786 -48.055  1.00  0.00     0.166 HD
HETATM   13  C   UNL     1     -45.303  61.494 -47.536  1.00  0.00     0.181 A 
HETATM   14  N   UNL     1     -44.511  60.727 -48.302  1.00  0.00    -0.352 N 
HETATM   15  H   UNL     1     -43.769  60.150 -47.910  1.00  0.00     0.166 HD
HETATM   16  C   UNL     1     -46.547  62.273 -50.891  1.00  0.00     0.089 C 
HETATM   17  C   UNL     1     -46.084  61.407 -52.090  1.00  0.00     0.280 C 
ENDROOT
BRANCH   1  18
HETATM   18  C   UNL     1     -43.791  62.254 -52.323  1.00  0.00     0.273 C 
BRANCH  18  19
HETATM   19  C   UNL     1     -43.333  62.491 -53.772  1.00  0.00     0.026 C 
HETATM   20  C   UNL     1     -43.424  61.243 -54.639  1.00  0.00     0.007 C 
ENDBRANCH  18  19
ENDBRANCH   1  18
BRANCH   5  21
HETATM   21  C   UNL     1     -42.190  56.869 -51.062  1.00  0.00     0.301 C 
BRANCH  21  22
HETATM   22  C   UNL     1     -41.444  55.786 -51.728  1.00  0.00     0.107 A 
HETATM   23  O   UNL     1     -41.273  55.947 -53.065  1.00  0.00    -0.216 OA
HETATM   24  N   UNL     1     -40.806  54.779 -53.612  1.00  0.00    -0.128 NA
HETATM   25  C   UNL     1     -40.621  53.924 -52.593  1.00  0.00     0.097 A 
HETATM   26  C   UNL     1     -40.970  54.550 -51.361  1.00  0.00     0.071 A 
BRANCH  25  27
HETATM   27  C   UNL     1     -40.226  52.537 -52.805  1.00  0.00    -0.005 A 
HETATM   28  C   UNL     1     -40.381  51.950 -54.072  1.00  0.00     0.014 A 
HETATM   29  C   UNL     1     -40.077  50.603 -54.272  1.00  0.00     0.001 A 
HETATM   30  C   UNL     1     -39.606  49.832 -53.213  1.00  0.00     0.000 A 
HETATM   31  C   UNL     1     -39.433  50.407 -51.954  1.00  0.00     0.001 A 
HETATM   32  C   UNL     1     -39.744  51.753 -51.748  1.00  0.00     0.014 A 
ENDBRANCH  25  27
ENDBRANCH  21  22
ENDBRANCH   5  21
TORSDOF 5
ENDMDL
MODEL 4
REMARK VINA RESULT:      -7.7      2.613      8.618
REMARK  5 active torsions:
REMARK  status: ('A' for Active; 'I' for Inactive)
REMARK    1  A    between atoms: C_2  and  C_3 
REMARK    2  A    between atoms: C_3  and  N_4 
REMARK    3  A    between atoms: N_8  and  C_10 
REMARK    4  A    between atoms: C_10  and  C_11 
REMARK    5  A    between atoms: C_14  and  C_15 
ROOT
HETATM    1  N   UNL     1     -42.199  56.055 -51.807  1.00  0.00     0.104 N 
HETATM    2  C   UNL     1     -41.782  55.037 -52.854  1.00  0.00     0.206 C 
HETATM    3  C   UNL     1     -40.936  55.645 -53.999  1.00  0.00     0.076 C 
HETATM    4  C   UNL     1     -41.710  56.726 -54.748  1.00  0.00     0.238 C 
HETATM    5  N   UNL     1     -42.959  56.149 -55.377  1.00  0.00    -0.065 N 
HETATM    6  H   UNL     1     -43.486  56.974 -55.703  1.00  0.00     0.280 HD
HETATM    7  C   UNL     1     -43.837  55.487 -54.344  1.00  0.00     0.238 C 
HETATM    8  C   UNL     1     -43.053  54.448 -53.540  1.00  0.00     0.076 C 
HETATM    9  C   UNL     1     -41.031  53.908 -52.175  1.00  0.00     0.072 A 
HETATM   10  C   UNL     1     -41.096  53.637 -50.823  1.00  0.00     0.037 A 
HETATM   11  N   UNL     1     -40.290  52.543 -50.602  1.00  0.00    -0.354 N 
HETATM   12  H   UNL     1     -40.117  52.106 -49.696  1.00  0.00     0.166 HD
HETATM   13  C   UNL     1     -39.733  52.133 -51.746  1.00  0.00     0.181 A 
HETATM   14  N   UNL     1     -40.184  52.952 -52.710  1.00  0.00    -0.352 N 
HETATM   15  H   UNL     1     -39.894  52.859 -53.682  1.00  0.00     0.166 HD
HETATM   16  C   UNL     1     -41.854  54.423 -49.832  1.00  0.00     0.089 C 
HETATM   17  C   UNL     1     -42.794  55.396 -50.588  1.00  0.00     0.280 C 
ENDROOT
BRANCH   1  18
HETATM   18  C   UNL     1     -41.124  57.004 -51.399  1.00  0.00     0.273 C 
BRANCH  18  19
HETATM   19  C   UNL     1     -41.535  58.484 -51.318  1.00  0.00     0.026 C 
HETATM   20  C   UNL     1     -40.795  59.251 -50.230  1.00  0.00     0.007 C 
ENDBRANCH  18  19
ENDBRANCH   1  18
BRANCH   5  21
HETATM   21  C   UNL     1     -42.770  55.325 -56.655  1.00  0.00     0.301 C 
BRANCH  21  22
HETATM   22  C   UNL     1     -43.027  56.099 -57.884  1.00  0.00     0.107 A 
HETATM   23  O   UNL     1     -42.792  55.431 -59.041  1.00  0.00    -0.216 OA
HETATM   24  N   UNL     1     -42.810  56.312 -60.092  1.00  0.00    -0.128 NA
HETATM   25  C   UNL     1     -43.132  57.512 -59.582  1.00  0.00     0.097 A 
HETATM   26  C   UNL     1     -43.329  57.407 -58.174  1.00  0.00     0.071 A 
BRANCH  25  27
HETATM   27  C   UNL     1     -43.145  58.723 -60.395  1.00  0.00    -0.005 A 
HETATM   28  C   UNL     1     -41.935  59.300 -60.812  1.00  0.00     0.014 A 
HETATM   29  C   UNL     1     -41.931  60.499 -61.527  1.00  0.00     0.001 A 
HETATM   30  C   UNL     1     -43.134  61.125 -61.842  1.00  0.00     0.000 A 
HETATM   31  C   UNL     1     -44.343  60.552 -61.447  1.00  0.00     0.001 A 
HETATM   32  C   UNL     1     -44.350  59.357 -60.723  1.00  0.00     0.014 A 
ENDBRANCH  25  27
ENDBRANCH  21  22
ENDBRANCH   5  21
TORSDOF 5
ENDMDL
MODEL 5
REMARK VINA RESULT:      -7.5      2.879      5.436
REMARK  5 active torsions:
REMARK  status: ('A' for Active; 'I' for Inactive)
REMARK    1  A    between atoms: C_2  and  C_3 
REMARK    2  A    between atoms: C_3  and  N_4 
REMARK    3  A    between atoms: N_8  and  C_10 
REMARK    4  A    between atoms: C_10  and  C_11 
REMARK    5  A    between atoms: C_14  and  C_15 
ROOT
HETATM    1  N   UNL     1     -44.237  58.916 -53.022  1.00  0.00     0.104 N 
HETATM    2  C   UNL     1     -42.965  58.241 -53.500  1.00  0.00     0.206 C 
HETATM    3  C   UNL     1     -42.656  58.498 -54.995  1.00  0.00     0.076 C 
HETATM    4  C   UNL     1     -43.773  57.972 -55.891  1.00  0.00     0.238 C 
HETATM    5  N   UNL     1     -43.934  56.477 -55.722  1.00  0.00    -0.065 N 
HETATM    6  H   UNL     1     -44.805  56.255 -56.227  1.00  0.00     0.280 HD
HETATM    7  C   UNL     1     -44.194  56.113 -54.282  1.00  0.00     0.238 C 
HETATM    8  C   UNL     1     -43.116  56.694 -53.364  1.00  0.00     0.076 C 
HETATM    9  C   UNL     1     -41.807  58.692 -52.629  1.00  0.00     0.072 A 
HETATM   10  C   UNL     1     -41.954  59.259 -51.379  1.00  0.00     0.037 A 
HETATM   11  N   UNL     1     -40.684  59.519 -50.914  1.00  0.00    -0.354 N 
HETATM   12  H   UNL     1     -40.458  59.953 -50.019  1.00  0.00     0.166 HD
HETATM   13  C   UNL     1     -39.770  59.145 -51.815  1.00  0.00     0.181 A 
HETATM   14  N   UNL     1     -40.443  58.632 -52.858  1.00  0.00    -0.352 N 
HETATM   15  H   UNL     1     -39.972  58.285 -53.691  1.00  0.00     0.166 HD
HETATM   16  C   UNL     1     -43.241  59.559 -50.725  1.00  0.00     0.089 C 
HETATM   17  C   UNL     1     -44.374  58.862 -51.521  1.00  0.00     0.280 C 
ENDROOT
BRANCH   1  18
HETATM   18  C   UNL     1     -44.414  60.317 -53.499  1.00  0.00     0.273 C 
BRANCH  18  19
HETATM   19  C   UNL     1     -45.840  60.885 -53.392  1.00  0.00     0.026 C 
HETATM   20  C   UNL     1     -45.882  62.295 -52.820  1.00  0.00     0.007 C 
ENDBRANCH  18  19
ENDBRANCH   1  18
BRANCH   5  21
HETATM   21  C   UNL     1     -42.892  55.589 -56.411  1.00  0.00     0.301 C 
BRANCH  21  22
HETATM   22  C   UNL     1     -42.064  54.827 -55.459  1.00  0.00     0.107 A 
HETATM   23  O   UNL     1     -40.845  55.365 -55.203  1.00  0.00    -0.216 OA
HETATM   24  N   UNL     1     -40.076  54.455 -54.523  1.00  0.00    -0.128 NA
HETATM   25  C   UNL     1     -40.854  53.384 -54.300  1.00  0.00     0.097 A 
HETATM   26  C   UNL     1     -42.154  53.604 -54.840  1.00  0.00     0.071 A 
BRANCH  25  27
HETATM   27  C   UNL     1     -40.339  52.165 -53.687  1.00  0.00    -0.005 A 
HETATM   28  C   UNL     1     -40.286  50.975 -54.431  1.00  0.00     0.014 A 
HETATM   29  C   UNL     1     -39.866  49.785 -53.835  1.00  0.00     0.001 A 
HETATM   30  C   UNL     1     -39.486  49.773 -52.496  1.00  0.00     0.000 A 
HETATM   31  C   UNL     1     -39.519  50.952 -51.752  1.00  0.00     0.001 A 
HETATM   32  C   UNL     1     -39.947  52.144 -52.342  1.00  0.00     0.014 A 
ENDBRANCH  25  27
ENDBRANCH  21  22
ENDBRANCH   5  21
TORSDOF 5
ENDMDL
MODEL 6
REMARK VINA RESULT:      -7.5      2.677      8.846
REMARK  5 active torsions:
REMARK  status: ('A' for Active; 'I' for Inactive)
REMARK    1  A    between atoms: C_2  and  C_3 
REMARK    2  A    between atoms: C_3  and  N_4 
REMARK    3  A    between atoms: N_8  and  C_10 
REMARK    4  A    between atoms: C_10  and  C_11 
REMARK    5  A    between atoms: C_14  and  C_15 
ROOT
HETATM    1  N   UNL     1     -40.933  53.682 -53.566  1.00  0.00     0.104 N 
HETATM    2  C   UNL     1     -42.070  54.685 -53.485  1.00  0.00     0.206 C 
HETATM    3  C   UNL     1     -43.115  54.523 -54.616  1.00  0.00     0.076 C 
HETATM    4  C   UNL     1     -42.481  54.716 -55.990  1.00  0.00     0.238 C 
HETATM    5  N   UNL     1     -41.900  56.106 -56.120  1.00  0.00    -0.065 N 
HETATM    6  H   UNL     1     -41.357  56.077 -56.996  1.00  0.00     0.280 HD
HETATM    7  C   UNL     1     -40.896  56.384 -55.029  1.00  0.00     0.238 C 
HETATM    8  C   UNL     1     -41.500  56.129 -53.647  1.00  0.00     0.076 C 
HETATM    9  C   UNL     1     -42.732  54.575 -52.125  1.00  0.00     0.072 A 
HETATM   10  C   UNL     1     -42.142  53.990 -51.022  1.00  0.00     0.037 A 
HETATM   11  N   UNL     1     -43.049  54.094 -49.991  1.00  0.00    -0.354 N 
HETATM   12  H   UNL     1     -42.912  53.742 -49.043  1.00  0.00     0.166 HD
HETATM   13  C   UNL     1     -44.161  54.708 -50.405  1.00  0.00     0.181 A 
HETATM   14  N   UNL     1     -43.975  55.012 -51.700  1.00  0.00    -0.352 N 
HETATM   15  H   UNL     1     -44.690  55.476 -52.257  1.00  0.00     0.166 HD
HETATM   16  C   UNL     1     -40.817  53.344 -51.006  1.00  0.00     0.089 C 
HETATM   17  C   UNL     1     -40.080  53.697 -52.324  1.00  0.00     0.280 C 
ENDROOT
BRANCH   1  18
HETATM   18  C   UNL     1     -41.357  52.287 -53.876  1.00  0.00     0.273 C 
BRANCH  18  19
HETATM   19  C   UNL     1     -40.271  51.376 -54.473  1.00  0.00     0.026 C 
HETATM   20  C   UNL     1     -39.936  50.183 -53.587  1.00  0.00     0.007 C 
ENDBRANCH  18  19
ENDBRANCH   1  18
BRANCH   5  21
HETATM   21  C   UNL     1     -42.893  57.249 -56.359  1.00  0.00     0.301 C 
BRANCH  21  22
HETATM   22  C   UNL     1     -42.254  58.468 -56.888  1.00  0.00     0.107 A 
HETATM   23  O   UNL     1     -42.265  59.531 -56.045  1.00  0.00    -0.216 OA
HETATM   24  N   UNL     1     -41.886  60.660 -56.725  1.00  0.00    -0.128 NA
HETATM   25  C   UNL     1     -41.572  60.271 -57.972  1.00  0.00     0.097 A 
HETATM   26  C   UNL     1     -41.746  58.862 -58.101  1.00  0.00     0.071 A 
BRANCH  25  27
HETATM   27  C   UNL     1     -41.222  61.225 -59.018  1.00  0.00    -0.005 A 
HETATM   28  C   UNL     1     -41.808  61.117 -60.290  1.00  0.00     0.014 A 
HETATM   29  C   UNL     1     -41.427  61.976 -61.321  1.00  0.00     0.001 A 
HETATM   30  C   UNL     1     -40.466  62.957 -61.090  1.00  0.00     0.000 A 
HETATM   31  C   UNL     1     -39.889  63.084 -59.827  1.00  0.00     0.001 A 
HETATM   32  C   UNL     1     -40.261  62.220 -58.794  1.00  0.00     0.014 A 
ENDBRANCH  25  27
ENDBRANCH  21  22
ENDBRANCH   5  21
TORSDOF 5
ENDMDL
MODEL 7
REMARK VINA RESULT:      -7.4      2.492      8.349
REMARK  5 active torsions:
REMARK  status: ('A' for Active; 'I' for Inactive)
REMARK    1  A    between atoms: C_2  and  C_3 
REMARK    2  A    between atoms: C_3  and  N_4 
REMARK    3  A    between atoms: N_8  and  C_10 
REMARK    4  A    between atoms: C_10  and  C_11 
REMARK    5  A    between atoms: C_14  and  C_15 
ROOT
HETATM    1  N   UNL     1     -41.554  55.392 -53.130  1.00  0.00     0.104 N 
HETATM    2  C   UNL     1     -42.807  56.037 -53.696  1.00  0.00     0.206 C 
HETATM    3  C   UNL     1     -43.721  55.046 -54.456  1.00  0.00     0.076 C 
HETATM    4  C   UNL     1     -42.995  54.422 -55.645  1.00  0.00     0.238 C 
HETATM    5  N   UNL     1     -42.577  55.488 -56.634  1.00  0.00    -0.065 N 
HETATM    6  H   UNL     1     -41.960  54.994 -57.296  1.00  0.00     0.280 HD
HETATM    7  C   UNL     1     -41.715  56.536 -55.977  1.00  0.00     0.238 C 
HETATM    8  C   UNL     1     -42.403  57.121 -54.743  1.00  0.00     0.076 C 
HETATM    9  C   UNL     1     -43.568  56.711 -52.570  1.00  0.00     0.072 A 
HETATM   10  C   UNL     1     -43.012  57.048 -51.352  1.00  0.00     0.037 A 
HETATM   11  N   UNL     1     -44.012  57.641 -50.615  1.00  0.00    -0.354 N 
HETATM   12  H   UNL     1     -43.918  57.990 -49.660  1.00  0.00     0.166 HD
HETATM   13  C   UNL     1     -45.150  57.682 -51.315  1.00  0.00     0.181 A 
HETATM   14  N   UNL     1     -44.887  57.126 -52.509  1.00  0.00    -0.352 N 
HETATM   15  H   UNL     1     -45.601  57.022 -53.228  1.00  0.00     0.166 HD
HETATM   16  C   UNL     1     -41.625  56.763 -50.941  1.00  0.00     0.089 C 
HETATM   17  C   UNL     1     -40.822  56.313 -52.188  1.00  0.00     0.280 C 
ENDROOT
BRANCH   1  18
HETATM   18  C   UNL     1     -41.777  54.069 -52.478  1.00  0.00     0.273 C 
BRANCH  18  19
HETATM   19  C   UNL     1     -40.594  53.088 -52.535  1.00  0.00     0.026 C 
HETATM   20  C   UNL     1     -40.251  52.645 -53.951  1.00  0.00     0.007 C 
ENDBRANCH  18  19
ENDBRANCH   1  18
BRANCH   5  21
HETATM   21  C   UNL     1     -43.676  56.059 -57.537  1.00  0.00     0.301 C 
BRANCH  21  22
HETATM   22  C   UNL     1     -43.194  57.137 -58.420  1.00  0.00     0.107 A 
HETATM   23  O   UNL     1     -42.427  56.723 -59.460  1.00  0.00    -0.216 OA
HETATM   24  N   UNL     1     -41.830  57.808 -60.050  1.00  0.00    -0.128 NA
HETATM   25  C   UNL     1     -42.294  58.896 -59.413  1.00  0.00     0.097 A 
HETATM   26  C   UNL     1     -43.212  58.510 -58.393  1.00  0.00     0.071 A 
BRANCH  25  27
HETATM   27  C   UNL     1     -41.797  60.236 -59.703  1.00  0.00    -0.005 A 
HETATM   28  C   UNL     1     -41.710  60.679 -61.033  1.00  0.00     0.014 A 
HETATM   29  C   UNL     1     -41.167  61.929 -61.329  1.00  0.00     0.001 A 
HETATM   30  C   UNL     1     -40.718  62.754 -60.302  1.00  0.00     0.000 A 
HETATM   31  C   UNL     1     -40.815  62.333 -58.976  1.00  0.00     0.001 A 
HETATM   32  C   UNL     1     -41.349  61.077 -58.676  1.00  0.00     0.014 A 
ENDBRANCH  25  27
ENDBRANCH  21  22
ENDBRANCH   5  21
TORSDOF 5
ENDMDL
MODEL 8
REMARK VINA RESULT:      -7.3      2.940      8.629
REMARK  5 active torsions:
REMARK  status: ('A' for Active; 'I' for Inactive)
REMARK    1  A    between atoms: C_2  and  C_3 
REMARK    2  A    between atoms: C_3  and  N_4 
REMARK    3  A    between atoms: N_8  and  C_10 
REMARK    4  A    between atoms: C_10  and  C_11 
REMARK    5  A    between atoms: C_14  and  C_15 
ROOT
HETATM    1  N   UNL     1     -42.189  56.660 -51.564  1.00  0.00     0.104 N 
HETATM    2  C   UNL     1     -41.911  56.051 -52.927  1.00  0.00     0.206 C 
HETATM    3  C   UNL     1     -41.031  56.947 -53.833  1.00  0.00     0.076 C 
HETATM    4  C   UNL     1     -41.700  58.292 -54.101  1.00  0.00     0.238 C 
HETATM    5  N   UNL     1     -43.020  58.099 -54.815  1.00  0.00    -0.065 N 
HETATM    6  H   UNL     1     -43.460  59.031 -54.795  1.00  0.00     0.280 HD
HETATM    7  C   UNL     1     -43.940  57.196 -54.032  1.00  0.00     0.238 C 
HETATM    8  C   UNL     1     -43.256  55.870 -53.698  1.00  0.00     0.076 C 
HETATM    9  C   UNL     1     -41.272  54.688 -52.740  1.00  0.00     0.072 A 
HETATM   10  C   UNL     1     -41.334  53.958 -51.570  1.00  0.00     0.037 A 
HETATM   11  N   UNL     1     -40.648  52.787 -51.801  1.00  0.00    -0.354 N 
HETATM   12  H   UNL     1     -40.502  52.041 -51.120  1.00  0.00     0.166 HD
HETATM   13  C   UNL     1     -40.167  52.764 -53.048  1.00  0.00     0.181 A 
HETATM   14  N   UNL     1     -40.549  53.913 -53.630  1.00  0.00    -0.352 N 
HETATM   15  H   UNL     1     -40.294  54.147 -54.587  1.00  0.00     0.166 HD
HETATM   16  C   UNL     1     -41.977  54.404 -50.320  1.00  0.00     0.089 C 
HETATM   17  C   UNL     1     -42.823  55.668 -50.623  1.00  0.00     0.280 C 
ENDROOT
BRANCH   1  18
HETATM   18  C   UNL     1     -41.007  57.294 -50.914  1.00  0.00     0.273 C 
BRANCH  18  19
HETATM   19  C   UNL     1     -41.175  58.771 -50.516  1.00  0.00     0.026 C 
HETATM   20  C   UNL     1     -39.857  59.531 -50.467  1.00  0.00     0.007 C 
ENDBRANCH  18  19
ENDBRANCH   1  18
BRANCH   5  21
HETATM   21  C   UNL     1     -42.953  57.774 -56.312  1.00  0.00     0.301 C 
BRANCH  21  22
HETATM   22  C   UNL     1     -42.745  58.968 -57.153  1.00  0.00     0.107 A 
HETATM   23  O   UNL     1     -43.779  59.273 -57.977  1.00  0.00    -0.216 OA
HETATM   24  N   UNL     1     -43.379  60.224 -58.880  1.00  0.00    -0.128 NA
HETATM   25  C   UNL     1     -42.118  60.556 -58.559  1.00  0.00     0.097 A 
HETATM   26  C   UNL     1     -41.693  59.807 -57.422  1.00  0.00     0.071 A 
BRANCH  25  27
HETATM   27  C   UNL     1     -41.324  61.472 -59.369  1.00  0.00    -0.005 A 
HETATM   28  C   UNL     1     -41.546  61.554 -60.754  1.00  0.00     0.014 A 
HETATM   29  C   UNL     1     -40.745  62.371 -61.552  1.00  0.00     0.001 A 
HETATM   30  C   UNL     1     -39.723  63.121 -60.976  1.00  0.00     0.000 A 
HETATM   31  C   UNL     1     -39.504  63.060 -59.600  1.00  0.00     0.001 A 
HETATM   32  C   UNL     1     -40.299  62.236 -58.798  1.00  0.00     0.014 A 
ENDBRANCH  25  27
ENDBRANCH  21  22
ENDBRANCH   5  21
TORSDOF 5
ENDMDL
MODEL 9
REMARK VINA RESULT:      -7.3      1.608      2.272
REMARK  5 active torsions:
REMARK  status: ('A' for Active; 'I' for Inactive)
REMARK    1  A    between atoms: C_2  and  C_3 
REMARK    2  A    between atoms: C_3  and  N_4 
REMARK    3  A    between atoms: N_8  and  C_10 
REMARK    4  A    between atoms: C_10  and  C_11 
REMARK    5  A    between atoms: C_14  and  C_15 
ROOT
HETATM    1  N   UNL     1     -43.180  59.065 -58.393  1.00  0.00     0.104 N 
HETATM    2  C   UNL     1     -44.031  57.933 -57.845  1.00  0.00     0.206 C 
HETATM    3  C   UNL     1     -45.229  58.421 -56.992  1.00  0.00     0.076 C 
HETATM    4  C   UNL     1     -44.759  59.219 -55.780  1.00  0.00     0.238 C 
HETATM    5  N   UNL     1     -43.893  58.364 -54.881  1.00  0.00    -0.065 N 
HETATM    6  H   UNL     1     -43.496  59.029 -54.200  1.00  0.00     0.280 HD
HETATM    7  C   UNL     1     -42.714  57.797 -55.632  1.00  0.00     0.238 C 
HETATM    8  C   UNL     1     -43.169  57.052 -56.889  1.00  0.00     0.076 C 
HETATM    9  C   UNL     1     -44.511  57.071 -58.997  1.00  0.00     0.072 A 
HETATM   10  C   UNL     1     -43.929  57.059 -60.249  1.00  0.00     0.037 A 
HETATM   11  N   UNL     1     -44.639  56.151 -61.003  1.00  0.00    -0.354 N 
HETATM   12  H   UNL     1     -44.461  55.926 -61.982  1.00  0.00     0.166 HD
HETATM   13  C   UNL     1     -45.624  55.610 -60.279  1.00  0.00     0.181 A 
HETATM   14  N   UNL     1     -45.549  56.157 -59.055  1.00  0.00    -0.352 N 
HETATM   15  H   UNL     1     -46.205  55.920 -58.313  1.00  0.00     0.166 HD
HETATM   16  C   UNL     1     -42.801  57.908 -60.673  1.00  0.00     0.089 C 
HETATM   17  C   UNL     1     -42.187  58.577 -59.416  1.00  0.00     0.280 C 
ENDROOT
BRANCH   1  18
HETATM   18  C   UNL     1     -43.955  60.215 -58.942  1.00  0.00     0.273 C 
BRANCH  18  19
HETATM   19  C   UNL     1     -43.120  61.416 -59.417  1.00  0.00     0.026 C 
HETATM   20  C   UNL     1     -43.496  61.890 -60.814  1.00  0.00     0.007 C 
ENDBRANCH  18  19
ENDBRANCH   1  18
BRANCH   5  21
HETATM   21  C   UNL     1     -44.617  57.343 -53.995  1.00  0.00     0.301 C 
BRANCH  21  22
HETATM   22  C   UNL     1     -43.698  56.391 -53.344  1.00  0.00     0.107 A 
HETATM   23  O   UNL     1     -43.762  55.121 -53.817  1.00  0.00    -0.216 OA
HETATM   24  N   UNL     1     -43.070  54.284 -52.979  1.00  0.00    -0.128 NA
HETATM   25  C   UNL     1     -42.520  55.059 -52.030  1.00  0.00     0.097 A 
HETATM   26  C   UNL     1     -42.858  56.425 -52.258  1.00  0.00     0.071 A 
BRANCH  25  27
HETATM   27  C   UNL     1     -41.791  54.500 -50.898  1.00  0.00    -0.005 A 
HETATM   28  C   UNL     1     -41.689  55.228 -49.701  1.00  0.00     0.014 A 
HETATM   29  C   UNL     1     -40.932  54.738 -48.636  1.00  0.00     0.001 A 
HETATM   30  C   UNL     1     -40.279  53.514 -48.750  1.00  0.00     0.000 A 
HETATM   31  C   UNL     1     -40.387  52.774 -49.928  1.00  0.00     0.001 A 
HETATM   32  C   UNL     1     -41.136  53.265 -51.000  1.00  0.00     0.014 A 
ENDBRANCH  25  27
ENDBRANCH  21  22
ENDBRANCH   5  21
TORSDOF 5
ENDMDL
MODEL 10
REMARK VINA RESULT:      -7.2     16.264     19.177
REMARK  5 active torsions:
REMARK  status: ('A' for Active; 'I' for Inactive)
REMARK    1  A    between atoms: C_2  and  C_3 
REMARK    2  A    between atoms: C_3  and  N_4 
REMARK    3  A    between atoms: N_8  and  C_10 
REMARK    4  A    between atoms: C_10  and  C_11 
REMARK    5  A    between atoms: C_14  and  C_15 
ROOT
HETATM    1  N   UNL     1     -34.230  40.719 -53.108  1.00  0.00     0.104 N 
HETATM    2  C   UNL     1     -35.713  40.667 -53.429  1.00  0.00     0.206 C 
HETATM    3  C   UNL     1     -36.052  39.746 -54.627  1.00  0.00     0.076 C 
HETATM    4  C   UNL     1     -35.361  40.219 -55.903  1.00  0.00     0.238 C 
HETATM    5  N   UNL     1     -35.819  41.613 -56.271  1.00  0.00    -0.065 N 
HETATM    6  H   UNL     1     -35.181  41.900 -57.029  1.00  0.00     0.280 HD
HETATM    7  C   UNL     1     -35.575  42.586 -55.145  1.00  0.00     0.238 C 
HETATM    8  C   UNL     1     -36.205  42.089 -53.842  1.00  0.00     0.076 C 
HETATM    9  C   UNL     1     -36.473  40.233 -52.190  1.00  0.00     0.072 A 
HETATM   10  C   UNL     1     -35.966  40.299 -50.907  1.00  0.00     0.037 A 
HETATM   11  N   UNL     1     -36.952  39.827 -50.070  1.00  0.00    -0.354 N 
HETATM   12  H   UNL     1     -36.877  39.737 -49.056  1.00  0.00     0.166 HD
HETATM   13  C   UNL     1     -38.033  39.473 -50.772  1.00  0.00     0.181 A 
HETATM   14  N   UNL     1     -37.755  39.725 -52.062  1.00  0.00    -0.352 N 
HETATM   15  H   UNL     1     -38.417  39.526 -52.809  1.00  0.00     0.166 HD
HETATM   16  C   UNL     1     -34.607  40.746 -50.551  1.00  0.00     0.089 C 
HETATM   17  C   UNL     1     -33.963  41.410 -51.795  1.00  0.00     0.280 C 
ENDROOT
BRANCH   1  18
HETATM   18  C   UNL     1     -33.541  39.397 -53.138  1.00  0.00     0.273 C 
BRANCH  18  19
HETATM   19  C   UNL     1     -32.047  39.431 -53.503  1.00  0.00     0.026 C 
HETATM   20  C   UNL     1     -31.798  39.717 -54.977  1.00  0.00     0.007 C 
ENDBRANCH  18  19
ENDBRANCH   1  18
BRANCH   5  21
HETATM   21  C   UNL     1     -37.206  41.737 -56.913  1.00  0.00     0.301 C 
BRANCH  21  22
HETATM   22  C   UNL     1     -37.372  40.873 -58.097  1.00  0.00     0.107 A 
HETATM   23  O   UNL     1     -36.789  41.339 -59.230  1.00  0.00    -0.216 OA
HETATM   24  N   UNL     1     -37.222  40.603 -60.304  1.00  0.00    -0.128 NA
HETATM   25  C   UNL     1     -38.016  39.637 -59.814  1.00  0.00     0.097 A 
HETATM   26  C   UNL     1     -38.096  39.745 -58.394  1.00  0.00     0.071 A 
BRANCH  25  27
HETATM   27  C   UNL     1     -38.745  38.718 -60.679  1.00  0.00    -0.005 A 
HETATM   28  C   UNL     1     -38.270  38.447 -61.973  1.00  0.00     0.014 A 
HETATM   29  C   UNL     1     -38.997  37.629 -62.838  1.00  0.00     0.001 A 
HETATM   30  C   UNL     1     -40.198  37.064 -62.417  1.00  0.00     0.000 A 
HETATM   31  C   UNL     1     -40.671  37.312 -61.129  1.00  0.00     0.001 A 
HETATM   32  C   UNL     1     -39.951  38.138 -60.263  1.00  0.00     0.014 A 
ENDBRANCH  25  27
ENDBRANCH  21  22
ENDBRANCH   5  21
TORSDOF 5
ENDMDL
