MODEL 1
REMARK VINA RESULT:      -8.9      0.000      0.000
REMARK  7 active torsions:
REMARK  status: ('A' for Active; 'I' for Inactive)
REMARK       I    between atoms: C_2  and  N_3 
REMARK    1  A    between atoms: N_3  and  C_4 
REMARK    2  A    between atoms: C_7  and  N_8 
REMARK       I    between atoms: N_8  and  C_9 
REMARK    3  A    between atoms: C_9  and  C_10 
REMARK       I    between atoms: C_10  and  N_11 
REMARK    4  A    between atoms: N_11  and  C_12 
REMARK    5  A    between atoms: C_12  and  C_13 
REMARK    6  A    between atoms: C_13  and  O_14 
REMARK    7  A    between atoms: C_13  and  C_15 
ROOT
HETATM    1  C   UNL     1     -42.917  55.997 -57.019  1.00  0.00     0.309 C 
HETATM    2  N   UNL     1     -43.001  54.740 -56.468  1.00  0.00    -0.350 N 
HETATM    3  O   UNL     1     -42.379  56.970 -56.510  1.00  0.00    -0.262 OA
HETATM    4  H   UNL     1     -43.517  54.037 -56.994  1.00  0.00     0.163 HD
ENDROOT
BRANCH   1   5
HETATM    5  C   UNL     1     -43.620  56.129 -58.387  1.00  0.00     0.313 C 
HETATM    6  N   UNL     1     -44.722  56.952 -58.321  1.00  0.00    -0.319 N 
HETATM    7  H   UNL     1     -44.878  57.372 -57.408  1.00  0.00     0.169 HD
HETATM    8  O   UNL     1     -43.162  55.511 -59.337  1.00  0.00    -0.262 OA
BRANCH   6   9
HETATM    9  C   UNL     1     -45.661  57.214 -59.331  1.00  0.00     0.035 A 
HETATM   10  C   UNL     1     -46.468  56.237 -59.913  1.00  0.00     0.032 A 
HETATM   11  C   UNL     1     -47.423  56.584 -60.881  1.00  0.00     0.032 A 
HETATM   12  C   UNL     1     -47.579  57.909 -61.286  1.00  0.00     0.034 A 
HETATM   13  C   UNL     1     -46.751  58.883 -60.720  1.00  0.00     0.032 A 
HETATM   14  C   UNL     1     -45.804  58.540 -59.748  1.00  0.00     0.032 A 
BRANCH  12  15
HETATM   15  N   UNL     1     -48.532  58.341 -62.232  1.00  0.00    -0.328 N 
HETATM   16  C   UNL     1     -49.018  57.637 -63.318  1.00  0.00     0.218 C 
HETATM   17  C   UNL     1     -50.060  58.413 -64.086  1.00  0.00     0.117 C 
HETATM   18  O   UNL     1     -48.717  56.498 -63.655  1.00  0.00    -0.274 OA
HETATM   19  H   UNL     1     -48.925  59.260 -62.074  1.00  0.00     0.169 HD
ENDBRANCH  12  15
ENDBRANCH   6   9
ENDBRANCH   1   5
BRANCH   2  20
HETATM   20  C   UNL     1     -42.535  54.450 -55.120  1.00  0.00     0.159 C 
BRANCH  20  21
HETATM   21  C   UNL     1     -41.067  53.979 -55.104  1.00  0.00     0.171 C 
BRANCH  21  22
HETATM   22  O   UNL     1     -40.223  55.090 -55.448  1.00  0.00    -0.389 OA
HETATM   23  H   UNL     1     -39.383  54.939 -54.984  1.00  0.00     0.210 HD
ENDBRANCH  21  22
BRANCH  21  24
HETATM   24  C   UNL     1     -40.683  53.407 -53.773  1.00  0.00     0.000 A 
HETATM   25  C   UNL     1     -40.272  52.059 -53.514  1.00  0.00     0.001 A 
HETATM   26  C   UNL     1     -39.995  51.953 -52.146  1.00  0.00     0.044 A 
HETATM   27  C   UNL     1     -40.109  50.919 -54.330  1.00  0.00     0.014 A 
HETATM   28  C   UNL     1     -39.552  50.748 -51.572  1.00  0.00     0.030 A 
HETATM   29  N   UNL     1     -40.238  53.191 -51.594  1.00  0.00    -0.360 N 
HETATM   30  C   UNL     1     -39.395  49.636 -52.405  1.00  0.00     0.002 A 
HETATM   31  C   UNL     1     -39.669  49.717 -53.765  1.00  0.00     0.001 A 
HETATM   32  C   UNL     1     -40.081  53.562 -50.205  1.00  0.00     0.155 C 
HETATM   33  C   UNL     1     -40.654  54.068 -52.560  1.00  0.00     0.101 A 
ENDBRANCH  21  24
ENDBRANCH  20  21
ENDBRANCH   2  20
TORSDOF 7
ENDMDL
MODEL 2
REMARK VINA RESULT:      -8.6      3.708      4.525
REMARK  7 active torsions:
REMARK  status: ('A' for Active; 'I' for Inactive)
REMARK       I    between atoms: C_2  and  N_3 
REMARK    1  A    between atoms: N_3  and  C_4 
REMARK    2  A    between atoms: C_7  and  N_8 
REMARK       I    between atoms: N_8  and  C_9 
REMARK    3  A    between atoms: C_9  and  C_10 
REMARK       I    between atoms: C_10  and  N_11 
REMARK    4  A    between atoms: N_11  and  C_12 
REMARK    5  A    between atoms: C_12  and  C_13 
REMARK    6  A    between atoms: C_13  and  O_14 
REMARK    7  A    between atoms: C_13  and  C_15 
ROOT
HETATM    1  C   UNL     1     -43.110  56.328 -56.164  1.00  0.00     0.309 C 
HETATM    2  N   UNL     1     -42.294  55.246 -56.403  1.00  0.00    -0.350 N 
HETATM    3  O   UNL     1     -43.660  56.593 -55.104  1.00  0.00    -0.262 OA
HETATM    4  H   UNL     1     -41.938  55.135 -57.350  1.00  0.00     0.163 HD
ENDROOT
BRANCH   1   5
HETATM    5  C   UNL     1     -43.337  57.225 -57.399  1.00  0.00     0.313 C 
HETATM    6  N   UNL     1     -42.161  57.780 -57.854  1.00  0.00    -0.319 N 
HETATM    7  H   UNL     1     -41.333  57.487 -57.342  1.00  0.00     0.169 HD
HETATM    8  O   UNL     1     -44.478  57.359 -57.818  1.00  0.00    -0.262 OA
BRANCH   6   9
HETATM    9  C   UNL     1     -41.997  58.728 -58.877  1.00  0.00     0.035 A 
HETATM   10  C   UNL     1     -41.920  58.404 -60.230  1.00  0.00     0.032 A 
HETATM   11  C   UNL     1     -41.811  59.411 -61.200  1.00  0.00     0.032 A 
HETATM   12  C   UNL     1     -41.769  60.754 -60.832  1.00  0.00     0.034 A 
HETATM   13  C   UNL     1     -41.820  61.077 -59.472  1.00  0.00     0.032 A 
HETATM   14  C   UNL     1     -41.938  60.074 -58.503  1.00  0.00     0.032 A 
BRANCH  12  15
HETATM   15  N   UNL     1     -41.686  61.825 -61.747  1.00  0.00    -0.328 N 
HETATM   16  C   UNL     1     -40.611  62.668 -61.960  1.00  0.00     0.218 C 
HETATM   17  C   UNL     1     -40.880  63.676 -63.050  1.00  0.00     0.117 C 
HETATM   18  O   UNL     1     -39.522  62.634 -61.399  1.00  0.00    -0.274 OA
HETATM   19  H   UNL     1     -42.498  61.968 -62.334  1.00  0.00     0.169 HD
ENDBRANCH  12  15
ENDBRANCH   6   9
ENDBRANCH   1   5
BRANCH   2  20
HETATM   20  C   UNL     1     -42.079  54.203 -55.411  1.00  0.00     0.159 C 
BRANCH  20  21
HETATM   21  C   UNL     1     -40.582  54.001 -55.100  1.00  0.00     0.171 C 
BRANCH  21  22
HETATM   22  O   UNL     1     -39.919  55.273 -55.183  1.00  0.00    -0.389 OA
HETATM   23  H   UNL     1     -39.783  55.561 -54.265  1.00  0.00     0.210 HD
ENDBRANCH  21  22
BRANCH  21  24
HETATM   24  C   UNL     1     -40.375  53.376 -53.754  1.00  0.00     0.000 A 
HETATM   25  C   UNL     1     -40.082  51.997 -53.493  1.00  0.00     0.001 A 
HETATM   26  C   UNL     1     -39.955  51.843 -52.108  1.00  0.00     0.044 A 
HETATM   27  C   UNL     1     -39.910  50.867 -54.321  1.00  0.00     0.014 A 
HETATM   28  C   UNL     1     -39.652  50.599 -51.527  1.00  0.00     0.030 A 
HETATM   29  N   UNL     1     -40.172  53.083 -51.548  1.00  0.00    -0.360 N 
HETATM   30  C   UNL     1     -39.483  49.498 -52.370  1.00  0.00     0.002 A 
HETATM   31  C   UNL     1     -39.611  49.626 -53.749  1.00  0.00     0.001 A 
HETATM   32  C   UNL     1     -40.135  53.413 -50.140  1.00  0.00     0.155 C 
HETATM   33  C   UNL     1     -40.427  54.007 -52.526  1.00  0.00     0.101 A 
ENDBRANCH  21  24
ENDBRANCH  20  21
ENDBRANCH   2  20
TORSDOF 7
ENDMDL
MODEL 3
REMARK VINA RESULT:      -8.4      2.622     10.196
REMARK  7 active torsions:
REMARK  status: ('A' for Active; 'I' for Inactive)
REMARK       I    between atoms: C_2  and  N_3 
REMARK    1  A    between atoms: N_3  and  C_4 
REMARK    2  A    between atoms: C_7  and  N_8 
REMARK       I    between atoms: N_8  and  C_9 
REMARK    3  A    between atoms: C_9  and  C_10 
REMARK       I    between atoms: C_10  and  N_11 
REMARK    4  A    between atoms: N_11  and  C_12 
REMARK    5  A    between atoms: C_12  and  C_13 
REMARK    6  A    between atoms: C_13  and  O_14 
REMARK    7  A    between atoms: C_13  and  C_15 
ROOT
HETATM    1  C   UNL     1     -42.598  57.687 -56.699  1.00  0.00     0.309 C 
HETATM    2  N   UNL     1     -41.704  57.947 -57.711  1.00  0.00    -0.350 N 
HETATM    3  O   UNL     1     -43.775  58.019 -56.678  1.00  0.00    -0.262 OA
HETATM    4  H   UNL     1     -40.743  57.642 -57.569  1.00  0.00     0.163 HD
ENDROOT
BRANCH   1   5
HETATM    5  C   UNL     1     -41.983  56.940 -55.496  1.00  0.00     0.313 C 
HETATM    6  N   UNL     1     -41.716  55.622 -55.794  1.00  0.00    -0.319 N 
HETATM    7  H   UNL     1     -41.922  55.358 -56.754  1.00  0.00     0.169 HD
HETATM    8  O   UNL     1     -41.818  57.555 -54.453  1.00  0.00    -0.262 OA
BRANCH   6   9
HETATM    9  C   UNL     1     -41.264  54.619 -54.922  1.00  0.00     0.035 A 
HETATM   10  C   UNL     1     -40.147  53.822 -55.168  1.00  0.00     0.032 A 
HETATM   11  C   UNL     1     -39.723  52.876 -54.223  1.00  0.00     0.032 A 
HETATM   12  C   UNL     1     -40.414  52.706 -53.024  1.00  0.00     0.034 A 
HETATM   13  C   UNL     1     -41.549  53.489 -52.790  1.00  0.00     0.032 A 
HETATM   14  C   UNL     1     -41.968  54.440 -53.727  1.00  0.00     0.032 A 
BRANCH  12  15
HETATM   15  N   UNL     1     -40.036  51.797 -52.014  1.00  0.00    -0.328 N 
HETATM   16  C   UNL     1     -39.765  50.448 -52.155  1.00  0.00     0.218 C 
HETATM   17  C   UNL     1     -39.355  49.806 -50.853  1.00  0.00     0.117 C 
HETATM   18  O   UNL     1     -39.793  49.793 -53.190  1.00  0.00    -0.274 OA
HETATM   19  H   UNL     1     -39.921  52.188 -51.088  1.00  0.00     0.169 HD
ENDBRANCH  12  15
ENDBRANCH   6   9
ENDBRANCH   1   5
BRANCH   2  20
HETATM   20  C   UNL     1     -42.049  58.771 -58.860  1.00  0.00     0.159 C 
BRANCH  20  21
HETATM   21  C   UNL     1     -42.175  57.937 -60.152  1.00  0.00     0.171 C 
BRANCH  21  22
HETATM   22  O   UNL     1     -40.952  57.212 -60.353  1.00  0.00    -0.389 OA
HETATM   23  H   UNL     1     -41.071  56.359 -59.904  1.00  0.00     0.210 HD
ENDBRANCH  21  22
BRANCH  21  24
HETATM   24  C   UNL     1     -43.347  57.004 -60.096  1.00  0.00     0.000 A 
HETATM   25  C   UNL     1     -44.725  57.360 -60.261  1.00  0.00     0.001 A 
HETATM   26  C   UNL     1     -45.485  56.189 -60.149  1.00  0.00     0.044 A 
HETATM   27  C   UNL     1     -45.392  58.580 -60.502  1.00  0.00     0.014 A 
HETATM   28  C   UNL     1     -46.885  56.200 -60.278  1.00  0.00     0.030 A 
HETATM   29  N   UNL     1     -44.598  55.161 -59.914  1.00  0.00    -0.360 N 
HETATM   30  C   UNL     1     -47.518  57.422 -60.520  1.00  0.00     0.002 A 
HETATM   31  C   UNL     1     -46.784  58.598 -60.630  1.00  0.00     0.001 A 
HETATM   32  C   UNL     1     -44.925  53.763 -59.737  1.00  0.00     0.155 C 
HETATM   33  C   UNL     1     -43.315  55.640 -59.878  1.00  0.00     0.101 A 
ENDBRANCH  21  24
ENDBRANCH  20  21
ENDBRANCH   2  20
TORSDOF 7
ENDMDL
MODEL 4
REMARK VINA RESULT:      -8.3      3.634      5.197
REMARK  7 active torsions:
REMARK  status: ('A' for Active; 'I' for Inactive)
REMARK       I    between atoms: C_2  and  N_3 
REMARK    1  A    between atoms: N_3  and  C_4 
REMARK    2  A    between atoms: C_7  and  N_8 
REMARK       I    between atoms: N_8  and  C_9 
REMARK    3  A    between atoms: C_9  and  C_10 
REMARK       I    between atoms: C_10  and  N_11 
REMARK    4  A    between atoms: N_11  and  C_12 
REMARK    5  A    between atoms: C_12  and  C_13 
REMARK    6  A    between atoms: C_13  and  O_14 
REMARK    7  A    between atoms: C_13  and  C_15 
ROOT
HETATM    1  C   UNL     1     -43.965  56.535 -51.132  1.00  0.00     0.309 C 
HETATM    2  N   UNL     1     -42.725  55.964 -50.967  1.00  0.00    -0.350 N 
HETATM    3  O   UNL     1     -44.933  56.376 -50.401  1.00  0.00    -0.262 OA
HETATM    4  H   UNL     1     -42.026  56.159 -51.682  1.00  0.00     0.163 HD
ENDROOT
BRANCH   1   5
HETATM    5  C   UNL     1     -44.086  57.415 -52.395  1.00  0.00     0.313 C 
HETATM    6  N   UNL     1     -44.382  56.668 -53.514  1.00  0.00    -0.319 N 
HETATM    7  H   UNL     1     -44.515  55.675 -53.333  1.00  0.00     0.169 HD
HETATM    8  O   UNL     1     -43.901  58.618 -52.285  1.00  0.00    -0.262 OA
BRANCH   6   9
HETATM    9  C   UNL     1     -44.456  57.107 -54.845  1.00  0.00     0.035 A 
HETATM   10  C   UNL     1     -45.452  57.953 -55.330  1.00  0.00     0.032 A 
HETATM   11  C   UNL     1     -45.429  58.393 -56.662  1.00  0.00     0.032 A 
HETATM   12  C   UNL     1     -44.416  57.988 -57.529  1.00  0.00     0.034 A 
HETATM   13  C   UNL     1     -43.432  57.118 -57.049  1.00  0.00     0.032 A 
HETATM   14  C   UNL     1     -43.448  56.686 -55.718  1.00  0.00     0.032 A 
BRANCH  12  15
HETATM   15  N   UNL     1     -44.309  58.406 -58.872  1.00  0.00    -0.328 N 
HETATM   16  C   UNL     1     -43.544  59.446 -59.370  1.00  0.00     0.218 C 
HETATM   17  C   UNL     1     -43.654  59.572 -60.870  1.00  0.00     0.117 C 
HETATM   18  O   UNL     1     -42.808  60.192 -58.735  1.00  0.00    -0.274 OA
HETATM   19  H   UNL     1     -44.827  57.860 -59.548  1.00  0.00     0.169 HD
ENDBRANCH  12  15
ENDBRANCH   6   9
ENDBRANCH   1   5
BRANCH   2  20
HETATM   20  C   UNL     1     -42.453  54.985 -49.925  1.00  0.00     0.159 C 
BRANCH  20  21
HETATM   21  C   UNL     1     -40.948  54.674 -49.802  1.00  0.00     0.171 C 
BRANCH  21  22
HETATM   22  O   UNL     1     -40.623  54.508 -48.413  1.00  0.00    -0.389 OA
HETATM   23  H   UNL     1     -39.653  54.513 -48.364  1.00  0.00     0.210 HD
ENDBRANCH  21  22
BRANCH  21  24
HETATM   24  C   UNL     1     -40.568  53.456 -50.589  1.00  0.00     0.000 A 
HETATM   25  C   UNL     1     -40.449  53.368 -52.015  1.00  0.00     0.001 A 
HETATM   26  C   UNL     1     -40.063  52.061 -52.331  1.00  0.00     0.044 A 
HETATM   27  C   UNL     1     -40.633  54.294 -53.064  1.00  0.00     0.014 A 
HETATM   28  C   UNL     1     -39.847  51.654 -53.659  1.00  0.00     0.030 A 
HETATM   29  N   UNL     1     -39.961  51.377 -51.139  1.00  0.00    -0.360 N 
HETATM   30  C   UNL     1     -40.032  52.593 -54.678  1.00  0.00     0.002 A 
HETATM   31  C   UNL     1     -40.421  53.895 -54.388  1.00  0.00     0.001 A 
HETATM   32  C   UNL     1     -39.581  49.992 -50.968  1.00  0.00     0.155 C 
HETATM   33  C   UNL     1     -40.264  52.204 -50.090  1.00  0.00     0.101 A 
ENDBRANCH  21  24
ENDBRANCH  20  21
ENDBRANCH   2  20
TORSDOF 7
ENDMDL
MODEL 5
REMARK VINA RESULT:      -8.2      4.111      5.363
REMARK  7 active torsions:
REMARK  status: ('A' for Active; 'I' for Inactive)
REMARK       I    between atoms: C_2  and  N_3 
REMARK    1  A    between atoms: N_3  and  C_4 
REMARK    2  A    between atoms: C_7  and  N_8 
REMARK       I    between atoms: N_8  and  C_9 
REMARK    3  A    between atoms: C_9  and  C_10 
REMARK       I    between atoms: C_10  and  N_11 
REMARK    4  A    between atoms: N_11  and  C_12 
REMARK    5  A    between atoms: C_12  and  C_13 
REMARK    6  A    between atoms: C_13  and  O_14 
REMARK    7  A    between atoms: C_13  and  C_15 
ROOT
HETATM    1  C   UNL     1     -42.062  58.200 -52.034  1.00  0.00     0.309 C 
HETATM    2  N   UNL     1     -41.384  57.092 -51.584  1.00  0.00    -0.350 N 
HETATM    3  O   UNL     1     -43.016  58.731 -51.484  1.00  0.00    -0.262 OA
HETATM    4  H   UNL     1     -40.631  56.739 -52.172  1.00  0.00     0.163 HD
ENDROOT
BRANCH   1   5
HETATM    5  C   UNL     1     -41.542  58.749 -53.380  1.00  0.00     0.313 C 
HETATM    6  N   UNL     1     -42.451  58.558 -54.397  1.00  0.00    -0.319 N 
HETATM    7  H   UNL     1     -43.326  58.131 -54.104  1.00  0.00     0.169 HD
HETATM    8  O   UNL     1     -40.430  59.255 -53.410  1.00  0.00    -0.262 OA
BRANCH   6   9
HETATM    9  C   UNL     1     -42.278  58.824 -55.765  1.00  0.00     0.035 A 
HETATM   10  C   UNL     1     -42.313  57.845 -56.757  1.00  0.00     0.032 A 
HETATM   11  C   UNL     1     -42.186  58.194 -58.109  1.00  0.00     0.032 A 
HETATM   12  C   UNL     1     -42.014  59.525 -58.489  1.00  0.00     0.034 A 
HETATM   13  C   UNL     1     -41.954  60.502 -57.491  1.00  0.00     0.032 A 
HETATM   14  C   UNL     1     -42.089  60.157 -56.142  1.00  0.00     0.032 A 
BRANCH  12  15
HETATM   15  N   UNL     1     -41.906  59.959 -59.827  1.00  0.00    -0.328 N 
HETATM   16  C   UNL     1     -42.920  60.425 -60.644  1.00  0.00     0.218 C 
HETATM   17  C   UNL     1     -42.416  60.835 -62.006  1.00  0.00     0.117 C 
HETATM   18  O   UNL     1     -44.102  60.557 -60.353  1.00  0.00    -0.274 OA
HETATM   19  H   UNL     1     -40.973  59.957 -60.218  1.00  0.00     0.169 HD
ENDBRANCH  12  15
ENDBRANCH   6   9
ENDBRANCH   1   5
BRANCH   2  20
HETATM   20  C   UNL     1     -41.815  56.339 -50.416  1.00  0.00     0.159 C 
BRANCH  20  21
HETATM   21  C   UNL     1     -42.849  55.253 -50.777  1.00  0.00     0.171 C 
BRANCH  21  22
HETATM   22  O   UNL     1     -44.157  55.847 -50.786  1.00  0.00    -0.389 OA
HETATM   23  H   UNL     1     -44.770  55.143 -50.519  1.00  0.00     0.210 HD
ENDBRANCH  21  22
BRANCH  21  24
HETATM   24  C   UNL     1     -42.543  54.614 -52.098  1.00  0.00     0.000 A 
HETATM   25  C   UNL     1     -41.538  53.624 -52.350  1.00  0.00     0.001 A 
HETATM   26  C   UNL     1     -41.597  53.292 -53.709  1.00  0.00     0.044 A 
HETATM   27  C   UNL     1     -40.584  52.978 -51.535  1.00  0.00     0.014 A 
HETATM   28  C   UNL     1     -40.741  52.331 -54.274  1.00  0.00     0.030 A 
HETATM   29  N   UNL     1     -42.597  54.062 -54.262  1.00  0.00    -0.360 N 
HETATM   30  C   UNL     1     -39.809  51.704 -53.442  1.00  0.00     0.002 A 
HETATM   31  C   UNL     1     -39.728  52.021 -52.091  1.00  0.00     0.001 A 
HETATM   32  C   UNL     1     -43.026  54.055 -55.643  1.00  0.00     0.155 C 
HETATM   33  C   UNL     1     -43.168  54.859 -53.306  1.00  0.00     0.101 A 
ENDBRANCH  21  24
ENDBRANCH  20  21
ENDBRANCH   2  20
TORSDOF 7
ENDMDL
MODEL 6
REMARK VINA RESULT:      -8.1      7.457     11.327
REMARK  7 active torsions:
REMARK  status: ('A' for Active; 'I' for Inactive)
REMARK       I    between atoms: C_2  and  N_3 
REMARK    1  A    between atoms: N_3  and  C_4 
REMARK    2  A    between atoms: C_7  and  N_8 
REMARK       I    between atoms: N_8  and  C_9 
REMARK    3  A    between atoms: C_9  and  C_10 
REMARK       I    between atoms: C_10  and  N_11 
REMARK    4  A    between atoms: N_11  and  C_12 
REMARK    5  A    between atoms: C_12  and  C_13 
REMARK    6  A    between atoms: C_13  and  O_14 
REMARK    7  A    between atoms: C_13  and  C_15 
ROOT
HETATM    1  C   UNL     1     -42.025  59.338 -51.698  1.00  0.00     0.309 C 
HETATM    2  N   UNL     1     -42.941  59.456 -50.679  1.00  0.00    -0.350 N 
HETATM    3  O   UNL     1     -41.697  60.225 -52.475  1.00  0.00    -0.262 OA
HETATM    4  H   UNL     1     -43.141  58.617 -50.137  1.00  0.00     0.163 HD
ENDROOT
BRANCH   1   5
HETATM    5  C   UNL     1     -41.423  57.924 -51.839  1.00  0.00     0.313 C 
HETATM    6  N   UNL     1     -41.732  57.354 -53.055  1.00  0.00    -0.319 N 
HETATM    7  H   UNL     1     -42.263  57.957 -53.678  1.00  0.00     0.169 HD
HETATM    8  O   UNL     1     -40.782  57.469 -50.903  1.00  0.00    -0.262 OA
BRANCH   6   9
HETATM    9  C   UNL     1     -41.454  56.048 -53.487  1.00  0.00     0.035 A 
HETATM   10  C   UNL     1     -40.534  55.740 -54.488  1.00  0.00     0.032 A 
HETATM   11  C   UNL     1     -40.270  54.405 -54.828  1.00  0.00     0.032 A 
HETATM   12  C   UNL     1     -40.926  53.360 -54.180  1.00  0.00     0.034 A 
HETATM   13  C   UNL     1     -41.868  53.672 -53.194  1.00  0.00     0.032 A 
HETATM   14  C   UNL     1     -42.126  55.002 -52.846  1.00  0.00     0.032 A 
BRANCH  12  15
HETATM   15  N   UNL     1     -40.697  51.994 -54.446  1.00  0.00    -0.328 N 
HETATM   16  C   UNL     1     -39.861  51.133 -53.759  1.00  0.00     0.218 C 
HETATM   17  C   UNL     1     -39.903  49.729 -54.313  1.00  0.00     0.117 C 
HETATM   18  O   UNL     1     -39.170  51.395 -52.782  1.00  0.00    -0.274 OA
HETATM   19  H   UNL     1     -41.232  51.596 -55.207  1.00  0.00     0.169 HD
ENDBRANCH  12  15
ENDBRANCH   6   9
ENDBRANCH   1   5
BRANCH   2  20
HETATM   20  C   UNL     1     -43.729  60.663 -50.478  1.00  0.00     0.159 C 
BRANCH  20  21
HETATM   21  C   UNL     1     -45.226  60.350 -50.277  1.00  0.00     0.171 C 
BRANCH  21  22
HETATM   22  O   UNL     1     -45.345  59.100 -49.580  1.00  0.00    -0.389 OA
HETATM   23  H   UNL     1     -44.698  58.503 -49.990  1.00  0.00     0.210 HD
ENDBRANCH  21  22
BRANCH  21  24
HETATM   24  C   UNL     1     -45.926  61.447 -49.534  1.00  0.00     0.000 A 
HETATM   25  C   UNL     1     -45.805  61.739 -48.137  1.00  0.00     0.001 A 
HETATM   26  C   UNL     1     -46.617  62.845 -47.860  1.00  0.00     0.044 A 
HETATM   27  C   UNL     1     -45.069  61.156 -47.082  1.00  0.00     0.014 A 
HETATM   28  C   UNL     1     -46.707  63.391 -46.567  1.00  0.00     0.030 A 
HETATM   29  N   UNL     1     -47.216  63.205 -49.047  1.00  0.00    -0.360 N 
HETATM   30  C   UNL     1     -45.964  62.797 -45.544  1.00  0.00     0.002 A 
HETATM   31  C   UNL     1     -45.156  61.694 -45.794  1.00  0.00     0.001 A 
HETATM   32  C   UNL     1     -48.136  64.303 -49.251  1.00  0.00     0.155 C 
HETATM   33  C   UNL     1     -46.811  62.372 -50.055  1.00  0.00     0.101 A 
ENDBRANCH  21  24
ENDBRANCH  20  21
ENDBRANCH   2  20
TORSDOF 7
ENDMDL
MODEL 7
REMARK VINA RESULT:      -8.0      8.198     11.556
REMARK  7 active torsions:
REMARK  status: ('A' for Active; 'I' for Inactive)
REMARK       I    between atoms: C_2  and  N_3 
REMARK    1  A    between atoms: N_3  and  C_4 
REMARK    2  A    between atoms: C_7  and  N_8 
REMARK       I    between atoms: N_8  and  C_9 
REMARK    3  A    between atoms: C_9  and  C_10 
REMARK       I    between atoms: C_10  and  N_11 
REMARK    4  A    between atoms: N_11  and  C_12 
REMARK    5  A    between atoms: C_12  and  C_13 
REMARK    6  A    between atoms: C_13  and  O_14 
REMARK    7  A    between atoms: C_13  and  C_15 
ROOT
HETATM    1  C   UNL     1     -44.671  59.468 -50.878  1.00  0.00     0.309 C 
HETATM    2  N   UNL     1     -43.855  58.364 -50.791  1.00  0.00    -0.350 N 
HETATM    3  O   UNL     1     -44.913  60.105 -51.894  1.00  0.00    -0.262 OA
HETATM    4  H   UNL     1     -43.718  57.961 -49.866  1.00  0.00     0.163 HD
ENDROOT
BRANCH   1   5
HETATM    5  C   UNL     1     -45.274  59.909 -49.527  1.00  0.00     0.313 C 
HETATM    6  N   UNL     1     -44.629  61.012 -49.013  1.00  0.00    -0.319 N 
HETATM    7  H   UNL     1     -43.896  61.386 -49.611  1.00  0.00     0.169 HD
HETATM    8  O   UNL     1     -46.202  59.261 -49.065  1.00  0.00    -0.262 OA
BRANCH   6   9
HETATM    9  C   UNL     1     -44.827  61.619 -47.763  1.00  0.00     0.035 A 
HETATM   10  C   UNL     1     -44.796  60.929 -46.552  1.00  0.00     0.032 A 
HETATM   11  C   UNL     1     -44.949  61.613 -45.337  1.00  0.00     0.032 A 
HETATM   12  C   UNL     1     -45.143  62.993 -45.315  1.00  0.00     0.034 A 
HETATM   13  C   UNL     1     -45.200  63.680 -46.532  1.00  0.00     0.032 A 
HETATM   14  C   UNL     1     -45.038  63.001 -47.744  1.00  0.00     0.032 A 
BRANCH  12  15
HETATM   15  N   UNL     1     -45.278  63.756 -44.136  1.00  0.00    -0.328 N 
HETATM   16  C   UNL     1     -44.393  63.830 -43.076  1.00  0.00     0.218 C 
HETATM   17  C   UNL     1     -44.860  64.782 -42.003  1.00  0.00     0.117 C 
HETATM   18  O   UNL     1     -43.317  63.253 -42.970  1.00  0.00    -0.274 OA
HETATM   19  H   UNL     1     -46.105  64.337 -44.078  1.00  0.00     0.169 HD
ENDBRANCH  12  15
ENDBRANCH   6   9
ENDBRANCH   1   5
BRANCH   2  20
HETATM   20  C   UNL     1     -43.075  57.884 -51.922  1.00  0.00     0.159 C 
BRANCH  20  21
HETATM   21  C   UNL     1     -41.615  57.580 -51.531  1.00  0.00     0.171 C 
BRANCH  21  22
HETATM   22  O   UNL     1     -41.380  58.080 -50.205  1.00  0.00    -0.389 OA
HETATM   23  H   UNL     1     -42.044  57.654 -49.638  1.00  0.00     0.210 HD
ENDBRANCH  21  22
BRANCH  21  24
HETATM   24  C   UNL     1     -41.313  56.114 -51.611  1.00  0.00     0.000 A 
HETATM   25  C   UNL     1     -41.014  55.372 -52.800  1.00  0.00     0.001 A 
HETATM   26  C   UNL     1     -40.785  54.043 -52.426  1.00  0.00     0.044 A 
HETATM   27  C   UNL     1     -40.914  55.720 -54.164  1.00  0.00     0.014 A 
HETATM   28  C   UNL     1     -40.450  53.056 -53.370  1.00  0.00     0.030 A 
HETATM   29  N   UNL     1     -40.949  53.979 -51.060  1.00  0.00    -0.360 N 
HETATM   30  C   UNL     1     -40.354  53.430 -54.713  1.00  0.00     0.002 A 
HETATM   31  C   UNL     1     -40.583  54.743 -55.108  1.00  0.00     0.001 A 
HETATM   32  C   UNL     1     -40.804  52.806 -50.226  1.00  0.00     0.155 C 
HETATM   33  C   UNL     1     -41.269  55.215 -50.562  1.00  0.00     0.101 A 
ENDBRANCH  21  24
ENDBRANCH  20  21
ENDBRANCH   2  20
TORSDOF 7
ENDMDL
MODEL 8
REMARK VINA RESULT:      -8.0      6.146      8.313
REMARK  7 active torsions:
REMARK  status: ('A' for Active; 'I' for Inactive)
REMARK       I    between atoms: C_2  and  N_3 
REMARK    1  A    between atoms: N_3  and  C_4 
REMARK    2  A    between atoms: C_7  and  N_8 
REMARK       I    between atoms: N_8  and  C_9 
REMARK    3  A    between atoms: C_9  and  C_10 
REMARK       I    between atoms: C_10  and  N_11 
REMARK    4  A    between atoms: N_11  and  C_12 
REMARK    5  A    between atoms: C_12  and  C_13 
REMARK    6  A    between atoms: C_13  and  O_14 
REMARK    7  A    between atoms: C_13  and  C_15 
ROOT
HETATM    1  C   UNL     1     -41.774  58.025 -53.792  1.00  0.00     0.309 C 
HETATM    2  N   UNL     1     -42.723  57.454 -54.607  1.00  0.00    -0.350 N 
HETATM    3  O   UNL     1     -40.656  57.581 -53.570  1.00  0.00    -0.262 OA
HETATM    4  H   UNL     1     -43.627  57.921 -54.664  1.00  0.00     0.163 HD
ENDROOT
BRANCH   1   5
HETATM    5  C   UNL     1     -42.243  59.322 -53.098  1.00  0.00     0.313 C 
HETATM    6  N   UNL     1     -43.254  59.082 -52.193  1.00  0.00    -0.319 N 
HETATM    7  H   UNL     1     -43.503  58.101 -52.091  1.00  0.00     0.169 HD
HETATM    8  O   UNL     1     -41.711  60.376 -53.414  1.00  0.00    -0.262 OA
BRANCH   6   9
HETATM    9  C   UNL     1     -43.997  60.025 -51.465  1.00  0.00     0.035 A 
HETATM   10  C   UNL     1     -45.310  60.381 -51.768  1.00  0.00     0.032 A 
HETATM   11  C   UNL     1     -46.007  61.293 -50.961  1.00  0.00     0.032 A 
HETATM   12  C   UNL     1     -45.400  61.867 -49.846  1.00  0.00     0.034 A 
HETATM   13  C   UNL     1     -44.074  61.528 -49.557  1.00  0.00     0.032 A 
HETATM   14  C   UNL     1     -43.380  60.612 -50.356  1.00  0.00     0.032 A 
BRANCH  12  15
HETATM   15  N   UNL     1     -46.041  62.769 -48.971  1.00  0.00    -0.328 N 
HETATM   16  C   UNL     1     -46.760  62.466 -47.829  1.00  0.00     0.218 C 
HETATM   17  C   UNL     1     -47.270  63.701 -47.127  1.00  0.00     0.117 C 
HETATM   18  O   UNL     1     -46.964  61.354 -47.358  1.00  0.00    -0.274 OA
HETATM   19  H   UNL     1     -45.933  63.751 -49.192  1.00  0.00     0.169 HD
ENDBRANCH  12  15
ENDBRANCH   6   9
ENDBRANCH   1   5
BRANCH   2  20
HETATM   20  C   UNL     1     -42.531  56.153 -55.231  1.00  0.00     0.159 C 
BRANCH  20  21
HETATM   21  C   UNL     1     -43.332  55.046 -54.517  1.00  0.00     0.171 C 
BRANCH  21  22
HETATM   22  O   UNL     1     -43.574  53.980 -55.449  1.00  0.00    -0.389 OA
HETATM   23  H   UNL     1     -43.007  53.244 -55.165  1.00  0.00     0.210 HD
ENDBRANCH  21  22
BRANCH  21  24
HETATM   24  C   UNL     1     -42.618  54.541 -53.300  1.00  0.00     0.000 A 
HETATM   25  C   UNL     1     -41.577  53.556 -53.273  1.00  0.00     0.001 A 
HETATM   26  C   UNL     1     -41.182  53.389 -51.941  1.00  0.00     0.044 A 
HETATM   27  C   UNL     1     -40.933  52.794 -54.272  1.00  0.00     0.014 A 
HETATM   28  C   UNL     1     -40.161  52.493 -51.578  1.00  0.00     0.030 A 
HETATM   29  N   UNL     1     -41.963  54.236 -51.186  1.00  0.00    -0.360 N 
HETATM   30  C   UNL     1     -39.538  51.756 -52.589  1.00  0.00     0.002 A 
HETATM   31  C   UNL     1     -39.917  51.901 -53.918  1.00  0.00     0.001 A 
HETATM   32  C   UNL     1     -41.907  54.413 -49.751  1.00  0.00     0.155 C 
HETATM   33  C   UNL     1     -42.828  54.928 -51.991  1.00  0.00     0.101 A 
ENDBRANCH  21  24
ENDBRANCH  20  21
ENDBRANCH   2  20
TORSDOF 7
ENDMDL
MODEL 9
REMARK VINA RESULT:      -8.0      7.735     11.417
REMARK  7 active torsions:
REMARK  status: ('A' for Active; 'I' for Inactive)
REMARK       I    between atoms: C_2  and  N_3 
REMARK    1  A    between atoms: N_3  and  C_4 
REMARK    2  A    between atoms: C_7  and  N_8 
REMARK       I    between atoms: N_8  and  C_9 
REMARK    3  A    between atoms: C_9  and  C_10 
REMARK       I    between atoms: C_10  and  N_11 
REMARK    4  A    between atoms: N_11  and  C_12 
REMARK    5  A    between atoms: C_12  and  C_13 
REMARK    6  A    between atoms: C_13  and  O_14 
REMARK    7  A    between atoms: C_13  and  C_15 
ROOT
HETATM    1  C   UNL     1     -42.411  59.420 -51.591  1.00  0.00     0.309 C 
HETATM    2  N   UNL     1     -43.312  59.556 -50.560  1.00  0.00    -0.350 N 
HETATM    3  O   UNL     1     -42.100  60.291 -52.392  1.00  0.00    -0.262 OA
HETATM    4  H   UNL     1     -43.500  58.728 -49.998  1.00  0.00     0.163 HD
ENDROOT
BRANCH   1   5
HETATM    5  C   UNL     1     -41.807  58.005 -51.713  1.00  0.00     0.313 C 
HETATM    6  N   UNL     1     -42.001  57.471 -52.967  1.00  0.00    -0.319 N 
HETATM    7  H   UNL     1     -42.467  58.094 -53.622  1.00  0.00     0.169 HD
HETATM    8  O   UNL     1     -41.260  57.521 -50.733  1.00  0.00    -0.262 OA
BRANCH   6   9
HETATM    9  C   UNL     1     -41.690  56.174 -53.406  1.00  0.00     0.035 A 
HETATM   10  C   UNL     1     -40.642  55.879 -54.276  1.00  0.00     0.032 A 
HETATM   11  C   UNL     1     -40.358  54.551 -54.627  1.00  0.00     0.032 A 
HETATM   12  C   UNL     1     -41.121  53.500 -54.121  1.00  0.00     0.034 A 
HETATM   13  C   UNL     1     -42.189  53.800 -53.269  1.00  0.00     0.032 A 
HETATM   14  C   UNL     1     -42.468  55.123 -52.910  1.00  0.00     0.032 A 
BRANCH  12  15
HETATM   15  N   UNL     1     -40.883  52.139 -54.405  1.00  0.00    -0.328 N 
HETATM   16  C   UNL     1     -39.968  51.301 -53.795  1.00  0.00     0.218 C 
HETATM   17  C   UNL     1     -40.025  49.895 -54.341  1.00  0.00     0.117 C 
HETATM   18  O   UNL     1     -39.199  51.584 -52.885  1.00  0.00    -0.274 OA
HETATM   19  H   UNL     1     -41.475  51.726 -55.115  1.00  0.00     0.169 HD
ENDBRANCH  12  15
ENDBRANCH   6   9
ENDBRANCH   1   5
BRANCH   2  20
HETATM   20  C   UNL     1     -44.101  60.764 -50.372  1.00  0.00     0.159 C 
BRANCH  20  21
HETATM   21  C   UNL     1     -45.440  60.475 -49.664  1.00  0.00     0.171 C 
BRANCH  21  22
HETATM   22  O   UNL     1     -45.624  59.053 -49.588  1.00  0.00    -0.389 OA
HETATM   23  H   UNL     1     -44.945  58.666 -50.165  1.00  0.00     0.210 HD
ENDBRANCH  21  22
BRANCH  21  24
HETATM   24  C   UNL     1     -45.491  61.095 -48.300  1.00  0.00     0.000 A 
HETATM   25  C   UNL     1     -46.346  62.168 -47.885  1.00  0.00     0.001 A 
HETATM   26  C   UNL     1     -46.079  62.429 -46.536  1.00  0.00     0.044 A 
HETATM   27  C   UNL     1     -47.328  62.938 -48.544  1.00  0.00     0.014 A 
HETATM   28  C   UNL     1     -46.769  63.426 -45.825  1.00  0.00     0.030 A 
HETATM   29  N   UNL     1     -45.090  61.551 -46.150  1.00  0.00    -0.360 N 
HETATM   30  C   UNL     1     -47.740  64.170 -46.502  1.00  0.00     0.002 A 
HETATM   31  C   UNL     1     -48.018  63.932 -47.843  1.00  0.00     0.001 A 
HETATM   32  C   UNL     1     -44.497  61.444 -44.835  1.00  0.00     0.155 C 
HETATM   33  C   UNL     1     -44.729  60.750 -47.200  1.00  0.00     0.101 A 
ENDBRANCH  21  24
ENDBRANCH  20  21
ENDBRANCH   2  20
TORSDOF 7
ENDMDL
MODEL 10
REMARK VINA RESULT:      -7.9      7.880     12.347
REMARK  7 active torsions:
REMARK  status: ('A' for Active; 'I' for Inactive)
REMARK       I    between atoms: C_2  and  N_3 
REMARK    1  A    between atoms: N_3  and  C_4 
REMARK    2  A    between atoms: C_7  and  N_8 
REMARK       I    between atoms: N_8  and  C_9 
REMARK    3  A    between atoms: C_9  and  C_10 
REMARK       I    between atoms: C_10  and  N_11 
REMARK    4  A    between atoms: N_11  and  C_12 
REMARK    5  A    between atoms: C_12  and  C_13 
REMARK    6  A    between atoms: C_13  and  O_14 
REMARK    7  A    between atoms: C_13  and  C_15 
ROOT
HETATM    1  C   UNL     1     -42.611  59.563 -51.359  1.00  0.00     0.309 C 
HETATM    2  N   UNL     1     -43.590  59.629 -50.395  1.00  0.00    -0.350 N 
HETATM    3  O   UNL     1     -42.083  60.518 -51.913  1.00  0.00    -0.262 OA
HETATM    4  H   UNL     1     -43.963  58.746 -50.053  1.00  0.00     0.163 HD
ENDROOT
BRANCH   1   5
HETATM    5  C   UNL     1     -42.217  58.124 -51.754  1.00  0.00     0.313 C 
HETATM    6  N   UNL     1     -42.302  57.258 -50.687  1.00  0.00    -0.319 N 
HETATM    7  H   UNL     1     -42.644  57.681 -49.828  1.00  0.00     0.169 HD
HETATM    8  O   UNL     1     -41.873  57.913 -52.908  1.00  0.00    -0.262 OA
BRANCH   6   9
HETATM    9  C   UNL     1     -41.917  55.908 -50.644  1.00  0.00     0.035 A 
HETATM   10  C   UNL     1     -42.614  54.882 -51.280  1.00  0.00     0.032 A 
HETATM   11  C   UNL     1     -42.138  53.563 -51.237  1.00  0.00     0.032 A 
HETATM   12  C   UNL     1     -40.965  53.250 -50.552  1.00  0.00     0.034 A 
HETATM   13  C   UNL     1     -40.281  54.276 -49.893  1.00  0.00     0.032 A 
HETATM   14  C   UNL     1     -40.750  55.594 -49.942  1.00  0.00     0.032 A 
BRANCH  12  15
HETATM   15  N   UNL     1     -40.408  51.955 -50.485  1.00  0.00    -0.328 N 
HETATM   16  C   UNL     1     -39.717  51.285 -51.477  1.00  0.00     0.218 C 
HETATM   17  C   UNL     1     -39.238  49.927 -51.025  1.00  0.00     0.117 C 
HETATM   18  O   UNL     1     -39.450  51.697 -52.599  1.00  0.00    -0.274 OA
HETATM   19  H   UNL     1     -40.501  51.481 -49.596  1.00  0.00     0.169 HD
ENDBRANCH  12  15
ENDBRANCH   6   9
ENDBRANCH   1   5
BRANCH   2  20
HETATM   20  C   UNL     1     -44.204  60.887 -49.996  1.00  0.00     0.159 C 
BRANCH  20  21
HETATM   21  C   UNL     1     -45.526  60.669 -49.233  1.00  0.00     0.171 C 
BRANCH  21  22
HETATM   22  O   UNL     1     -45.809  59.261 -49.195  1.00  0.00    -0.389 OA
HETATM   23  H   UNL     1     -46.601  59.134 -49.743  1.00  0.00     0.210 HD
ENDBRANCH  21  22
BRANCH  21  24
HETATM   24  C   UNL     1     -45.468  61.240 -47.848  1.00  0.00     0.000 A 
HETATM   25  C   UNL     1     -46.266  62.317 -47.339  1.00  0.00     0.001 A 
HETATM   26  C   UNL     1     -45.901  62.523 -46.004  1.00  0.00     0.044 A 
HETATM   27  C   UNL     1     -47.272  63.131 -47.901  1.00  0.00     0.014 A 
HETATM   28  C   UNL     1     -46.516  63.509 -45.213  1.00  0.00     0.030 A 
HETATM   29  N   UNL     1     -44.910  61.610 -45.717  1.00  0.00    -0.360 N 
HETATM   30  C   UNL     1     -47.513  64.298 -45.794  1.00  0.00     0.002 A 
HETATM   31  C   UNL     1     -47.887  64.115 -47.120  1.00  0.00     0.001 A 
HETATM   32  C   UNL     1     -44.231  61.443 -44.450  1.00  0.00     0.155 C 
HETATM   33  C   UNL     1     -44.642  60.839 -46.816  1.00  0.00     0.101 A 
ENDBRANCH  21  24
ENDBRANCH  20  21
ENDBRANCH   2  20
TORSDOF 7
ENDMDL
