MODEL 1
REMARK VINA RESULT:      -9.8      0.000      0.000
REMARK  5 active torsions:
REMARK  status: ('A' for Active; 'I' for Inactive)
REMARK    1  A    between atoms: C_2  and  N_3 
REMARK    2  A    between atoms: C_7  and  N_8 
REMARK       I    between atoms: N_8  and  C_9 
REMARK    3  A    between atoms: C_9  and  C_10 
REMARK    4  A    between atoms: C_13  and  C_14 
REMARK    5  A    between atoms: C_14  and  C_15 
ROOT
HETATM    1  N   UNL     1     -41.449  56.461 -55.645  1.00  0.00    -0.323 N 
HETATM    2  C   UNL     1     -42.647  56.810 -56.243  1.00  0.00     0.256 C 
HETATM    3  O   UNL     1     -43.771  56.582 -55.812  1.00  0.00    -0.267 OA
HETATM    4  H   UNL     1     -40.608  56.890 -56.005  1.00  0.00     0.169 HD
ENDROOT
BRANCH   1   5
HETATM    5  C   UNL     1     -41.263  55.554 -54.578  1.00  0.00     0.035 A 
HETATM    6  C   UNL     1     -40.874  54.223 -54.755  1.00  0.00     0.044 A 
HETATM    7  C   UNL     1     -40.620  53.399 -53.636  1.00  0.00     0.005 A 
HETATM    8  C   UNL     1     -40.764  53.933 -52.355  1.00  0.00     0.046 A 
HETATM    9  C   UNL     1     -40.205  52.038 -53.494  1.00  0.00     0.003 A 
HETATM   10  N   UNL     1     -40.418  52.936 -51.462  1.00  0.00    -0.346 N 
HETATM   11  C   UNL     1     -41.183  55.257 -52.154  1.00  0.00     0.033 A 
HETATM   12  C   UNL     1     -40.088  51.771 -52.129  1.00  0.00     0.046 A 
HETATM   13  C   UNL     1     -39.693  50.508 -51.653  1.00  0.00     0.030 A 
HETATM   14  C   UNL     1     -39.412  49.508 -52.589  1.00  0.00     0.002 A 
HETATM   15  C   UNL     1     -39.520  49.754 -53.953  1.00  0.00     0.001 A 
HETATM   16  C   UNL     1     -39.915  51.011 -54.417  1.00  0.00     0.014 A 
HETATM   17  C   UNL     1     -41.424  56.051 -53.282  1.00  0.00     0.032 A 
BRANCH  10  18
HETATM   18  C   UNL     1     -40.367  53.100 -50.017  1.00  0.00     0.125 C 
HETATM   19  C   UNL     1     -39.399  54.189 -49.593  1.00  0.00     0.027 C 
ENDBRANCH  10  18
ENDBRANCH   1   5
BRANCH   2  20
HETATM   20  C   UNL     1     -42.525  57.545 -57.538  1.00  0.00     0.032 A 
HETATM   21  C   UNL     1     -42.302  58.927 -57.590  1.00  0.00     0.017 A 
HETATM   22  C   UNL     1     -42.109  59.563 -58.821  1.00  0.00     0.008 A 
HETATM   23  C   UNL     1     -42.107  58.826 -60.012  1.00  0.00    -0.057 A 
HETATM   24  C   UNL     1     -42.345  57.445 -59.954  1.00  0.00     0.008 A 
HETATM   25  C   UNL     1     -42.547  56.810 -58.728  1.00  0.00     0.017 A 
BRANCH  23  26
HETATM   26  C   UNL     1     -41.803  59.491 -61.336  1.00  0.00     0.053 C 
BRANCH  26  27
HETATM   27  C   UNL     1     -42.078  61.002 -61.399  1.00  0.00     0.091 C 
HETATM   28  C   UNL     1     -42.342  61.466 -62.810  1.00  0.00     0.229 C 
HETATM   29  O   UNL     1     -43.291  61.132 -63.500  1.00  0.00    -0.273 OA
HETATM   30  N   UNL     1     -41.332  62.283 -63.200  1.00  0.00    -0.297 N 
HETATM   31  C   UNL     1     -40.435  62.533 -62.214  1.00  0.00     0.225 C 
HETATM   32  H   UNL     1     -41.248  62.658 -64.131  1.00  0.00     0.171 HD
HETATM   33  O   UNL     1     -39.432  63.218 -62.322  1.00  0.00    -0.273 OA
HETATM   34  C   UNL     1     -40.919  61.892 -60.947  1.00  0.00     0.117 C 
ENDBRANCH  26  27
ENDBRANCH  23  26
ENDBRANCH   2  20
TORSDOF 5
ENDMDL
MODEL 2
REMARK VINA RESULT:      -9.6      5.795     11.021
REMARK  5 active torsions:
REMARK  status: ('A' for Active; 'I' for Inactive)
REMARK    1  A    between atoms: C_2  and  N_3 
REMARK    2  A    between atoms: C_7  and  N_8 
REMARK       I    between atoms: N_8  and  C_9 
REMARK    3  A    between atoms: C_9  and  C_10 
REMARK    4  A    between atoms: C_13  and  C_14 
REMARK    5  A    between atoms: C_14  and  C_15 
ROOT
HETATM    1  N   UNL     1     -42.562  57.870 -52.038  1.00  0.00    -0.323 N 
HETATM    2  C   UNL     1     -41.657  57.613 -53.051  1.00  0.00     0.256 C 
HETATM    3  O   UNL     1     -40.963  58.436 -53.637  1.00  0.00    -0.267 OA
HETATM    4  H   UNL     1     -42.907  57.079 -51.512  1.00  0.00     0.169 HD
ENDROOT
BRANCH   1   5
HETATM    5  C   UNL     1     -43.073  59.129 -51.652  1.00  0.00     0.035 A 
HETATM    6  C   UNL     1     -44.309  59.624 -52.077  1.00  0.00     0.044 A 
HETATM    7  C   UNL     1     -44.795  60.854 -51.578  1.00  0.00     0.005 A 
HETATM    8  C   UNL     1     -44.023  61.564 -50.658  1.00  0.00     0.046 A 
HETATM    9  C   UNL     1     -45.995  61.597 -51.803  1.00  0.00     0.003 A 
HETATM   10  N   UNL     1     -44.746  62.691 -50.312  1.00  0.00    -0.346 N 
HETATM   11  C   UNL     1     -42.765  61.101 -50.242  1.00  0.00     0.033 A 
HETATM   12  C   UNL     1     -45.941  62.741 -51.004  1.00  0.00     0.046 A 
HETATM   13  C   UNL     1     -46.980  63.688 -50.996  1.00  0.00     0.030 A 
HETATM   14  C   UNL     1     -48.090  63.458 -51.815  1.00  0.00     0.002 A 
HETATM   15  C   UNL     1     -48.165  62.324 -52.616  1.00  0.00     0.001 A 
HETATM   16  C   UNL     1     -47.127  61.389 -52.620  1.00  0.00     0.014 A 
HETATM   17  C   UNL     1     -42.311  59.878 -50.750  1.00  0.00     0.032 A 
BRANCH  10  18
HETATM   18  C   UNL     1     -44.325  63.671 -49.323  1.00  0.00     0.125 C 
HETATM   19  C   UNL     1     -44.757  63.295 -47.917  1.00  0.00     0.027 C 
ENDBRANCH  10  18
ENDBRANCH   1   5
BRANCH   2  20
HETATM   20  C   UNL     1     -41.527  56.177 -53.444  1.00  0.00     0.032 A 
HETATM   21  C   UNL     1     -40.556  55.741 -54.354  1.00  0.00     0.017 A 
HETATM   22  C   UNL     1     -40.412  54.377 -54.630  1.00  0.00     0.008 A 
HETATM   23  C   UNL     1     -41.215  53.429 -53.982  1.00  0.00    -0.057 A 
HETATM   24  C   UNL     1     -42.194  53.874 -53.082  1.00  0.00     0.008 A 
HETATM   25  C   UNL     1     -42.346  55.235 -52.812  1.00  0.00     0.017 A 
BRANCH  23  26
HETATM   26  C   UNL     1     -41.000  51.948 -54.202  1.00  0.00     0.053 C 
BRANCH  26  27
HETATM   27  C   UNL     1     -39.669  51.385 -53.678  1.00  0.00     0.091 C 
HETATM   28  C   UNL     1     -39.595  49.886 -53.829  1.00  0.00     0.229 C 
HETATM   29  O   UNL     1     -39.585  49.280 -54.887  1.00  0.00    -0.273 OA
HETATM   30  N   UNL     1     -39.583  49.322 -52.596  1.00  0.00    -0.297 N 
HETATM   31  C   UNL     1     -39.542  50.230 -51.591  1.00  0.00     0.225 C 
HETATM   32  H   UNL     1     -39.612  48.327 -52.440  1.00  0.00     0.171 HD
HETATM   33  O   UNL     1     -39.545  49.974 -50.399  1.00  0.00    -0.273 OA
HETATM   34  C   UNL     1     -39.416  51.602 -52.185  1.00  0.00     0.117 C 
ENDBRANCH  26  27
ENDBRANCH  23  26
ENDBRANCH   2  20
TORSDOF 5
ENDMDL
MODEL 3
REMARK VINA RESULT:      -9.4      1.744      2.421
REMARK  5 active torsions:
REMARK  status: ('A' for Active; 'I' for Inactive)
REMARK    1  A    between atoms: C_2  and  N_3 
REMARK    2  A    between atoms: C_7  and  N_8 
REMARK       I    between atoms: N_8  and  C_9 
REMARK    3  A    between atoms: C_9  and  C_10 
REMARK    4  A    between atoms: C_13  and  C_14 
REMARK    5  A    between atoms: C_14  and  C_15 
ROOT
HETATM    1  N   UNL     1     -41.758  56.371 -55.841  1.00  0.00    -0.323 N 
HETATM    2  C   UNL     1     -42.522  56.093 -56.960  1.00  0.00     0.256 C 
HETATM    3  O   UNL     1     -43.305  55.161 -57.097  1.00  0.00    -0.267 OA
HETATM    4  H   UNL     1     -41.318  57.279 -55.792  1.00  0.00     0.169 HD
ENDROOT
BRANCH   1   5
HETATM    5  C   UNL     1     -41.514  55.515 -54.744  1.00  0.00     0.035 A 
HETATM    6  C   UNL     1     -41.078  54.194 -54.877  1.00  0.00     0.044 A 
HETATM    7  C   UNL     1     -40.768  53.426 -53.732  1.00  0.00     0.005 A 
HETATM    8  C   UNL     1     -40.905  54.005 -52.470  1.00  0.00     0.046 A 
HETATM    9  C   UNL     1     -40.298  52.089 -53.547  1.00  0.00     0.003 A 
HETATM   10  N   UNL     1     -40.501  53.058 -51.547  1.00  0.00    -0.346 N 
HETATM   11  C   UNL     1     -41.371  55.319 -52.312  1.00  0.00     0.033 A 
HETATM   12  C   UNL     1     -40.140  51.880 -52.175  1.00  0.00     0.046 A 
HETATM   13  C   UNL     1     -39.687  50.654 -51.660  1.00  0.00     0.030 A 
HETATM   14  C   UNL     1     -39.388  49.628 -52.562  1.00  0.00     0.002 A 
HETATM   15  C   UNL     1     -39.535  49.815 -53.931  1.00  0.00     0.001 A 
HETATM   16  C   UNL     1     -39.988  51.037 -54.435  1.00  0.00     0.014 A 
HETATM   17  C   UNL     1     -41.666  56.057 -53.465  1.00  0.00     0.032 A 
BRANCH  10  18
HETATM   18  C   UNL     1     -40.425  53.282 -50.111  1.00  0.00     0.125 C 
HETATM   19  C   UNL     1     -39.364  54.303 -49.741  1.00  0.00     0.027 C 
ENDBRANCH  10  18
ENDBRANCH   1   5
BRANCH   2  20
HETATM   20  C   UNL     1     -42.360  57.049 -58.098  1.00  0.00     0.032 A 
HETATM   21  C   UNL     1     -42.582  56.667 -59.426  1.00  0.00     0.017 A 
HETATM   22  C   UNL     1     -42.503  57.613 -60.454  1.00  0.00     0.008 A 
HETATM   23  C   UNL     1     -42.230  58.957 -60.166  1.00  0.00    -0.057 A 
HETATM   24  C   UNL     1     -41.994  59.330 -58.836  1.00  0.00     0.008 A 
HETATM   25  C   UNL     1     -42.064  58.385 -57.809  1.00  0.00     0.017 A 
BRANCH  23  26
HETATM   26  C   UNL     1     -42.239  60.002 -61.260  1.00  0.00     0.053 C 
BRANCH  26  27
HETATM   27  C   UNL     1     -43.568  60.749 -61.453  1.00  0.00     0.091 C 
HETATM   28  C   UNL     1     -43.609  62.035 -60.666  1.00  0.00     0.229 C 
HETATM   29  O   UNL     1     -42.888  63.002 -60.849  1.00  0.00    -0.273 OA
HETATM   30  N   UNL     1     -44.549  61.925 -59.695  1.00  0.00    -0.297 N 
HETATM   31  C   UNL     1     -45.246  60.764 -59.753  1.00  0.00     0.225 C 
HETATM   32  H   UNL     1     -44.709  62.630 -58.993  1.00  0.00     0.171 HD
HETATM   33  O   UNL     1     -46.126  60.422 -58.981  1.00  0.00    -0.273 OA
HETATM   34  C   UNL     1     -44.810  59.999 -60.968  1.00  0.00     0.117 C 
ENDBRANCH  26  27
ENDBRANCH  23  26
ENDBRANCH   2  20
TORSDOF 5
ENDMDL
MODEL 4
REMARK VINA RESULT:      -9.3      6.061     11.184
REMARK  5 active torsions:
REMARK  status: ('A' for Active; 'I' for Inactive)
REMARK    1  A    between atoms: C_2  and  N_3 
REMARK    2  A    between atoms: C_7  and  N_8 
REMARK       I    between atoms: N_8  and  C_9 
REMARK    3  A    between atoms: C_9  and  C_10 
REMARK    4  A    between atoms: C_13  and  C_14 
REMARK    5  A    between atoms: C_14  and  C_15 
ROOT
HETATM    1  N   UNL     1     -43.787  57.528 -52.148  1.00  0.00    -0.323 N 
HETATM    2  C   UNL     1     -42.512  57.457 -52.681  1.00  0.00     0.256 C 
HETATM    3  O   UNL     1     -41.703  58.373 -52.763  1.00  0.00    -0.267 OA
HETATM    4  H   UNL     1     -44.260  56.655 -51.960  1.00  0.00     0.169 HD
ENDROOT
BRANCH   1   5
HETATM    5  C   UNL     1     -44.516  58.698 -51.839  1.00  0.00     0.035 A 
HETATM    6  C   UNL     1     -44.633  59.216 -50.546  1.00  0.00     0.044 A 
HETATM    7  C   UNL     1     -45.303  60.441 -50.327  1.00  0.00     0.005 A 
HETATM    8  C   UNL     1     -45.847  61.121 -51.417  1.00  0.00     0.046 A 
HETATM    9  C   UNL     1     -45.569  61.217 -49.156  1.00  0.00     0.003 A 
HETATM   10  N   UNL     1     -46.399  62.290 -50.928  1.00  0.00    -0.346 N 
HETATM   11  C   UNL     1     -45.768  60.603 -52.719  1.00  0.00     0.033 A 
HETATM   12  C   UNL     1     -46.256  62.365 -49.555  1.00  0.00     0.046 A 
HETATM   13  C   UNL     1     -46.665  63.341 -48.631  1.00  0.00     0.030 A 
HETATM   14  C   UNL     1     -46.364  63.140 -47.280  1.00  0.00     0.002 A 
HETATM   15  C   UNL     1     -45.679  62.005 -46.861  1.00  0.00     0.001 A 
HETATM   16  C   UNL     1     -45.277  61.038 -47.787  1.00  0.00     0.014 A 
HETATM   17  C   UNL     1     -45.094  59.389 -52.907  1.00  0.00     0.032 A 
BRANCH  10  18
HETATM   18  C   UNL     1     -47.013  63.322 -51.750  1.00  0.00     0.125 C 
HETATM   19  C   UNL     1     -48.494  63.079 -51.971  1.00  0.00     0.027 C 
ENDBRANCH  10  18
ENDBRANCH   1   5
BRANCH   2  20
HETATM   20  C   UNL     1     -42.107  56.113 -53.194  1.00  0.00     0.032 A 
HETATM   21  C   UNL     1     -40.892  55.906 -53.859  1.00  0.00     0.017 A 
HETATM   22  C   UNL     1     -40.512  54.617 -54.247  1.00  0.00     0.008 A 
HETATM   23  C   UNL     1     -41.325  53.515 -53.951  1.00  0.00    -0.057 A 
HETATM   24  C   UNL     1     -42.546  53.730 -53.298  1.00  0.00     0.008 A 
HETATM   25  C   UNL     1     -42.932  55.017 -52.917  1.00  0.00     0.017 A 
BRANCH  23  26
HETATM   26  C   UNL     1     -40.875  52.108 -54.281  1.00  0.00     0.053 C 
BRANCH  26  27
HETATM   27  C   UNL     1     -39.635  51.612 -53.521  1.00  0.00     0.091 C 
HETATM   28  C   UNL     1     -39.510  50.110 -53.569  1.00  0.00     0.229 C 
HETATM   29  O   UNL     1     -39.321  49.447 -54.575  1.00  0.00    -0.273 OA
HETATM   30  N   UNL     1     -39.684  49.615 -52.319  1.00  0.00    -0.297 N 
HETATM   31  C   UNL     1     -39.821  50.578 -51.375  1.00  0.00     0.225 C 
HETATM   32  H   UNL     1     -39.719  48.629 -52.111  1.00  0.00     0.171 HD
HETATM   33  O   UNL     1     -40.009  50.388 -50.186  1.00  0.00    -0.273 OA
HETATM   34  C   UNL     1     -39.627  51.918 -52.022  1.00  0.00     0.117 C 
ENDBRANCH  26  27
ENDBRANCH  23  26
ENDBRANCH   2  20
TORSDOF 5
ENDMDL
MODEL 5
REMARK VINA RESULT:      -9.1      5.541      8.020
REMARK  5 active torsions:
REMARK  status: ('A' for Active; 'I' for Inactive)
REMARK    1  A    between atoms: C_2  and  N_3 
REMARK    2  A    between atoms: C_7  and  N_8 
REMARK       I    between atoms: N_8  and  C_9 
REMARK    3  A    between atoms: C_9  and  C_10 
REMARK    4  A    between atoms: C_13  and  C_14 
REMARK    5  A    between atoms: C_14  and  C_15 
ROOT
HETATM    1  N   UNL     1     -41.584  57.225 -52.865  1.00  0.00    -0.323 N 
HETATM    2  C   UNL     1     -40.870  58.409 -52.882  1.00  0.00     0.256 C 
HETATM    3  O   UNL     1     -39.722  58.564 -53.283  1.00  0.00    -0.267 OA
HETATM    4  H   UNL     1     -42.579  57.285 -52.702  1.00  0.00     0.169 HD
ENDROOT
BRANCH   1   5
HETATM    5  C   UNL     1     -41.072  55.920 -53.044  1.00  0.00     0.035 A 
HETATM    6  C   UNL     1     -40.977  54.980 -52.015  1.00  0.00     0.044 A 
HETATM    7  C   UNL     1     -40.539  53.664 -52.289  1.00  0.00     0.005 A 
HETATM    8  C   UNL     1     -40.202  53.321 -53.598  1.00  0.00     0.046 A 
HETATM    9  C   UNL     1     -40.354  52.503 -51.475  1.00  0.00     0.003 A 
HETATM   10  N   UNL     1     -39.852  51.983 -53.586  1.00  0.00    -0.346 N 
HETATM   11  C   UNL     1     -40.260  54.258 -54.641  1.00  0.00     0.033 A 
HETATM   12  C   UNL     1     -39.923  51.467 -52.306  1.00  0.00     0.046 A 
HETATM   13  C   UNL     1     -39.651  50.182 -51.806  1.00  0.00     0.030 A 
HETATM   14  C   UNL     1     -39.825  49.955 -50.437  1.00  0.00     0.002 A 
HETATM   15  C   UNL     1     -40.256  50.972 -49.592  1.00  0.00     0.001 A 
HETATM   16  C   UNL     1     -40.523  52.247 -50.098  1.00  0.00     0.014 A 
HETATM   17  C   UNL     1     -40.702  55.553 -54.341  1.00  0.00     0.032 A 
BRANCH  10  18
HETATM   18  C   UNL     1     -39.497  51.211 -54.767  1.00  0.00     0.125 C 
HETATM   19  C   UNL     1     -40.174  49.853 -54.794  1.00  0.00     0.027 C 
ENDBRANCH  10  18
ENDBRANCH   1   5
BRANCH   2  20
HETATM   20  C   UNL     1     -41.601  59.604 -52.362  1.00  0.00     0.032 A 
HETATM   21  C   UNL     1     -42.422  60.388 -53.181  1.00  0.00     0.017 A 
HETATM   22  C   UNL     1     -43.155  61.447 -52.636  1.00  0.00     0.008 A 
HETATM   23  C   UNL     1     -43.102  61.720 -51.263  1.00  0.00    -0.057 A 
HETATM   24  C   UNL     1     -42.267  60.940 -50.450  1.00  0.00     0.008 A 
HETATM   25  C   UNL     1     -41.527  59.888 -50.994  1.00  0.00     0.017 A 
BRANCH  23  26
HETATM   26  C   UNL     1     -43.966  62.800 -50.651  1.00  0.00     0.053 C 
BRANCH  26  27
HETATM   27  C   UNL     1     -45.288  62.321 -50.029  1.00  0.00     0.091 C 
HETATM   28  C   UNL     1     -45.088  61.778 -48.636  1.00  0.00     0.229 C 
HETATM   29  O   UNL     1     -44.716  62.424 -47.671  1.00  0.00    -0.273 OA
HETATM   30  N   UNL     1     -45.350  60.448 -48.642  1.00  0.00    -0.297 N 
HETATM   31  C   UNL     1     -45.801  59.996 -49.838  1.00  0.00     0.225 C 
HETATM   32  H   UNL     1     -45.213  59.851 -47.842  1.00  0.00     0.171 HD
HETATM   33  O   UNL     1     -46.085  58.840 -50.101  1.00  0.00    -0.273 OA
HETATM   34  C   UNL     1     -45.968  61.164 -50.764  1.00  0.00     0.117 C 
ENDBRANCH  26  27
ENDBRANCH  23  26
ENDBRANCH   2  20
TORSDOF 5
ENDMDL
MODEL 6
REMARK VINA RESULT:      -9.0      2.889     11.352
REMARK  5 active torsions:
REMARK  status: ('A' for Active; 'I' for Inactive)
REMARK    1  A    between atoms: C_2  and  N_3 
REMARK    2  A    between atoms: C_7  and  N_8 
REMARK       I    between atoms: N_8  and  C_9 
REMARK    3  A    between atoms: C_9  and  C_10 
REMARK    4  A    between atoms: C_13  and  C_14 
REMARK    5  A    between atoms: C_14  and  C_15 
ROOT
HETATM    1  N   UNL     1     -42.322  56.607 -57.252  1.00  0.00    -0.323 N 
HETATM    2  C   UNL     1     -42.873  56.265 -56.030  1.00  0.00     0.256 C 
HETATM    3  O   UNL     1     -43.862  56.767 -55.509  1.00  0.00    -0.267 OA
HETATM    4  H   UNL     1     -41.638  55.976 -57.645  1.00  0.00     0.169 HD
ENDROOT
BRANCH   1   5
HETATM    5  C   UNL     1     -42.605  57.758 -58.021  1.00  0.00     0.035 A 
HETATM    6  C   UNL     1     -41.812  58.908 -58.010  1.00  0.00     0.044 A 
HETATM    7  C   UNL     1     -42.107  59.987 -58.874  1.00  0.00     0.005 A 
HETATM    8  C   UNL     1     -43.201  59.886 -59.735  1.00  0.00     0.046 A 
HETATM    9  C   UNL     1     -41.493  61.257 -59.102  1.00  0.00     0.003 A 
HETATM   10  N   UNL     1     -43.232  61.047 -60.484  1.00  0.00    -0.346 N 
HETATM   11  C   UNL     1     -44.029  58.753 -59.740  1.00  0.00     0.033 A 
HETATM   12  C   UNL     1     -42.213  61.903 -60.109  1.00  0.00     0.046 A 
HETATM   13  C   UNL     1     -41.859  63.183 -60.568  1.00  0.00     0.030 A 
HETATM   14  C   UNL     1     -40.750  63.809 -59.989  1.00  0.00     0.002 A 
HETATM   15  C   UNL     1     -40.018  63.183 -58.987  1.00  0.00     0.001 A 
HETATM   16  C   UNL     1     -40.378  61.911 -58.536  1.00  0.00     0.014 A 
HETATM   17  C   UNL     1     -43.710  57.698 -58.875  1.00  0.00     0.032 A 
BRANCH  10  18
HETATM   18  C   UNL     1     -44.183  61.318 -61.551  1.00  0.00     0.125 C 
HETATM   19  C   UNL     1     -43.625  60.978 -62.921  1.00  0.00     0.027 C 
ENDBRANCH  10  18
ENDBRANCH   1   5
BRANCH   2  20
HETATM   20  C   UNL     1     -42.175  55.166 -55.298  1.00  0.00     0.032 A 
HETATM   21  C   UNL     1     -42.825  54.383 -54.336  1.00  0.00     0.017 A 
HETATM   22  C   UNL     1     -42.160  53.308 -53.736  1.00  0.00     0.008 A 
HETATM   23  C   UNL     1     -40.849  52.982 -54.109  1.00  0.00    -0.057 A 
HETATM   24  C   UNL     1     -40.199  53.778 -55.062  1.00  0.00     0.008 A 
HETATM   25  C   UNL     1     -40.857  54.857 -55.656  1.00  0.00     0.017 A 
BRANCH  23  26
HETATM   26  C   UNL     1     -40.159  51.764 -53.536  1.00  0.00     0.053 C 
BRANCH  26  27
HETATM   27  C   UNL     1     -39.391  51.992 -52.224  1.00  0.00     0.091 C 
HETATM   28  C   UNL     1     -39.665  50.903 -51.217  1.00  0.00     0.229 C 
HETATM   29  O   UNL     1     -39.364  49.728 -51.343  1.00  0.00    -0.273 OA
HETATM   30  N   UNL     1     -40.339  51.437 -50.167  1.00  0.00    -0.297 N 
HETATM   31  C   UNL     1     -40.493  52.780 -50.257  1.00  0.00     0.225 C 
HETATM   32  H   UNL     1     -40.699  50.889 -49.402  1.00  0.00     0.171 HD
HETATM   33  O   UNL     1     -41.079  53.485 -49.453  1.00  0.00    -0.273 OA
HETATM   34  C   UNL     1     -39.759  53.271 -51.470  1.00  0.00     0.117 C 
ENDBRANCH  26  27
ENDBRANCH  23  26
ENDBRANCH   2  20
TORSDOF 5
ENDMDL
MODEL 7
REMARK VINA RESULT:      -8.8      7.107     11.565
REMARK  5 active torsions:
REMARK  status: ('A' for Active; 'I' for Inactive)
REMARK    1  A    between atoms: C_2  and  N_3 
REMARK    2  A    between atoms: C_7  and  N_8 
REMARK       I    between atoms: N_8  and  C_9 
REMARK    3  A    between atoms: C_9  and  C_10 
REMARK    4  A    between atoms: C_13  and  C_14 
REMARK    5  A    between atoms: C_14  and  C_15 
ROOT
HETATM    1  N   UNL     1     -44.017  58.832 -50.993  1.00  0.00    -0.323 N 
HETATM    2  C   UNL     1     -42.689  58.892 -51.374  1.00  0.00     0.256 C 
HETATM    3  O   UNL     1     -41.916  59.825 -51.185  1.00  0.00    -0.267 OA
HETATM    4  H   UNL     1     -44.470  57.930 -51.030  1.00  0.00     0.169 HD
ENDROOT
BRANCH   1   5
HETATM    5  C   UNL     1     -44.827  59.906 -50.559  1.00  0.00     0.035 A 
HETATM    6  C   UNL     1     -44.797  60.421 -49.261  1.00  0.00     0.044 A 
HETATM    7  C   UNL     1     -45.571  61.554 -48.924  1.00  0.00     0.005 A 
HETATM    8  C   UNL     1     -46.365  62.148 -49.906  1.00  0.00     0.046 A 
HETATM    9  C   UNL     1     -45.738  62.304 -47.719  1.00  0.00     0.003 A 
HETATM   10  N   UNL     1     -46.972  63.245 -49.323  1.00  0.00    -0.346 N 
HETATM   11  C   UNL     1     -46.434  61.629 -51.208  1.00  0.00     0.033 A 
HETATM   12  C   UNL     1     -46.619  63.353 -47.991  1.00  0.00     0.046 A 
HETATM   13  C   UNL     1     -46.991  64.281 -47.004  1.00  0.00     0.030 A 
HETATM   14  C   UNL     1     -46.452  64.135 -45.722  1.00  0.00     0.002 A 
HETATM   15  C   UNL     1     -45.572  63.099 -45.430  1.00  0.00     0.001 A 
HETATM   16  C   UNL     1     -45.208  62.180 -46.417  1.00  0.00     0.014 A 
HETATM   17  C   UNL     1     -45.653  60.507 -51.513  1.00  0.00     0.032 A 
BRANCH  10  18
HETATM   18  C   UNL     1     -47.835  64.183 -50.025  1.00  0.00     0.125 C 
HETATM   19  C   UNL     1     -49.308  63.883 -49.811  1.00  0.00     0.027 C 
ENDBRANCH  10  18
ENDBRANCH   1   5
BRANCH   2  20
HETATM   20  C   UNL     1     -42.170  57.681 -52.077  1.00  0.00     0.032 A 
HETATM   21  C   UNL     1     -41.488  57.764 -53.298  1.00  0.00     0.017 A 
HETATM   22  C   UNL     1     -40.944  56.615 -53.881  1.00  0.00     0.008 A 
HETATM   23  C   UNL     1     -41.047  55.373 -53.240  1.00  0.00    -0.057 A 
HETATM   24  C   UNL     1     -41.742  55.294 -52.026  1.00  0.00     0.008 A 
HETATM   25  C   UNL     1     -42.295  56.438 -51.446  1.00  0.00     0.017 A 
BRANCH  23  26
HETATM   26  C   UNL     1     -40.377  54.145 -53.816  1.00  0.00     0.053 C 
BRANCH  26  27
HETATM   27  C   UNL     1     -40.890  52.797 -53.282  1.00  0.00     0.091 C 
HETATM   28  C   UNL     1     -39.930  52.183 -52.294  1.00  0.00     0.229 C 
HETATM   29  O   UNL     1     -39.635  52.651 -51.207  1.00  0.00    -0.273 OA
HETATM   30  N   UNL     1     -39.416  51.048 -52.830  1.00  0.00    -0.297 N 
HETATM   31  C   UNL     1     -39.959  50.728 -54.030  1.00  0.00     0.225 C 
HETATM   32  H   UNL     1     -38.694  50.502 -52.387  1.00  0.00     0.171 HD
HETATM   33  O   UNL     1     -39.651  49.770 -54.718  1.00  0.00    -0.273 OA
HETATM   34  C   UNL     1     -41.057  51.703 -54.338  1.00  0.00     0.117 C 
ENDBRANCH  26  27
ENDBRANCH  23  26
ENDBRANCH   2  20
TORSDOF 5
ENDMDL
MODEL 8
REMARK VINA RESULT:      -8.7      2.304      2.796
REMARK  5 active torsions:
REMARK  status: ('A' for Active; 'I' for Inactive)
REMARK    1  A    between atoms: C_2  and  N_3 
REMARK    2  A    between atoms: C_7  and  N_8 
REMARK       I    between atoms: N_8  and  C_9 
REMARK    3  A    between atoms: C_9  and  C_10 
REMARK    4  A    between atoms: C_13  and  C_14 
REMARK    5  A    between atoms: C_14  and  C_15 
ROOT
HETATM    1  N   UNL     1     -42.153  57.308 -53.933  1.00  0.00    -0.323 N 
HETATM    2  C   UNL     1     -43.371  57.625 -54.507  1.00  0.00     0.256 C 
HETATM    3  O   UNL     1     -44.471  57.213 -54.159  1.00  0.00    -0.267 OA
HETATM    4  H   UNL     1     -41.357  57.876 -54.189  1.00  0.00     0.169 HD
ENDROOT
BRANCH   1   5
HETATM    5  C   UNL     1     -41.888  56.259 -53.024  1.00  0.00     0.035 A 
HETATM    6  C   UNL     1     -41.364  55.021 -53.404  1.00  0.00     0.044 A 
HETATM    7  C   UNL     1     -41.040  54.053 -52.427  1.00  0.00     0.005 A 
HETATM    8  C   UNL     1     -41.253  54.351 -51.081  1.00  0.00     0.046 A 
HETATM    9  C   UNL     1     -40.491  52.735 -52.497  1.00  0.00     0.003 A 
HETATM   10  N   UNL     1     -40.818  53.259 -50.353  1.00  0.00    -0.346 N 
HETATM   11  C   UNL     1     -41.808  55.576 -50.679  1.00  0.00     0.033 A 
HETATM   12  C   UNL     1     -40.363  52.258 -51.191  1.00  0.00     0.046 A 
HETATM   13  C   UNL     1     -39.848  50.980 -50.917  1.00  0.00     0.030 A 
HETATM   14  C   UNL     1     -39.455  50.180 -51.995  1.00  0.00     0.002 A 
HETATM   15  C   UNL     1     -39.571  50.636 -53.303  1.00  0.00     0.001 A 
HETATM   16  C   UNL     1     -40.087  51.908 -53.567  1.00  0.00     0.014 A 
HETATM   17  C   UNL     1     -42.114  56.518 -51.669  1.00  0.00     0.032 A 
BRANCH  10  18
HETATM   18  C   UNL     1     -40.802  53.187 -48.900  1.00  0.00     0.125 C 
HETATM   19  C   UNL     1     -39.769  54.116 -48.287  1.00  0.00     0.027 C 
ENDBRANCH  10  18
ENDBRANCH   1   5
BRANCH   2  20
HETATM   20  C   UNL     1     -43.307  58.574 -55.659  1.00  0.00     0.032 A 
HETATM   21  C   UNL     1     -42.097  59.117 -56.110  1.00  0.00     0.017 A 
HETATM   22  C   UNL     1     -42.071  59.934 -57.244  1.00  0.00     0.008 A 
HETATM   23  C   UNL     1     -43.246  60.198 -57.961  1.00  0.00    -0.057 A 
HETATM   24  C   UNL     1     -44.456  59.664 -57.497  1.00  0.00     0.008 A 
HETATM   25  C   UNL     1     -44.486  58.855 -56.359  1.00  0.00     0.017 A 
BRANCH  23  26
HETATM   26  C   UNL     1     -43.210  61.001 -59.242  1.00  0.00     0.053 C 
BRANCH  26  27
HETATM   27  C   UNL     1     -43.122  60.179 -60.538  1.00  0.00     0.091 C 
HETATM   28  C   UNL     1     -44.409  59.448 -60.828  1.00  0.00     0.229 C 
HETATM   29  O   UNL     1     -45.481  59.974 -61.079  1.00  0.00    -0.273 OA
HETATM   30  N   UNL     1     -44.190  58.114 -60.724  1.00  0.00    -0.297 N 
HETATM   31  C   UNL     1     -42.892  57.801 -60.491  1.00  0.00     0.225 C 
HETATM   32  H   UNL     1     -44.920  57.423 -60.800  1.00  0.00     0.171 HD
HETATM   33  O   UNL     1     -42.447  56.676 -60.337  1.00  0.00    -0.273 OA
HETATM   34  C   UNL     1     -42.077  59.061 -60.528  1.00  0.00     0.117 C 
ENDBRANCH  26  27
ENDBRANCH  23  26
ENDBRANCH   2  20
TORSDOF 5
ENDMDL
MODEL 9
REMARK VINA RESULT:      -8.7      2.636     11.306
REMARK  5 active torsions:
REMARK  status: ('A' for Active; 'I' for Inactive)
REMARK    1  A    between atoms: C_2  and  N_3 
REMARK    2  A    between atoms: C_7  and  N_8 
REMARK       I    between atoms: N_8  and  C_9 
REMARK    3  A    between atoms: C_9  and  C_10 
REMARK    4  A    between atoms: C_13  and  C_14 
REMARK    5  A    between atoms: C_14  and  C_15 
ROOT
HETATM    1  N   UNL     1     -42.754  57.742 -57.144  1.00  0.00    -0.323 N 
HETATM    2  C   UNL     1     -43.039  58.049 -55.826  1.00  0.00     0.256 C 
HETATM    3  O   UNL     1     -43.463  59.117 -55.400  1.00  0.00    -0.267 OA
HETATM    4  H   UNL     1     -42.611  56.768 -57.374  1.00  0.00     0.169 HD
ENDROOT
BRANCH   1   5
HETATM    5  C   UNL     1     -42.631  58.648 -58.221  1.00  0.00     0.035 A 
HETATM    6  C   UNL     1     -41.792  59.765 -58.199  1.00  0.00     0.044 A 
HETATM    7  C   UNL     1     -41.653  60.576 -59.348  1.00  0.00     0.005 A 
HETATM    8  C   UNL     1     -42.366  60.246 -60.501  1.00  0.00     0.046 A 
HETATM    9  C   UNL     1     -40.883  61.745 -59.635  1.00  0.00     0.003 A 
HETATM   10  N   UNL     1     -42.016  61.169 -61.469  1.00  0.00    -0.346 N 
HETATM   11  C   UNL     1     -43.238  59.147 -60.536  1.00  0.00     0.033 A 
HETATM   12  C   UNL     1     -41.127  62.099 -60.964  1.00  0.00     0.046 A 
HETATM   13  C   UNL     1     -40.513  63.215 -61.557  1.00  0.00     0.030 A 
HETATM   14  C   UNL     1     -39.636  63.978 -60.780  1.00  0.00     0.002 A 
HETATM   15  C   UNL     1     -39.377  63.643 -59.456  1.00  0.00     0.001 A 
HETATM   16  C   UNL     1     -39.993  62.532 -58.873  1.00  0.00     0.014 A 
HETATM   17  C   UNL     1     -43.353  58.359 -59.383  1.00  0.00     0.032 A 
BRANCH  10  18
HETATM   18  C   UNL     1     -42.487  61.143 -62.845  1.00  0.00     0.125 C 
HETATM   19  C   UNL     1     -43.769  61.934 -63.032  1.00  0.00     0.027 C 
ENDBRANCH  10  18
ENDBRANCH   1   5
BRANCH   2  20
HETATM   20  C   UNL     1     -42.805  56.944 -54.847  1.00  0.00     0.032 A 
HETATM   21  C   UNL     1     -43.637  55.820 -54.782  1.00  0.00     0.017 A 
HETATM   22  C   UNL     1     -43.334  54.769 -53.911  1.00  0.00     0.008 A 
HETATM   23  C   UNL     1     -42.182  54.813 -53.113  1.00  0.00    -0.057 A 
HETATM   24  C   UNL     1     -41.361  55.947 -53.173  1.00  0.00     0.008 A 
HETATM   25  C   UNL     1     -41.667  57.002 -54.035  1.00  0.00     0.017 A 
BRANCH  23  26
HETATM   26  C   UNL     1     -41.797  53.638 -52.241  1.00  0.00     0.053 C 
BRANCH  26  27
HETATM   27  C   UNL     1     -40.322  53.210 -52.318  1.00  0.00     0.091 C 
HETATM   28  C   UNL     1     -40.074  52.255 -53.459  1.00  0.00     0.229 C 
HETATM   29  O   UNL     1     -40.195  52.520 -54.644  1.00  0.00    -0.273 OA
HETATM   30  N   UNL     1     -39.735  51.044 -52.952  1.00  0.00    -0.297 N 
HETATM   31  C   UNL     1     -39.617  51.042 -51.602  1.00  0.00     0.225 C 
HETATM   32  H   UNL     1     -39.594  50.224 -53.520  1.00  0.00     0.171 HD
HETATM   33  O   UNL     1     -39.344  50.075 -50.912  1.00  0.00    -0.273 OA
HETATM   34  C   UNL     1     -39.805  52.444 -51.099  1.00  0.00     0.117 C 
ENDBRANCH  26  27
ENDBRANCH  23  26
ENDBRANCH   2  20
TORSDOF 5
ENDMDL
MODEL 10
REMARK VINA RESULT:      -8.4      4.353     11.657
REMARK  5 active torsions:
REMARK  status: ('A' for Active; 'I' for Inactive)
REMARK    1  A    between atoms: C_2  and  N_3 
REMARK    2  A    between atoms: C_7  and  N_8 
REMARK       I    between atoms: N_8  and  C_9 
REMARK    3  A    between atoms: C_9  and  C_10 
REMARK    4  A    between atoms: C_13  and  C_14 
REMARK    5  A    between atoms: C_14  and  C_15 
ROOT
HETATM    1  N   UNL     1     -44.672  57.508 -56.840  1.00  0.00    -0.323 N 
HETATM    2  C   UNL     1     -43.473  56.820 -56.843  1.00  0.00     0.256 C 
HETATM    3  O   UNL     1     -42.606  56.868 -57.708  1.00  0.00    -0.267 OA
HETATM    4  H   UNL     1     -45.192  57.532 -55.974  1.00  0.00     0.169 HD
ENDROOT
BRANCH   1   5
HETATM    5  C   UNL     1     -45.268  58.185 -57.928  1.00  0.00     0.035 A 
HETATM    6  C   UNL     1     -46.001  57.543 -58.929  1.00  0.00     0.044 A 
HETATM    7  C   UNL     1     -46.644  58.297 -59.937  1.00  0.00     0.005 A 
HETATM    8  C   UNL     1     -46.534  59.688 -59.918  1.00  0.00     0.046 A 
HETATM    9  C   UNL     1     -47.457  57.942 -61.058  1.00  0.00     0.003 A 
HETATM   10  N   UNL     1     -47.283  60.165 -60.977  1.00  0.00    -0.346 N 
HETATM   11  C   UNL     1     -45.777  60.351 -58.940  1.00  0.00     0.033 A 
HETATM   12  C   UNL     1     -47.842  59.124 -61.694  1.00  0.00     0.046 A 
HETATM   13  C   UNL     1     -48.654  59.117 -62.841  1.00  0.00     0.030 A 
HETATM   14  C   UNL     1     -49.080  57.882 -63.341  1.00  0.00     0.002 A 
HETATM   15  C   UNL     1     -48.711  56.694 -62.722  1.00  0.00     0.001 A 
HETATM   16  C   UNL     1     -47.901  56.710 -61.583  1.00  0.00     0.014 A 
HETATM   17  C   UNL     1     -45.155  59.578 -57.951  1.00  0.00     0.032 A 
BRANCH  10  18
HETATM   18  C   UNL     1     -47.489  61.575 -61.276  1.00  0.00     0.125 C 
HETATM   19  C   UNL     1     -46.482  62.105 -62.281  1.00  0.00     0.027 C 
ENDBRANCH  10  18
ENDBRANCH   1   5
BRANCH   2  20
HETATM   20  C   UNL     1     -43.234  55.945 -55.656  1.00  0.00     0.032 A 
HETATM   21  C   UNL     1     -42.602  54.700 -55.765  1.00  0.00     0.017 A 
HETATM   22  C   UNL     1     -42.321  53.950 -54.618  1.00  0.00     0.008 A 
HETATM   23  C   UNL     1     -42.640  54.444 -53.347  1.00  0.00    -0.057 A 
HETATM   24  C   UNL     1     -43.285  55.685 -53.245  1.00  0.00     0.008 A 
HETATM   25  C   UNL     1     -43.575  56.431 -54.389  1.00  0.00     0.017 A 
BRANCH  23  26
HETATM   26  C   UNL     1     -42.252  53.684 -52.098  1.00  0.00     0.053 C 
BRANCH  26  27
HETATM   27  C   UNL     1     -40.943  54.131 -51.428  1.00  0.00     0.091 C 
HETATM   28  C   UNL     1     -40.236  52.982 -50.753  1.00  0.00     0.229 C 
HETATM   29  O   UNL     1     -39.767  52.009 -51.319  1.00  0.00    -0.273 OA
HETATM   30  N   UNL     1     -40.244  53.188 -49.413  1.00  0.00    -0.297 N 
HETATM   31  C   UNL     1     -40.781  54.381 -49.057  1.00  0.00     0.225 C 
HETATM   32  H   UNL     1     -39.896  52.518 -48.746  1.00  0.00     0.171 HD
HETATM   33  O   UNL     1     -40.920  54.787 -47.916  1.00  0.00    -0.273 OA
HETATM   34  C   UNL     1     -41.108  55.153 -50.301  1.00  0.00     0.117 C 
ENDBRANCH  26  27
ENDBRANCH  23  26
ENDBRANCH   2  20
TORSDOF 5
ENDMDL
