MODEL 1
REMARK VINA RESULT:      -8.8      0.000      0.000
REMARK  4 active torsions:
REMARK  status: ('A' for Active; 'I' for Inactive)
REMARK       I    between atoms: C_2  and  N_3 
REMARK    1  A    between atoms: N_7  and  N_8 
REMARK       I    between atoms: N_8  and  C_9 
REMARK    2  A    between atoms: C_9  and  C_10 
REMARK    3  A    between atoms: C_18  and  C_19 
REMARK    4  A    between atoms: C_20  and  O_21 
ROOT
HETATM    1  C   UNL     1     -42.500  54.998 -54.324  1.00  0.00     0.048 A 
HETATM    2  C   UNL     1     -41.643  54.187 -53.546  1.00  0.00     0.009 A 
HETATM    3  C   UNL     1     -41.341  54.673 -52.259  1.00  0.00     0.068 A 
HETATM    4  C   UNL     1     -40.471  53.951 -51.454  1.00  0.00     0.032 A 
HETATM    5  C   UNL     1     -39.908  52.741 -51.868  1.00  0.00     0.002 A 
HETATM    6  C   UNL     1     -40.234  52.225 -53.112  1.00  0.00     0.001 A 
HETATM    7  C   UNL     1     -41.101  52.933 -53.942  1.00  0.00     0.015 A 
HETATM    8  N   UNL     1     -41.868  55.800 -51.757  1.00  0.00    -0.247 NA
HETATM    9  C   UNL     1     -42.727  56.536 -52.502  1.00  0.00     0.071 A 
HETATM   10  C   UNL     1     -43.053  56.167 -53.796  1.00  0.00     0.050 A 
ENDROOT
BRANCH   1  11
HETATM   11  C   UNL     1     -42.906  54.674 -55.714  1.00  0.00     0.272 C 
HETATM   12  N   UNL     1     -42.473  55.564 -56.688  1.00  0.00    -0.243 N 
HETATM   13  H   UNL     1     -41.993  56.413 -56.420  1.00  0.00     0.192 HD
HETATM   14  O   UNL     1     -43.609  53.687 -55.904  1.00  0.00    -0.266 OA
BRANCH  12  15
HETATM   15  N   UNL     1     -42.859  55.374 -57.975  1.00  0.00    -0.181 NA
HETATM   16  C   UNL     1     -43.651  56.222 -58.557  1.00  0.00     0.035 C 
HETATM   17  C   UNL     1     -44.036  55.937 -59.993  1.00  0.00     0.076 C 
HETATM   18  C   UNL     1     -44.140  57.538 -57.994  1.00  0.00     0.076 C 
HETATM   19  C   UNL     1     -45.537  56.102 -60.152  1.00  0.00     0.131 C 
HETATM   20  N   UNL     1     -45.993  57.395 -59.634  1.00  0.00    -0.352 N 
HETATM   21  C   UNL     1     -46.984  58.069 -60.339  1.00  0.00     0.215 C 
HETATM   22  C   UNL     1     -45.637  57.675 -58.242  1.00  0.00     0.131 C 
HETATM   23  C   UNL     1     -47.504  59.353 -59.745  1.00  0.00     0.117 C 
HETATM   24  O   UNL     1     -47.423  57.671 -61.418  1.00  0.00    -0.274 OA
ENDBRANCH  12  15
ENDBRANCH   1  11
BRANCH   9  25
HETATM   25  C   UNL     1     -43.342  57.706 -51.845  1.00  0.00     0.026 A 
HETATM   26  C   UNL     1     -42.636  58.893 -51.569  1.00  0.00     0.080 A 
HETATM   27  C   UNL     1     -43.263  59.990 -50.963  1.00  0.00     0.037 A 
HETATM   28  C   UNL     1     -44.600  59.912 -50.585  1.00  0.00     0.003 A 
HETATM   29  C   UNL     1     -45.317  58.744 -50.824  1.00  0.00     0.001 A 
HETATM   30  C   UNL     1     -44.695  57.658 -51.447  1.00  0.00     0.016 A 
BRANCH  26  31
HETATM   31  O   UNL     1     -41.331  59.032 -51.976  1.00  0.00    -0.355 OA
HETATM   32  C   UNL     1     -40.465  59.120 -50.844  1.00  0.00     0.210 C 
ENDBRANCH  26  31
ENDBRANCH   9  25
TORSDOF 4
ENDMDL
MODEL 2
REMARK VINA RESULT:      -8.7      2.005      4.969
REMARK  4 active torsions:
REMARK  status: ('A' for Active; 'I' for Inactive)
REMARK       I    between atoms: C_2  and  N_3 
REMARK    1  A    between atoms: N_7  and  N_8 
REMARK       I    between atoms: N_8  and  C_9 
REMARK    2  A    between atoms: C_9  and  C_10 
REMARK    3  A    between atoms: C_18  and  C_19 
REMARK    4  A    between atoms: C_20  and  O_21 
ROOT
HETATM    1  C   UNL     1     -42.668  55.674 -54.737  1.00  0.00     0.048 A 
HETATM    2  C   UNL     1     -43.253  56.174 -53.552  1.00  0.00     0.009 A 
HETATM    3  C   UNL     1     -43.100  55.368 -52.406  1.00  0.00     0.068 A 
HETATM    4  C   UNL     1     -43.684  55.775 -51.215  1.00  0.00     0.032 A 
HETATM    5  C   UNL     1     -44.395  56.972 -51.108  1.00  0.00     0.002 A 
HETATM    6  C   UNL     1     -44.512  57.801 -52.214  1.00  0.00     0.001 A 
HETATM    7  C   UNL     1     -43.938  57.413 -53.423  1.00  0.00     0.015 A 
HETATM    8  N   UNL     1     -42.397  54.225 -52.400  1.00  0.00    -0.247 NA
HETATM    9  C   UNL     1     -41.803  53.790 -53.537  1.00  0.00     0.071 A 
HETATM   10  C   UNL     1     -41.931  54.487 -54.726  1.00  0.00     0.050 A 
ENDROOT
BRANCH   1  11
HETATM   11  C   UNL     1     -42.749  56.360 -56.051  1.00  0.00     0.272 C 
HETATM   12  N   UNL     1     -43.722  55.879 -56.917  1.00  0.00    -0.243 N 
HETATM   13  H   UNL     1     -44.258  55.057 -56.672  1.00  0.00     0.192 HD
HETATM   14  O   UNL     1     -41.950  57.258 -56.293  1.00  0.00    -0.266 OA
BRANCH  12  15
HETATM   15  N   UNL     1     -43.815  56.409 -58.164  1.00  0.00    -0.181 NA
HETATM   16  C   UNL     1     -44.629  57.391 -58.402  1.00  0.00     0.035 C 
HETATM   17  C   UNL     1     -44.674  57.924 -59.819  1.00  0.00     0.076 C 
HETATM   18  C   UNL     1     -45.458  58.148 -57.389  1.00  0.00     0.076 C 
HETATM   19  C   UNL     1     -46.122  58.064 -60.256  1.00  0.00     0.131 C 
HETATM   20  N   UNL     1     -46.906  58.829 -59.282  1.00  0.00    -0.352 N 
HETATM   21  C   UNL     1     -47.856  59.723 -59.764  1.00  0.00     0.215 C 
HETATM   22  C   UNL     1     -46.879  58.314 -57.911  1.00  0.00     0.131 C 
HETATM   23  C   UNL     1     -48.714  60.434 -58.749  1.00  0.00     0.117 C 
HETATM   24  O   UNL     1     -47.999  59.962 -60.963  1.00  0.00    -0.274 OA
ENDBRANCH  12  15
ENDBRANCH   1  11
BRANCH   9  25
HETATM   25  C   UNL     1     -40.965  52.579 -53.427  1.00  0.00     0.026 A 
HETATM   26  C   UNL     1     -40.065  52.361 -52.366  1.00  0.00     0.080 A 
HETATM   27  C   UNL     1     -39.303  51.188 -52.287  1.00  0.00     0.037 A 
HETATM   28  C   UNL     1     -39.396  50.222 -53.285  1.00  0.00     0.003 A 
HETATM   29  C   UNL     1     -40.260  50.421 -54.357  1.00  0.00     0.001 A 
HETATM   30  C   UNL     1     -41.034  51.583 -54.424  1.00  0.00     0.016 A 
BRANCH  26  31
HETATM   31  O   UNL     1     -39.983  53.261 -51.331  1.00  0.00    -0.355 OA
HETATM   32  C   UNL     1     -40.396  52.651 -50.108  1.00  0.00     0.210 C 
ENDBRANCH  26  31
ENDBRANCH   9  25
TORSDOF 4
ENDMDL
MODEL 3
REMARK VINA RESULT:      -8.4      2.540      5.059
REMARK  4 active torsions:
REMARK  status: ('A' for Active; 'I' for Inactive)
REMARK       I    between atoms: C_2  and  N_3 
REMARK    1  A    between atoms: N_7  and  N_8 
REMARK       I    between atoms: N_8  and  C_9 
REMARK    2  A    between atoms: C_9  and  C_10 
REMARK    3  A    between atoms: C_18  and  C_19 
REMARK    4  A    between atoms: C_20  and  O_21 
ROOT
HETATM    1  C   UNL     1     -42.390  56.363 -54.636  1.00  0.00     0.048 A 
HETATM    2  C   UNL     1     -42.012  57.466 -53.837  1.00  0.00     0.009 A 
HETATM    3  C   UNL     1     -41.255  57.160 -52.689  1.00  0.00     0.068 A 
HETATM    4  C   UNL     1     -40.885  58.188 -51.834  1.00  0.00     0.032 A 
HETATM    5  C   UNL     1     -41.213  59.521 -52.090  1.00  0.00     0.002 A 
HETATM    6  C   UNL     1     -41.914  59.844 -53.242  1.00  0.00     0.001 A 
HETATM    7  C   UNL     1     -42.302  58.830 -54.114  1.00  0.00     0.015 A 
HETATM    8  N   UNL     1     -40.854  55.917 -52.383  1.00  0.00    -0.247 NA
HETATM    9  C   UNL     1     -41.186  54.880 -53.190  1.00  0.00     0.071 A 
HETATM   10  C   UNL     1     -41.965  55.070 -54.318  1.00  0.00     0.050 A 
ENDROOT
BRANCH   1  11
HETATM   11  C   UNL     1     -43.215  56.477 -55.864  1.00  0.00     0.272 C 
HETATM   12  N   UNL     1     -42.624  56.006 -57.028  1.00  0.00    -0.243 N 
HETATM   13  H   UNL     1     -41.661  55.697 -57.018  1.00  0.00     0.192 HD
HETATM   14  O   UNL     1     -44.322  56.999 -55.779  1.00  0.00    -0.266 OA
BRANCH  12  15
HETATM   15  N   UNL     1     -43.288  56.137 -58.205  1.00  0.00    -0.181 NA
HETATM   16  C   UNL     1     -42.953  57.063 -59.050  1.00  0.00     0.035 C 
HETATM   17  C   UNL     1     -43.744  57.143 -60.339  1.00  0.00     0.076 C 
HETATM   18  C   UNL     1     -41.773  58.003 -58.944  1.00  0.00     0.076 C 
HETATM   19  C   UNL     1     -44.140  58.587 -60.595  1.00  0.00     0.131 C 
HETATM   20  N   UNL     1     -42.982  59.483 -60.523  1.00  0.00    -0.352 N 
HETATM   21  C   UNL     1     -42.905  60.526 -61.439  1.00  0.00     0.215 C 
HETATM   22  C   UNL     1     -42.217  59.422 -59.276  1.00  0.00     0.131 C 
HETATM   23  C   UNL     1     -41.754  61.490 -61.293  1.00  0.00     0.117 C 
HETATM   24  O   UNL     1     -43.714  60.672 -62.355  1.00  0.00    -0.274 OA
ENDBRANCH  12  15
ENDBRANCH   1  11
BRANCH   9  25
HETATM   25  C   UNL     1     -40.624  53.561 -52.841  1.00  0.00     0.026 A 
HETATM   26  C   UNL     1     -40.450  53.124 -51.514  1.00  0.00     0.080 A 
HETATM   27  C   UNL     1     -39.933  51.855 -51.225  1.00  0.00     0.037 A 
HETATM   28  C   UNL     1     -39.542  51.006 -52.256  1.00  0.00     0.003 A 
HETATM   29  C   UNL     1     -39.680  51.419 -53.577  1.00  0.00     0.001 A 
HETATM   30  C   UNL     1     -40.215  52.678 -53.864  1.00  0.00     0.016 A 
BRANCH  26  31
HETATM   31  O   UNL     1     -40.875  53.908 -50.467  1.00  0.00    -0.355 OA
HETATM   32  C   UNL     1     -39.850  54.012 -49.478  1.00  0.00     0.210 C 
ENDBRANCH  26  31
ENDBRANCH   9  25
TORSDOF 4
ENDMDL
MODEL 4
REMARK VINA RESULT:      -8.4      1.939      2.520
REMARK  4 active torsions:
REMARK  status: ('A' for Active; 'I' for Inactive)
REMARK       I    between atoms: C_2  and  N_3 
REMARK    1  A    between atoms: N_7  and  N_8 
REMARK       I    between atoms: N_8  and  C_9 
REMARK    2  A    between atoms: C_9  and  C_10 
REMARK    3  A    between atoms: C_18  and  C_19 
REMARK    4  A    between atoms: C_20  and  O_21 
ROOT
HETATM    1  C   UNL     1     -41.968  54.973 -54.469  1.00  0.00     0.048 A 
HETATM    2  C   UNL     1     -41.304  53.904 -53.825  1.00  0.00     0.009 A 
HETATM    3  C   UNL     1     -40.728  54.205 -52.575  1.00  0.00     0.068 A 
HETATM    4  C   UNL     1     -40.023  53.216 -51.904  1.00  0.00     0.032 A 
HETATM    5  C   UNL     1     -39.890  51.923 -52.415  1.00  0.00     0.002 A 
HETATM    6  C   UNL     1     -40.493  51.597 -53.620  1.00  0.00     0.001 A 
HETATM    7  C   UNL     1     -41.203  52.574 -54.316  1.00  0.00     0.015 A 
HETATM    8  N   UNL     1     -40.841  55.404 -51.983  1.00  0.00    -0.247 NA
HETATM    9  C   UNL     1     -41.524  56.400 -52.596  1.00  0.00     0.071 A 
HETATM   10  C   UNL     1     -42.090  56.218 -53.847  1.00  0.00     0.050 A 
ENDROOT
BRANCH   1  11
HETATM   11  C   UNL     1     -42.607  54.863 -55.804  1.00  0.00     0.272 C 
HETATM   12  N   UNL     1     -42.263  55.852 -56.715  1.00  0.00    -0.243 N 
HETATM   13  H   UNL     1     -41.685  56.630 -56.425  1.00  0.00     0.192 HD
HETATM   14  O   UNL     1     -43.404  53.951 -55.998  1.00  0.00    -0.266 OA
BRANCH  12  15
HETATM   15  N   UNL     1     -42.858  55.860 -57.936  1.00  0.00    -0.181 NA
HETATM   16  C   UNL     1     -42.710  56.874 -58.733  1.00  0.00     0.035 C 
HETATM   17  C   UNL     1     -43.407  56.805 -60.076  1.00  0.00     0.076 C 
HETATM   18  C   UNL     1     -41.816  58.074 -58.518  1.00  0.00     0.076 C 
HETATM   19  C   UNL     1     -44.136  58.113 -60.330  1.00  0.00     0.131 C 
HETATM   20  N   UNL     1     -43.249  59.266 -60.151  1.00  0.00    -0.352 N 
HETATM   21  C   UNL     1     -43.375  60.331 -61.036  1.00  0.00     0.215 C 
HETATM   22  C   UNL     1     -42.580  59.349 -58.851  1.00  0.00     0.131 C 
HETATM   23  C   UNL     1     -42.517  61.546 -60.783  1.00  0.00     0.117 C 
HETATM   24  O   UNL     1     -44.131  60.306 -62.007  1.00  0.00    -0.274 OA
ENDBRANCH  12  15
ENDBRANCH   1  11
BRANCH   9  25
HETATM   25  C   UNL     1     -41.690  57.656 -51.839  1.00  0.00     0.026 A 
HETATM   26  C   UNL     1     -42.919  58.337 -51.737  1.00  0.00     0.080 A 
HETATM   27  C   UNL     1     -43.039  59.515 -50.990  1.00  0.00     0.037 A 
HETATM   28  C   UNL     1     -41.926  60.061 -50.356  1.00  0.00     0.003 A 
HETATM   29  C   UNL     1     -40.695  59.422 -50.458  1.00  0.00     0.001 A 
HETATM   30  C   UNL     1     -40.580  58.236 -51.188  1.00  0.00     0.016 A 
BRANCH  26  31
HETATM   31  O   UNL     1     -44.053  57.803 -52.300  1.00  0.00    -0.355 OA
HETATM   32  C   UNL     1     -45.076  57.658 -51.313  1.00  0.00     0.210 C 
ENDBRANCH  26  31
ENDBRANCH   9  25
TORSDOF 4
ENDMDL
MODEL 5
REMARK VINA RESULT:      -8.1      3.206      7.881
REMARK  4 active torsions:
REMARK  status: ('A' for Active; 'I' for Inactive)
REMARK       I    between atoms: C_2  and  N_3 
REMARK    1  A    between atoms: N_7  and  N_8 
REMARK       I    between atoms: N_8  and  C_9 
REMARK    2  A    between atoms: C_9  and  C_10 
REMARK    3  A    between atoms: C_18  and  C_19 
REMARK    4  A    between atoms: C_20  and  O_21 
ROOT
HETATM    1  C   UNL     1     -41.611  57.419 -54.397  1.00  0.00     0.048 A 
HETATM    2  C   UNL     1     -42.307  57.192 -55.606  1.00  0.00     0.009 A 
HETATM    3  C   UNL     1     -42.310  55.862 -56.071  1.00  0.00     0.068 A 
HETATM    4  C   UNL     1     -42.938  55.572 -57.274  1.00  0.00     0.032 A 
HETATM    5  C   UNL     1     -43.593  56.551 -58.025  1.00  0.00     0.002 A 
HETATM    6  C   UNL     1     -43.643  57.854 -57.556  1.00  0.00     0.001 A 
HETATM    7  C   UNL     1     -43.016  58.173 -56.353  1.00  0.00     0.015 A 
HETATM    8  N   UNL     1     -41.747  54.847 -55.398  1.00  0.00    -0.247 NA
HETATM    9  C   UNL     1     -41.127  55.080 -54.216  1.00  0.00     0.071 A 
HETATM   10  C   UNL     1     -41.032  56.359 -53.695  1.00  0.00     0.050 A 
ENDROOT
BRANCH   1  11
HETATM   11  C   UNL     1     -41.467  58.754 -53.766  1.00  0.00     0.272 C 
HETATM   12  N   UNL     1     -42.656  59.394 -53.441  1.00  0.00    -0.243 N 
HETATM   13  H   UNL     1     -43.541  58.988 -53.714  1.00  0.00     0.192 HD
HETATM   14  O   UNL     1     -40.339  59.209 -53.609  1.00  0.00    -0.266 OA
BRANCH  12  15
HETATM   15  N   UNL     1     -42.610  60.647 -52.922  1.00  0.00    -0.181 NA
HETATM   16  C   UNL     1     -43.049  60.880 -51.723  1.00  0.00     0.035 C 
HETATM   17  C   UNL     1     -42.964  62.305 -51.219  1.00  0.00     0.076 C 
HETATM   18  C   UNL     1     -43.531  59.857 -50.720  1.00  0.00     0.076 C 
HETATM   19  C   UNL     1     -44.293  62.698 -50.598  1.00  0.00     0.131 C 
HETATM   20  N   UNL     1     -44.732  61.715 -49.603  1.00  0.00    -0.352 N 
HETATM   21  C   UNL     1     -45.337  62.185 -48.442  1.00  0.00     0.215 C 
HETATM   22  C   UNL     1     -44.830  60.335 -50.083  1.00  0.00     0.131 C 
HETATM   23  C   UNL     1     -45.863  61.157 -47.472  1.00  0.00     0.117 C 
HETATM   24  O   UNL     1     -45.436  63.383 -48.179  1.00  0.00    -0.274 OA
ENDBRANCH  12  15
ENDBRANCH   1  11
BRANCH   9  25
HETATM   25  C   UNL     1     -40.622  53.900 -53.488  1.00  0.00     0.026 A 
HETATM   26  C   UNL     1     -40.573  53.826 -52.082  1.00  0.00     0.080 A 
HETATM   27  C   UNL     1     -40.106  52.678 -51.428  1.00  0.00     0.037 A 
HETATM   28  C   UNL     1     -39.643  51.591 -52.164  1.00  0.00     0.003 A 
HETATM   29  C   UNL     1     -39.658  51.645 -53.554  1.00  0.00     0.001 A 
HETATM   30  C   UNL     1     -40.142  52.783 -54.205  1.00  0.00     0.016 A 
BRANCH  26  31
HETATM   31  O   UNL     1     -41.073  54.853 -51.318  1.00  0.00    -0.355 OA
HETATM   32  C   UNL     1     -41.454  54.372 -50.029  1.00  0.00     0.210 C 
ENDBRANCH  26  31
ENDBRANCH   9  25
TORSDOF 4
ENDMDL
MODEL 6
REMARK VINA RESULT:      -8.1      4.454      7.827
REMARK  4 active torsions:
REMARK  status: ('A' for Active; 'I' for Inactive)
REMARK       I    between atoms: C_2  and  N_3 
REMARK    1  A    between atoms: N_7  and  N_8 
REMARK       I    between atoms: N_8  and  C_9 
REMARK    2  A    between atoms: C_9  and  C_10 
REMARK    3  A    between atoms: C_18  and  C_19 
REMARK    4  A    between atoms: C_20  and  O_21 
ROOT
HETATM    1  C   UNL     1     -42.667  59.247 -51.158  1.00  0.00     0.048 A 
HETATM    2  C   UNL     1     -43.435  59.200 -52.343  1.00  0.00     0.009 A 
HETATM    3  C   UNL     1     -44.395  60.221 -52.493  1.00  0.00     0.068 A 
HETATM    4  C   UNL     1     -45.214  60.215 -53.612  1.00  0.00     0.032 A 
HETATM    5  C   UNL     1     -45.099  59.245 -54.611  1.00  0.00     0.002 A 
HETATM    6  C   UNL     1     -44.126  58.264 -54.504  1.00  0.00     0.001 A 
HETATM    7  C   UNL     1     -43.294  58.245 -53.387  1.00  0.00     0.015 A 
HETATM    8  N   UNL     1     -44.548  61.220 -51.610  1.00  0.00    -0.247 NA
HETATM    9  C   UNL     1     -43.768  61.272 -50.504  1.00  0.00     0.071 A 
HETATM   10  C   UNL     1     -42.825  60.292 -50.244  1.00  0.00     0.050 A 
ENDROOT
BRANCH   1  11
HETATM   11  C   UNL     1     -41.632  58.244 -50.804  1.00  0.00     0.272 C 
HETATM   12  N   UNL     1     -42.111  57.043 -50.298  1.00  0.00    -0.243 N 
HETATM   13  H   UNL     1     -43.099  56.930 -50.110  1.00  0.00     0.192 HD
HETATM   14  O   UNL     1     -40.452  58.546 -50.945  1.00  0.00    -0.266 OA
BRANCH  12  15
HETATM   15  N   UNL     1     -41.225  56.100 -49.887  1.00  0.00    -0.181 NA
HETATM   16  C   UNL     1     -40.778  55.211 -50.720  1.00  0.00     0.035 C 
HETATM   17  C   UNL     1     -39.794  54.193 -50.183  1.00  0.00     0.076 C 
HETATM   18  C   UNL     1     -41.041  55.148 -52.208  1.00  0.00     0.076 C 
HETATM   19  C   UNL     1     -40.215  52.804 -50.630  1.00  0.00     0.131 C 
HETATM   20  N   UNL     1     -40.433  52.749 -52.079  1.00  0.00    -0.352 N 
HETATM   21  C   UNL     1     -40.016  51.611 -52.760  1.00  0.00     0.215 C 
HETATM   22  C   UNL     1     -41.393  53.721 -52.607  1.00  0.00     0.131 C 
HETATM   23  C   UNL     1     -40.329  51.534 -54.233  1.00  0.00     0.117 C 
HETATM   24  O   UNL     1     -39.396  50.697 -52.217  1.00  0.00    -0.274 OA
ENDBRANCH  12  15
ENDBRANCH   1  11
BRANCH   9  25
HETATM   25  C   UNL     1     -43.928  62.454 -49.634  1.00  0.00     0.026 A 
HETATM   26  C   UNL     1     -43.271  63.677 -49.869  1.00  0.00     0.080 A 
HETATM   27  C   UNL     1     -43.466  64.782 -49.031  1.00  0.00     0.037 A 
HETATM   28  C   UNL     1     -44.295  64.680 -47.917  1.00  0.00     0.003 A 
HETATM   29  C   UNL     1     -44.939  63.477 -47.647  1.00  0.00     0.001 A 
HETATM   30  C   UNL     1     -44.759  62.381 -48.495  1.00  0.00     0.016 A 
BRANCH  26  31
HETATM   31  O   UNL     1     -42.489  63.838 -50.987  1.00  0.00    -0.355 OA
HETATM   32  C   UNL     1     -43.147  64.678 -51.936  1.00  0.00     0.210 C 
ENDBRANCH  26  31
ENDBRANCH   9  25
TORSDOF 4
ENDMDL
MODEL 7
REMARK VINA RESULT:      -8.1      2.039      5.029
REMARK  4 active torsions:
REMARK  status: ('A' for Active; 'I' for Inactive)
REMARK       I    between atoms: C_2  and  N_3 
REMARK    1  A    between atoms: N_7  and  N_8 
REMARK       I    between atoms: N_8  and  C_9 
REMARK    2  A    between atoms: C_9  and  C_10 
REMARK    3  A    between atoms: C_18  and  C_19 
REMARK    4  A    between atoms: C_20  and  O_21 
ROOT
HETATM    1  C   UNL     1     -42.079  54.741 -54.322  1.00  0.00     0.048 A 
HETATM    2  C   UNL     1     -41.873  55.949 -53.617  1.00  0.00     0.009 A 
HETATM    3  C   UNL     1     -41.307  55.821 -52.334  1.00  0.00     0.068 A 
HETATM    4  C   UNL     1     -41.115  56.961 -51.566  1.00  0.00     0.032 A 
HETATM    5  C   UNL     1     -41.438  58.235 -52.037  1.00  0.00     0.002 A 
HETATM    6  C   UNL     1     -41.949  58.383 -53.317  1.00  0.00     0.001 A 
HETATM    7  C   UNL     1     -42.156  57.254 -54.106  1.00  0.00     0.015 A 
HETATM    8  N   UNL     1     -40.922  54.645 -51.814  1.00  0.00    -0.247 NA
HETATM    9  C   UNL     1     -41.084  53.504 -52.527  1.00  0.00     0.071 A 
HETATM   10  C   UNL     1     -41.671  53.519 -53.781  1.00  0.00     0.050 A 
ENDROOT
BRANCH   1  11
HETATM   11  C   UNL     1     -42.693  54.667 -55.670  1.00  0.00     0.272 C 
HETATM   12  N   UNL     1     -42.193  55.562 -56.606  1.00  0.00    -0.243 N 
HETATM   13  H   UNL     1     -41.520  56.264 -56.327  1.00  0.00     0.192 HD
HETATM   14  O   UNL     1     -43.603  53.865 -55.856  1.00  0.00    -0.266 OA
BRANCH  12  15
HETATM   15  N   UNL     1     -42.750  55.603 -57.844  1.00  0.00    -0.181 NA
HETATM   16  C   UNL     1     -43.543  56.574 -58.177  1.00  0.00     0.035 C 
HETATM   17  C   UNL     1     -44.123  56.545 -59.575  1.00  0.00     0.076 C 
HETATM   18  C   UNL     1     -43.862  57.805 -57.360  1.00  0.00     0.076 C 
HETATM   19  C   UNL     1     -45.617  56.811 -59.504  1.00  0.00     0.131 C 
HETATM   20  N   UNL     1     -45.910  58.025 -58.738  1.00  0.00    -0.352 N 
HETATM   21  C   UNL     1     -46.929  58.855 -59.193  1.00  0.00     0.215 C 
HETATM   22  C   UNL     1     -45.364  58.058 -57.380  1.00  0.00     0.131 C 
HETATM   23  C   UNL     1     -47.277  60.052 -58.344  1.00  0.00     0.117 C 
HETATM   24  O   UNL     1     -47.526  58.660 -60.251  1.00  0.00    -0.274 OA
ENDBRANCH  12  15
ENDBRANCH   1  11
BRANCH   9  25
HETATM   25  C   UNL     1     -40.545  52.266 -51.931  1.00  0.00     0.026 A 
HETATM   26  C   UNL     1     -39.926  51.253 -52.689  1.00  0.00     0.080 A 
HETATM   27  C   UNL     1     -39.408  50.102 -52.082  1.00  0.00     0.037 A 
HETATM   28  C   UNL     1     -39.529  49.919 -50.707  1.00  0.00     0.003 A 
HETATM   29  C   UNL     1     -40.156  50.892 -49.936  1.00  0.00     0.001 A 
HETATM   30  C   UNL     1     -40.655  52.050 -50.541  1.00  0.00     0.016 A 
BRANCH  26  31
HETATM   31  O   UNL     1     -39.735  51.419 -54.040  1.00  0.00    -0.355 OA
HETATM   32  C   UNL     1     -39.823  50.161 -54.711  1.00  0.00     0.210 C 
ENDBRANCH  26  31
ENDBRANCH   9  25
TORSDOF 4
ENDMDL
MODEL 8
REMARK VINA RESULT:      -8.0      2.737      5.600
REMARK  4 active torsions:
REMARK  status: ('A' for Active; 'I' for Inactive)
REMARK       I    between atoms: C_2  and  N_3 
REMARK    1  A    between atoms: N_7  and  N_8 
REMARK       I    between atoms: N_8  and  C_9 
REMARK    2  A    between atoms: C_9  and  C_10 
REMARK    3  A    between atoms: C_18  and  C_19 
REMARK    4  A    between atoms: C_20  and  O_21 
ROOT
HETATM    1  C   UNL     1     -42.070  57.970 -53.173  1.00  0.00     0.048 A 
HETATM    2  C   UNL     1     -43.253  58.178 -52.427  1.00  0.00     0.009 A 
HETATM    3  C   UNL     1     -43.708  57.073 -51.681  1.00  0.00     0.068 A 
HETATM    4  C   UNL     1     -44.887  57.190 -50.958  1.00  0.00     0.032 A 
HETATM    5  C   UNL     1     -45.621  58.377 -50.923  1.00  0.00     0.002 A 
HETATM    6  C   UNL     1     -45.160  59.489 -51.611  1.00  0.00     0.001 A 
HETATM    7  C   UNL     1     -43.982  59.396 -52.348  1.00  0.00     0.015 A 
HETATM    8  N   UNL     1     -43.048  55.907 -51.616  1.00  0.00    -0.247 NA
HETATM    9  C   UNL     1     -41.889  55.746 -52.301  1.00  0.00     0.071 A 
HETATM   10  C   UNL     1     -41.381  56.757 -53.098  1.00  0.00     0.050 A 
ENDROOT
BRANCH   1  11
HETATM   11  C   UNL     1     -41.453  59.000 -54.045  1.00  0.00     0.272 C 
HETATM   12  N   UNL     1     -42.073  59.194 -55.272  1.00  0.00    -0.243 N 
HETATM   13  H   UNL     1     -42.835  58.593 -55.556  1.00  0.00     0.192 HD
HETATM   14  O   UNL     1     -40.442  59.572 -53.651  1.00  0.00    -0.266 OA
BRANCH  12  15
HETATM   15  N   UNL     1     -41.529  60.071 -56.155  1.00  0.00    -0.181 NA
HETATM   16  C   UNL     1     -42.187  60.433 -57.213  1.00  0.00     0.035 C 
HETATM   17  C   UNL     1     -41.509  61.412 -58.148  1.00  0.00     0.076 C 
HETATM   18  C   UNL     1     -43.615  60.074 -57.560  1.00  0.00     0.076 C 
HETATM   19  C   UNL     1     -41.642  60.915 -59.577  1.00  0.00     0.131 C 
HETATM   20  N   UNL     1     -43.035  60.605 -59.910  1.00  0.00    -0.352 N 
HETATM   21  C   UNL     1     -43.493  60.937 -61.180  1.00  0.00     0.215 C 
HETATM   22  C   UNL     1     -43.696  59.648 -59.020  1.00  0.00     0.131 C 
HETATM   23  C   UNL     1     -44.901  60.530 -61.537  1.00  0.00     0.117 C 
HETATM   24  O   UNL     1     -42.811  61.558 -61.995  1.00  0.00    -0.274 OA
ENDBRANCH  12  15
ENDBRANCH   1  11
BRANCH   9  25
HETATM   25  C   UNL     1     -41.171  54.473 -52.100  1.00  0.00     0.026 A 
HETATM   26  C   UNL     1     -40.938  53.549 -53.137  1.00  0.00     0.080 A 
HETATM   27  C   UNL     1     -40.232  52.361 -52.910  1.00  0.00     0.037 A 
HETATM   28  C   UNL     1     -39.774  52.050 -51.633  1.00  0.00     0.003 A 
HETATM   29  C   UNL     1     -40.009  52.933 -50.584  1.00  0.00     0.001 A 
HETATM   30  C   UNL     1     -40.696  54.128 -50.816  1.00  0.00     0.016 A 
BRANCH  26  31
HETATM   31  O   UNL     1     -41.323  53.842 -54.423  1.00  0.00    -0.355 OA
HETATM   32  C   UNL     1     -40.182  53.913 -55.279  1.00  0.00     0.210 C 
ENDBRANCH  26  31
ENDBRANCH   9  25
TORSDOF 4
ENDMDL
MODEL 9
REMARK VINA RESULT:      -8.0      3.015      7.374
REMARK  4 active torsions:
REMARK  status: ('A' for Active; 'I' for Inactive)
REMARK       I    between atoms: C_2  and  N_3 
REMARK    1  A    between atoms: N_7  and  N_8 
REMARK       I    between atoms: N_8  and  C_9 
REMARK    2  A    between atoms: C_9  and  C_10 
REMARK    3  A    between atoms: C_18  and  C_19 
REMARK    4  A    between atoms: C_20  and  O_21 
ROOT
HETATM    1  C   UNL     1     -42.164  57.151 -55.648  1.00  0.00     0.048 A 
HETATM    2  C   UNL     1     -42.291  58.001 -56.770  1.00  0.00     0.009 A 
HETATM    3  C   UNL     1     -42.555  59.355 -56.486  1.00  0.00     0.068 A 
HETATM    4  C   UNL     1     -42.734  60.241 -57.538  1.00  0.00     0.032 A 
HETATM    5  C   UNL     1     -42.633  59.839 -58.872  1.00  0.00     0.002 A 
HETATM    6  C   UNL     1     -42.324  58.520 -59.168  1.00  0.00     0.001 A 
HETATM    7  C   UNL     1     -42.144  57.610 -58.129  1.00  0.00     0.015 A 
HETATM    8  N   UNL     1     -42.625  59.844 -55.238  1.00  0.00    -0.247 NA
HETATM    9  C   UNL     1     -42.451  59.019 -54.177  1.00  0.00     0.071 A 
HETATM   10  C   UNL     1     -42.231  57.664 -54.350  1.00  0.00     0.050 A 
ENDROOT
BRANCH   1  11
HETATM   11  C   UNL     1     -41.920  55.690 -55.743  1.00  0.00     0.272 C 
HETATM   12  N   UNL     1     -40.735  55.243 -55.174  1.00  0.00    -0.243 N 
HETATM   13  H   UNL     1     -40.065  55.908 -54.810  1.00  0.00     0.192 HD
HETATM   14  O   UNL     1     -42.741  54.996 -56.333  1.00  0.00    -0.266 OA
BRANCH  12  15
HETATM   15  N   UNL     1     -40.406  53.930 -55.279  1.00  0.00    -0.181 NA
HETATM   16  C   UNL     1     -40.543  53.134 -54.263  1.00  0.00     0.035 C 
HETATM   17  C   UNL     1     -40.153  51.685 -54.463  1.00  0.00     0.076 C 
HETATM   18  C   UNL     1     -41.165  53.469 -52.927  1.00  0.00     0.076 C 
HETATM   19  C   UNL     1     -39.285  51.235 -53.300  1.00  0.00     0.131 C 
HETATM   20  N   UNL     1     -39.915  51.534 -52.012  1.00  0.00    -0.352 N 
HETATM   21  C   UNL     1     -39.796  50.597 -50.992  1.00  0.00     0.215 C 
HETATM   22  C   UNL     1     -40.284  52.936 -51.804  1.00  0.00     0.131 C 
HETATM   23  C   UNL     1     -40.373  50.961 -49.647  1.00  0.00     0.117 C 
HETATM   24  O   UNL     1     -39.267  49.497 -51.154  1.00  0.00    -0.274 OA
ENDBRANCH  12  15
ENDBRANCH   1  11
BRANCH   9  25
HETATM   25  C   UNL     1     -42.443  59.648 -52.842  1.00  0.00     0.026 A 
HETATM   26  C   UNL     1     -43.474  60.490 -52.381  1.00  0.00     0.080 A 
HETATM   27  C   UNL     1     -43.439  61.050 -51.098  1.00  0.00     0.037 A 
HETATM   28  C   UNL     1     -42.355  60.811 -50.257  1.00  0.00     0.003 A 
HETATM   29  C   UNL     1     -41.312  60.002 -50.694  1.00  0.00     0.001 A 
HETATM   30  C   UNL     1     -41.357  59.428 -51.967  1.00  0.00     0.016 A 
BRANCH  26  31
HETATM   31  O   UNL     1     -44.588  60.707 -53.156  1.00  0.00    -0.355 OA
HETATM   32  C   UNL     1     -45.715  60.025 -52.606  1.00  0.00     0.210 C 
ENDBRANCH  26  31
ENDBRANCH   9  25
TORSDOF 4
ENDMDL
MODEL 10
REMARK VINA RESULT:      -7.8      3.418      8.495
REMARK  4 active torsions:
REMARK  status: ('A' for Active; 'I' for Inactive)
REMARK       I    between atoms: C_2  and  N_3 
REMARK    1  A    between atoms: N_7  and  N_8 
REMARK       I    between atoms: N_8  and  C_9 
REMARK    2  A    between atoms: C_9  and  C_10 
REMARK    3  A    between atoms: C_18  and  C_19 
REMARK    4  A    between atoms: C_20  and  O_21 
ROOT
HETATM    1  C   UNL     1     -43.555  57.550 -59.123  1.00  0.00     0.048 A 
HETATM    2  C   UNL     1     -44.827  57.808 -59.683  1.00  0.00     0.009 A 
HETATM    3  C   UNL     1     -45.044  59.125 -60.131  1.00  0.00     0.068 A 
HETATM    4  C   UNL     1     -46.285  59.462 -60.654  1.00  0.00     0.032 A 
HETATM    5  C   UNL     1     -47.316  58.529 -60.777  1.00  0.00     0.002 A 
HETATM    6  C   UNL     1     -47.102  57.216 -60.388  1.00  0.00     0.001 A 
HETATM    7  C   UNL     1     -45.867  56.853 -59.855  1.00  0.00     0.015 A 
HETATM    8  N   UNL     1     -44.100  60.079 -60.096  1.00  0.00    -0.247 NA
HETATM    9  C   UNL     1     -42.872  59.796 -59.600  1.00  0.00     0.071 A 
HETATM   10  C   UNL     1     -42.572  58.543 -59.094  1.00  0.00     0.050 A 
ENDROOT
BRANCH   1  11
HETATM   11  C   UNL     1     -43.148  56.236 -58.567  1.00  0.00     0.272 C 
HETATM   12  N   UNL     1     -43.320  56.087 -57.197  1.00  0.00    -0.243 N 
HETATM   13  H   UNL     1     -43.619  56.873 -56.635  1.00  0.00     0.192 HD
HETATM   14  O   UNL     1     -42.667  55.402 -59.327  1.00  0.00    -0.266 OA
BRANCH  12  15
HETATM   15  N   UNL     1     -42.909  54.938 -56.602  1.00  0.00    -0.181 NA
HETATM   16  C   UNL     1     -42.915  54.828 -55.309  1.00  0.00     0.035 C 
HETATM   17  C   UNL     1     -42.440  53.515 -54.724  1.00  0.00     0.076 C 
HETATM   18  C   UNL     1     -43.459  55.831 -54.316  1.00  0.00     0.076 C 
HETATM   19  C   UNL     1     -41.460  53.793 -53.598  1.00  0.00     0.131 C 
HETATM   20  N   UNL     1     -42.013  54.740 -52.625  1.00  0.00    -0.352 N 
HETATM   21  C   UNL     1     -41.754  54.519 -51.277  1.00  0.00     0.215 C 
HETATM   22  C   UNL     1     -42.463  56.018 -53.179  1.00  0.00     0.131 C 
HETATM   23  C   UNL     1     -42.254  55.551 -50.298  1.00  0.00     0.117 C 
HETATM   24  O   UNL     1     -41.163  53.520 -50.866  1.00  0.00    -0.274 OA
ENDBRANCH  12  15
ENDBRANCH   1  11
BRANCH   9  25
HETATM   25  C   UNL     1     -41.859  60.866 -59.687  1.00  0.00     0.026 A 
HETATM   26  C   UNL     1     -41.198  61.394 -58.561  1.00  0.00     0.080 A 
HETATM   27  C   UNL     1     -40.226  62.395 -58.688  1.00  0.00     0.037 A 
HETATM   28  C   UNL     1     -39.918  62.918 -59.941  1.00  0.00     0.003 A 
HETATM   29  C   UNL     1     -40.570  62.432 -61.069  1.00  0.00     0.001 A 
HETATM   30  C   UNL     1     -41.526  61.419 -60.943  1.00  0.00     0.016 A 
BRANCH  26  31
HETATM   31  O   UNL     1     -41.432  60.869 -57.313  1.00  0.00    -0.355 OA
HETATM   32  C   UNL     1     -42.516  61.551 -56.682  1.00  0.00     0.210 C 
ENDBRANCH  26  31
ENDBRANCH   9  25
TORSDOF 4
ENDMDL
