MODEL 1
REMARK VINA RESULT:      -8.2      0.000      0.000
REMARK  2 active torsions:
REMARK  status: ('A' for Active; 'I' for Inactive)
REMARK    1  A    between atoms: C_9  and  O_10 
REMARK    2  A    between atoms: C_9  and  C_11 
ROOT
HETATM    1  C   UNL     1     -40.241  53.922 -55.437  1.00  0.00     0.048 C 
HETATM    2  C   UNL     1     -40.271  53.504 -53.995  1.00  0.00    -0.061 A 
HETATM    3  C   UNL     1     -40.614  54.424 -52.993  1.00  0.00     0.020 A 
HETATM    4  C   UNL     1     -40.652  53.990 -51.674  1.00  0.00     0.018 A 
HETATM    5  C   UNL     1     -40.335  52.669 -51.360  1.00  0.00     0.045 A 
HETATM    6  N   UNL     1     -40.419  52.458 -49.993  1.00  0.00    -0.323 N 
HETATM    7  C   UNL     1     -40.799  53.621 -49.320  1.00  0.00     0.266 A 
HETATM    8  O   UNL     1     -40.922  53.700 -48.107  1.00  0.00    -0.269 OA
HETATM    9  C   UNL     1     -40.969  54.754 -50.404  1.00  0.00     0.198 A 
HETATM   10  C   UNL     1     -39.985  51.742 -52.319  1.00  0.00     0.031 A 
HETATM   11  C   UNL     1     -39.956  52.171 -53.648  1.00  0.00     0.009 A 
HETATM   12  H   UNL     1     -40.240  51.590 -49.513  1.00  0.00     0.169 HD
ENDROOT
BRANCH   9  13
HETATM   13  O   UNL     1     -40.025  55.799 -50.220  1.00  0.00    -0.371 OA
HETATM   14  H   UNL     1     -40.537  56.601 -50.029  1.00  0.00     0.212 HD
ENDBRANCH   9  13
BRANCH   9  15
HETATM   15  C   UNL     1     -42.396  55.227 -50.541  1.00  0.00     0.018 A 
HETATM   16  C   UNL     1     -42.845  56.548 -50.904  1.00  0.00     0.002 A 
HETATM   17  C   UNL     1     -44.241  56.534 -50.928  1.00  0.00     0.043 A 
HETATM   18  C   UNL     1     -42.192  57.760 -51.220  1.00  0.00     0.014 A 
HETATM   19  C   UNL     1     -45.010  57.660 -51.247  1.00  0.00     0.030 A 
HETATM   20  N   UNL     1     -44.637  55.264 -50.590  1.00  0.00    -0.365 N 
HETATM   21  C   UNL     1     -44.335  58.844 -51.554  1.00  0.00     0.002 A 
HETATM   22  C   UNL     1     -42.945  58.896 -51.542  1.00  0.00     0.001 A 
HETATM   23  H   UNL     1     -45.600  54.965 -50.521  1.00  0.00     0.165 HD
HETATM   24  C   UNL     1     -43.547  54.470 -50.363  1.00  0.00     0.100 A 
ENDBRANCH   9  15
TORSDOF 2
ENDMDL
MODEL 2
REMARK VINA RESULT:      -8.1      2.981      4.196
REMARK  2 active torsions:
REMARK  status: ('A' for Active; 'I' for Inactive)
REMARK    1  A    between atoms: C_9  and  O_10 
REMARK    2  A    between atoms: C_9  and  C_11 
ROOT
HETATM    1  C   UNL     1     -40.173  51.797 -52.310  1.00  0.00     0.048 C 
HETATM    2  C   UNL     1     -40.613  52.829 -53.307  1.00  0.00    -0.061 A 
HETATM    3  C   UNL     1     -41.762  53.599 -53.075  1.00  0.00     0.020 A 
HETATM    4  C   UNL     1     -42.121  54.559 -54.013  1.00  0.00     0.018 A 
HETATM    5  C   UNL     1     -41.360  54.731 -55.169  1.00  0.00     0.045 A 
HETATM    6  N   UNL     1     -41.905  55.722 -55.970  1.00  0.00    -0.323 N 
HETATM    7  C   UNL     1     -43.055  56.268 -55.395  1.00  0.00     0.266 A 
HETATM    8  O   UNL     1     -43.730  57.143 -55.915  1.00  0.00    -0.269 OA
HETATM    9  C   UNL     1     -43.301  55.511 -54.033  1.00  0.00     0.198 A 
HETATM   10  C   UNL     1     -40.232  53.984 -55.433  1.00  0.00     0.031 A 
HETATM   11  C   UNL     1     -39.860  53.025 -54.487  1.00  0.00     0.009 A 
HETATM   12  H   UNL     1     -41.542  56.036 -56.856  1.00  0.00     0.169 HD
ENDROOT
BRANCH   9  13
HETATM   13  O   UNL     1     -44.516  54.776 -54.057  1.00  0.00    -0.371 OA
HETATM   14  H   UNL     1     -44.323  53.941 -54.512  1.00  0.00     0.212 HD
ENDBRANCH   9  13
BRANCH   9  15
HETATM   15  C   UNL     1     -43.142  56.404 -52.827  1.00  0.00     0.018 A 
HETATM   16  C   UNL     1     -42.084  57.352 -52.579  1.00  0.00     0.002 A 
HETATM   17  C   UNL     1     -42.344  57.972 -51.355  1.00  0.00     0.043 A 
HETATM   18  C   UNL     1     -40.926  57.747 -53.285  1.00  0.00     0.014 A 
HETATM   19  C   UNL     1     -41.511  58.956 -50.806  1.00  0.00     0.030 A 
HETATM   20  N   UNL     1     -43.505  57.429 -50.866  1.00  0.00    -0.365 N 
HETATM   21  C   UNL     1     -40.373  59.323 -51.529  1.00  0.00     0.002 A 
HETATM   22  C   UNL     1     -40.082  58.728 -52.752  1.00  0.00     0.001 A 
HETATM   23  H   UNL     1     -43.931  57.687 -49.987  1.00  0.00     0.165 HD
HETATM   24  C   UNL     1     -43.998  56.498 -51.737  1.00  0.00     0.100 A 
ENDBRANCH   9  15
TORSDOF 2
ENDMDL
MODEL 3
REMARK VINA RESULT:      -8.1      2.244      2.914
REMARK  2 active torsions:
REMARK  status: ('A' for Active; 'I' for Inactive)
REMARK    1  A    between atoms: C_9  and  O_10 
REMARK    2  A    between atoms: C_9  and  C_11 
ROOT
HETATM    1  C   UNL     1     -39.240  49.978 -54.348  1.00  0.00     0.048 C 
HETATM    2  C   UNL     1     -39.584  50.455 -52.966  1.00  0.00    -0.061 A 
HETATM    3  C   UNL     1     -39.874  51.806 -52.730  1.00  0.00     0.020 A 
HETATM    4  C   UNL     1     -40.210  52.201 -51.441  1.00  0.00     0.018 A 
HETATM    5  C   UNL     1     -40.233  51.266 -50.405  1.00  0.00     0.045 A 
HETATM    6  N   UNL     1     -40.572  51.875 -49.207  1.00  0.00    -0.323 N 
HETATM    7  C   UNL     1     -40.796  53.244 -49.375  1.00  0.00     0.266 A 
HETATM    8  O   UNL     1     -41.087  54.006 -48.465  1.00  0.00    -0.269 OA
HETATM    9  C   UNL     1     -40.550  53.574 -50.897  1.00  0.00     0.198 A 
HETATM   10  C   UNL     1     -39.943  49.933 -50.600  1.00  0.00     0.031 A 
HETATM   11  C   UNL     1     -39.617  49.530 -51.898  1.00  0.00     0.009 A 
HETATM   12  H   UNL     1     -40.659  51.419 -48.312  1.00  0.00     0.169 HD
ENDROOT
BRANCH   9  13
HETATM   13  O   UNL     1     -39.446  54.450 -51.070  1.00  0.00    -0.371 OA
HETATM   14  H   UNL     1     -39.642  54.988 -51.854  1.00  0.00     0.212 HD
ENDBRANCH   9  13
BRANCH   9  15
HETATM   15  C   UNL     1     -41.805  54.011 -51.613  1.00  0.00     0.018 A 
HETATM   16  C   UNL     1     -41.900  54.582 -52.934  1.00  0.00     0.002 A 
HETATM   17  C   UNL     1     -43.250  54.817 -53.202  1.00  0.00     0.043 A 
HETATM   18  C   UNL     1     -40.961  54.919 -53.934  1.00  0.00     0.014 A 
HETATM   19  C   UNL     1     -43.703  55.369 -54.407  1.00  0.00     0.030 A 
HETATM   20  N   UNL     1     -43.956  54.416 -52.096  1.00  0.00    -0.365 N 
HETATM   21  C   UNL     1     -42.749  55.693 -55.375  1.00  0.00     0.002 A 
HETATM   22  C   UNL     1     -41.396  55.472 -55.144  1.00  0.00     0.001 A 
HETATM   23  H   UNL     1     -44.962  54.476 -52.007  1.00  0.00     0.165 HD
HETATM   24  C   UNL     1     -43.109  53.925 -51.143  1.00  0.00     0.100 A 
ENDBRANCH   9  15
TORSDOF 2
ENDMDL
MODEL 4
REMARK VINA RESULT:      -8.0      2.386      6.132
REMARK  2 active torsions:
REMARK  status: ('A' for Active; 'I' for Inactive)
REMARK    1  A    between atoms: C_9  and  O_10 
REMARK    2  A    between atoms: C_9  and  C_11 
ROOT
HETATM    1  C   UNL     1     -40.588  59.190 -50.535  1.00  0.00     0.048 C 
HETATM    2  C   UNL     1     -41.505  58.317 -51.343  1.00  0.00    -0.061 A 
HETATM    3  C   UNL     1     -40.996  57.237 -52.078  1.00  0.00     0.020 A 
HETATM    4  C   UNL     1     -41.881  56.440 -52.793  1.00  0.00     0.018 A 
HETATM    5  C   UNL     1     -43.246  56.731 -52.790  1.00  0.00     0.045 A 
HETATM    6  N   UNL     1     -43.939  55.827 -53.579  1.00  0.00    -0.323 N 
HETATM    7  C   UNL     1     -43.081  54.883 -54.148  1.00  0.00     0.266 A 
HETATM    8  O   UNL     1     -43.446  53.993 -54.902  1.00  0.00    -0.269 OA
HETATM    9  C   UNL     1     -41.618  55.236 -53.675  1.00  0.00     0.198 A 
HETATM   10  C   UNL     1     -43.778  57.791 -52.087  1.00  0.00     0.031 A 
HETATM   11  C   UNL     1     -42.892  58.587 -51.357  1.00  0.00     0.009 A 
HETATM   12  H   UNL     1     -44.934  55.819 -53.740  1.00  0.00     0.169 HD
ENDROOT
BRANCH   9  13
HETATM   13  O   UNL     1     -40.791  55.608 -54.768  1.00  0.00    -0.371 OA
HETATM   14  H   UNL     1     -40.095  56.178 -54.404  1.00  0.00     0.212 HD
ENDBRANCH   9  13
BRANCH   9  15
HETATM   15  C   UNL     1     -41.020  54.180 -52.778  1.00  0.00     0.018 A 
HETATM   16  C   UNL     1     -40.580  52.861 -53.159  1.00  0.00     0.002 A 
HETATM   17  C   UNL     1     -40.079  52.231 -52.018  1.00  0.00     0.043 A 
HETATM   18  C   UNL     1     -40.554  52.141 -54.375  1.00  0.00     0.014 A 
HETATM   19  C   UNL     1     -39.561  50.929 -52.031  1.00  0.00     0.030 A 
HETATM   20  N   UNL     1     -40.209  53.117 -50.978  1.00  0.00    -0.365 N 
HETATM   21  C   UNL     1     -39.551  50.244 -53.248  1.00  0.00     0.002 A 
HETATM   22  C   UNL     1     -40.041  50.840 -54.406  1.00  0.00     0.001 A 
HETATM   23  H   UNL     1     -39.932  52.924 -50.025  1.00  0.00     0.165 HD
HETATM   24  C   UNL     1     -40.762  54.287 -51.417  1.00  0.00     0.100 A 
ENDBRANCH   9  15
TORSDOF 2
ENDMDL
MODEL 5
REMARK VINA RESULT:      -7.7      2.328      3.679
REMARK  2 active torsions:
REMARK  status: ('A' for Active; 'I' for Inactive)
REMARK    1  A    between atoms: C_9  and  O_10 
REMARK    2  A    between atoms: C_9  and  C_11 
ROOT
HETATM    1  C   UNL     1     -40.027  53.922 -47.946  1.00  0.00     0.048 C 
HETATM    2  C   UNL     1     -40.466  53.844 -49.380  1.00  0.00    -0.061 A 
HETATM    3  C   UNL     1     -41.721  54.334 -49.768  1.00  0.00     0.020 A 
HETATM    4  C   UNL     1     -42.078  54.264 -51.109  1.00  0.00     0.018 A 
HETATM    5  C   UNL     1     -41.206  53.697 -52.039  1.00  0.00     0.045 A 
HETATM    6  N   UNL     1     -41.768  53.712 -53.306  1.00  0.00    -0.323 N 
HETATM    7  C   UNL     1     -43.038  54.291 -53.295  1.00  0.00     0.266 A 
HETATM    8  O   UNL     1     -43.747  54.403 -54.284  1.00  0.00    -0.269 OA
HETATM    9  C   UNL     1     -43.355  54.694 -51.803  1.00  0.00     0.198 A 
HETATM   10  C   UNL     1     -39.970  53.196 -51.689  1.00  0.00     0.031 A 
HETATM   11  C   UNL     1     -39.602  53.276 -50.343  1.00  0.00     0.009 A 
HETATM   12  H   UNL     1     -41.340  53.363 -54.150  1.00  0.00     0.169 HD
ENDROOT
BRANCH   9  13
HETATM   13  O   UNL     1     -44.456  53.961 -51.287  1.00  0.00    -0.371 OA
HETATM   14  H   UNL     1     -45.235  54.532 -51.382  1.00  0.00     0.212 HD
ENDBRANCH   9  13
BRANCH   9  15
HETATM   15  C   UNL     1     -43.459  56.187 -51.608  1.00  0.00     0.018 A 
HETATM   16  C   UNL     1     -42.567  57.197 -52.121  1.00  0.00     0.002 A 
HETATM   17  C   UNL     1     -43.051  58.442 -51.715  1.00  0.00     0.043 A 
HETATM   18  C   UNL     1     -41.389  57.170 -52.902  1.00  0.00     0.014 A 
HETATM   19  C   UNL     1     -42.422  59.649 -52.044  1.00  0.00     0.030 A 
HETATM   20  N   UNL     1     -44.186  58.212 -50.978  1.00  0.00    -0.365 N 
HETATM   21  C   UNL     1     -41.259  59.589 -52.816  1.00  0.00     0.002 A 
HETATM   22  C   UNL     1     -40.748  58.367 -53.241  1.00  0.00     0.001 A 
HETATM   23  H   UNL     1     -44.746  58.937 -50.550  1.00  0.00     0.165 HD
HETATM   24  C   UNL     1     -44.447  56.872 -50.912  1.00  0.00     0.100 A 
ENDBRANCH   9  15
TORSDOF 2
ENDMDL
MODEL 6
REMARK VINA RESULT:      -7.6     15.034     16.572
REMARK  2 active torsions:
REMARK  status: ('A' for Active; 'I' for Inactive)
REMARK    1  A    between atoms: C_9  and  O_10 
REMARK    2  A    between atoms: C_9  and  C_11 
ROOT
HETATM    1  C   UNL     1     -30.845  39.400 -56.602  1.00  0.00     0.048 C 
HETATM    2  C   UNL     1     -31.800  39.857 -55.537  1.00  0.00    -0.061 A 
HETATM    3  C   UNL     1     -32.970  40.550 -55.880  1.00  0.00     0.020 A 
HETATM    4  C   UNL     1     -33.839  40.934 -54.866  1.00  0.00     0.018 A 
HETATM    5  C   UNL     1     -33.533  40.650 -53.535  1.00  0.00     0.045 A 
HETATM    6  N   UNL     1     -34.520  41.137 -52.693  1.00  0.00    -0.323 N 
HETATM    7  C   UNL     1     -35.538  41.768 -53.411  1.00  0.00     0.266 A 
HETATM    8  O   UNL     1     -36.511  42.298 -52.896  1.00  0.00    -0.269 OA
HETATM    9  C   UNL     1     -35.147  41.696 -54.937  1.00  0.00     0.198 A 
HETATM   10  C   UNL     1     -32.387  39.981 -53.163  1.00  0.00     0.031 A 
HETATM   11  C   UNL     1     -31.516  39.582 -54.180  1.00  0.00     0.009 A 
HETATM   12  H   UNL     1     -34.536  41.060 -51.688  1.00  0.00     0.169 HD
ENDROOT
BRANCH   9  13
HETATM   13  O   UNL     1     -34.926  42.989 -55.482  1.00  0.00    -0.371 OA
HETATM   14  H   UNL     1     -34.061  42.958 -55.920  1.00  0.00     0.212 HD
ENDBRANCH   9  13
BRANCH   9  15
HETATM   15  C   UNL     1     -36.090  40.838 -55.745  1.00  0.00     0.018 A 
HETATM   16  C   UNL     1     -36.591  41.104 -57.071  1.00  0.00     0.002 A 
HETATM   17  C   UNL     1     -37.416  40.040 -57.438  1.00  0.00     0.043 A 
HETATM   18  C   UNL     1     -36.416  42.154 -58.000  1.00  0.00     0.014 A 
HETATM   19  C   UNL     1     -38.071  39.973 -58.675  1.00  0.00     0.030 A 
HETATM   20  N   UNL     1     -37.430  39.159 -56.386  1.00  0.00    -0.365 N 
HETATM   21  C   UNL     1     -37.877  41.027 -59.572  1.00  0.00     0.002 A 
HETATM   22  C   UNL     1     -37.061  42.104 -59.241  1.00  0.00     0.001 A 
HETATM   23  H   UNL     1     -37.954  38.294 -56.371  1.00  0.00     0.165 HD
HETATM   24  C   UNL     1     -36.637  39.617 -55.372  1.00  0.00     0.100 A 
ENDBRANCH   9  15
TORSDOF 2
ENDMDL
MODEL 7
REMARK VINA RESULT:      -7.5      3.288      4.586
REMARK  2 active torsions:
REMARK  status: ('A' for Active; 'I' for Inactive)
REMARK    1  A    between atoms: C_9  and  O_10 
REMARK    2  A    between atoms: C_9  and  C_11 
ROOT
HETATM    1  C   UNL     1     -40.841  53.085 -51.060  1.00  0.00     0.048 C 
HETATM    2  C   UNL     1     -41.066  53.573 -52.462  1.00  0.00    -0.061 A 
HETATM    3  C   UNL     1     -42.047  54.539 -52.732  1.00  0.00     0.020 A 
HETATM    4  C   UNL     1     -42.207  54.980 -54.040  1.00  0.00     0.018 A 
HETATM    5  C   UNL     1     -41.416  54.451 -55.060  1.00  0.00     0.045 A 
HETATM    6  N   UNL     1     -41.754  55.014 -56.280  1.00  0.00    -0.323 N 
HETATM    7  C   UNL     1     -42.781  55.950 -56.144  1.00  0.00     0.266 A 
HETATM    8  O   UNL     1     -43.271  56.568 -57.077  1.00  0.00    -0.269 OA
HETATM    9  C   UNL     1     -43.181  55.986 -54.619  1.00  0.00     0.198 A 
HETATM   10  C   UNL     1     -40.450  53.494 -54.831  1.00  0.00     0.031 A 
HETATM   11  C   UNL     1     -40.278  53.056 -53.516  1.00  0.00     0.009 A 
HETATM   12  H   UNL     1     -41.329  54.803 -57.170  1.00  0.00     0.169 HD
ENDROOT
BRANCH   9  13
HETATM   13  O   UNL     1     -44.514  55.540 -54.417  1.00  0.00    -0.371 OA
HETATM   14  H   UNL     1     -44.695  55.633 -53.468  1.00  0.00     0.212 HD
ENDBRANCH   9  13
BRANCH   9  15
HETATM   15  C   UNL     1     -42.864  57.306 -53.960  1.00  0.00     0.018 A 
HETATM   16  C   UNL     1     -43.566  57.921 -52.860  1.00  0.00     0.002 A 
HETATM   17  C   UNL     1     -42.922  59.124 -52.561  1.00  0.00     0.043 A 
HETATM   18  C   UNL     1     -44.691  57.565 -52.084  1.00  0.00     0.014 A 
HETATM   19  C   UNL     1     -43.344  59.981 -51.537  1.00  0.00     0.030 A 
HETATM   20  N   UNL     1     -41.875  59.250 -53.439  1.00  0.00    -0.365 N 
HETATM   21  C   UNL     1     -44.460  59.600 -50.788  1.00  0.00     0.002 A 
HETATM   22  C   UNL     1     -45.126  58.409 -51.055  1.00  0.00     0.001 A 
HETATM   23  H   UNL     1     -41.235  60.033 -53.458  1.00  0.00     0.165 HD
HETATM   24  C   UNL     1     -41.822  58.169 -54.274  1.00  0.00     0.100 A 
ENDBRANCH   9  15
TORSDOF 2
ENDMDL
MODEL 8
REMARK VINA RESULT:      -7.4      2.771      6.119
REMARK  2 active torsions:
REMARK  status: ('A' for Active; 'I' for Inactive)
REMARK    1  A    between atoms: C_9  and  O_10 
REMARK    2  A    between atoms: C_9  and  C_11 
ROOT
HETATM    1  C   UNL     1     -38.901  59.528 -50.573  1.00  0.00     0.048 C 
HETATM    2  C   UNL     1     -40.331  59.386 -51.008  1.00  0.00    -0.061 A 
HETATM    3  C   UNL     1     -40.682  58.472 -52.013  1.00  0.00     0.020 A 
HETATM    4  C   UNL     1     -42.020  58.355 -52.370  1.00  0.00     0.018 A 
HETATM    5  C   UNL     1     -42.984  59.150 -51.749  1.00  0.00     0.045 A 
HETATM    6  N   UNL     1     -44.241  58.885 -52.267  1.00  0.00    -0.323 N 
HETATM    7  C   UNL     1     -44.189  57.900 -53.256  1.00  0.00     0.266 A 
HETATM    8  O   UNL     1     -45.163  57.505 -53.880  1.00  0.00    -0.269 OA
HETATM    9  C   UNL     1     -42.678  57.477 -53.415  1.00  0.00     0.198 A 
HETATM   10  C   UNL     1     -42.671  60.064 -50.766  1.00  0.00     0.031 A 
HETATM   11  C   UNL     1     -41.329  60.177 -50.396  1.00  0.00     0.009 A 
HETATM   12  H   UNL     1     -45.104  59.324 -51.987  1.00  0.00     0.169 HD
ENDROOT
BRANCH   9  13
HETATM   13  O   UNL     1     -42.178  57.802 -54.704  1.00  0.00    -0.371 OA
HETATM   14  H   UNL     1     -41.407  58.374 -54.564  1.00  0.00     0.212 HD
ENDBRANCH   9  13
BRANCH   9  15
HETATM   15  C   UNL     1     -42.419  56.052 -52.992  1.00  0.00     0.018 A 
HETATM   16  C   UNL     1     -41.571  55.088 -53.649  1.00  0.00     0.002 A 
HETATM   17  C   UNL     1     -41.611  53.906 -52.907  1.00  0.00     0.043 A 
HETATM   18  C   UNL     1     -40.765  55.111 -54.810  1.00  0.00     0.014 A 
HETATM   19  C   UNL     1     -40.894  52.757 -53.264  1.00  0.00     0.030 A 
HETATM   20  N   UNL     1     -42.449  54.127 -51.843  1.00  0.00    -0.365 N 
HETATM   21  C   UNL     1     -40.108  52.812 -54.417  1.00  0.00     0.002 A 
HETATM   22  C   UNL     1     -40.042  53.972 -55.181  1.00  0.00     0.001 A 
HETATM   23  H   UNL     1     -42.672  53.437 -51.138  1.00  0.00     0.165 HD
HETATM   24  C   UNL     1     -42.933  55.405 -51.876  1.00  0.00     0.100 A 
ENDBRANCH   9  15
TORSDOF 2
ENDMDL
MODEL 9
REMARK VINA RESULT:      -7.2     14.703     16.213
REMARK  2 active torsions:
REMARK  status: ('A' for Active; 'I' for Inactive)
REMARK    1  A    between atoms: C_9  and  O_10 
REMARK    2  A    between atoms: C_9  and  C_11 
ROOT
HETATM    1  C   UNL     1     -31.982  40.327 -51.450  1.00  0.00     0.048 C 
HETATM    2  C   UNL     1     -33.480  40.324 -51.349  1.00  0.00    -0.061 A 
HETATM    3  C   UNL     1     -34.266  40.820 -52.399  1.00  0.00     0.020 A 
HETATM    4  C   UNL     1     -35.649  40.777 -52.274  1.00  0.00     0.018 A 
HETATM    5  C   UNL     1     -36.234  40.267 -51.115  1.00  0.00     0.045 A 
HETATM    6  N   UNL     1     -37.616  40.337 -51.195  1.00  0.00    -0.323 N 
HETATM    7  C   UNL     1     -38.030  40.891 -52.408  1.00  0.00     0.266 A 
HETATM    8  O   UNL     1     -39.199  41.079 -52.710  1.00  0.00    -0.269 OA
HETATM    9  C   UNL     1     -36.730  41.249 -53.226  1.00  0.00     0.198 A 
HETATM   10  C   UNL     1     -35.491  39.781 -50.061  1.00  0.00     0.031 A 
HETATM   11  C   UNL     1     -34.100  39.811 -50.186  1.00  0.00     0.009 A 
HETATM   12  H   UNL     1     -38.268  40.031 -50.489  1.00  0.00     0.169 HD
ENDROOT
BRANCH   9  13
HETATM   13  O   UNL     1     -36.614  42.649 -53.434  1.00  0.00    -0.371 OA
HETATM   14  H   UNL     1     -37.496  43.024 -53.283  1.00  0.00     0.212 HD
ENDBRANCH   9  13
BRANCH   9  15
HETATM   15  C   UNL     1     -36.579  40.422 -54.479  1.00  0.00     0.018 A 
HETATM   16  C   UNL     1     -36.721  40.872 -55.842  1.00  0.00     0.002 A 
HETATM   17  C   UNL     1     -36.477  39.782 -56.679  1.00  0.00     0.043 A 
HETATM   18  C   UNL     1     -37.031  42.111 -56.446  1.00  0.00     0.014 A 
HETATM   19  C   UNL     1     -36.530  39.867 -58.077  1.00  0.00     0.030 A 
HETATM   20  N   UNL     1     -36.203  38.706 -55.872  1.00  0.00    -0.365 N 
HETATM   21  C   UNL     1     -36.840  41.106 -58.643  1.00  0.00     0.002 A 
HETATM   22  C   UNL     1     -37.087  42.215 -57.840  1.00  0.00     0.001 A 
HETATM   23  H   UNL     1     -35.994  37.777 -56.210  1.00  0.00     0.165 HD
HETATM   24  C   UNL     1     -36.252  39.075 -54.557  1.00  0.00     0.100 A 
ENDBRANCH   9  15
TORSDOF 2
ENDMDL
MODEL 10
REMARK VINA RESULT:      -7.2      2.672      5.792
REMARK  2 active torsions:
REMARK  status: ('A' for Active; 'I' for Inactive)
REMARK    1  A    between atoms: C_9  and  O_10 
REMARK    2  A    between atoms: C_9  and  C_11 
ROOT
HETATM    1  C   UNL     1     -39.425  59.147 -51.497  1.00  0.00     0.048 C 
HETATM    2  C   UNL     1     -40.680  58.406 -51.858  1.00  0.00    -0.061 A 
HETATM    3  C   UNL     1     -40.689  57.499 -52.928  1.00  0.00     0.020 A 
HETATM    4  C   UNL     1     -41.865  56.817 -53.214  1.00  0.00     0.018 A 
HETATM    5  C   UNL     1     -43.014  57.052 -52.459  1.00  0.00     0.045 A 
HETATM    6  N   UNL     1     -44.069  56.284 -52.925  1.00  0.00    -0.323 N 
HETATM    7  C   UNL     1     -43.685  55.494 -54.010  1.00  0.00     0.266 A 
HETATM    8  O   UNL     1     -44.441  54.745 -54.612  1.00  0.00    -0.269 OA
HETATM    9  C   UNL     1     -42.167  55.807 -54.302  1.00  0.00     0.198 A 
HETATM   10  C   UNL     1     -43.042  57.943 -51.407  1.00  0.00     0.031 A 
HETATM   11  C   UNL     1     -41.858  58.623 -51.109  1.00  0.00     0.009 A 
HETATM   12  H   UNL     1     -45.005  56.270 -52.549  1.00  0.00     0.169 HD
ENDROOT
BRANCH   9  13
HETATM   13  O   UNL     1     -41.993  56.404 -55.579  1.00  0.00    -0.371 OA
HETATM   14  H   UNL     1     -41.580  55.731 -56.143  1.00  0.00     0.212 HD
ENDBRANCH   9  13
BRANCH   9  15
HETATM   15  C   UNL     1     -41.264  54.625 -54.044  1.00  0.00     0.018 A 
HETATM   16  C   UNL     1     -41.044  53.957 -52.785  1.00  0.00     0.002 A 
HETATM   17  C   UNL     1     -40.149  52.908 -53.009  1.00  0.00     0.043 A 
HETATM   18  C   UNL     1     -41.527  54.141 -51.471  1.00  0.00     0.014 A 
HETATM   19  C   UNL     1     -39.716  52.045 -51.994  1.00  0.00     0.030 A 
HETATM   20  N   UNL     1     -39.826  52.931 -54.343  1.00  0.00    -0.365 N 
HETATM   21  C   UNL     1     -40.211  52.255 -50.705  1.00  0.00     0.002 A 
HETATM   22  C   UNL     1     -41.105  53.289 -50.444  1.00  0.00     0.001 A 
HETATM   23  H   UNL     1     -39.188  52.286 -54.788  1.00  0.00     0.165 HD
HETATM   24  C   UNL     1     -40.490  53.946 -54.975  1.00  0.00     0.100 A 
ENDBRANCH   9  15
TORSDOF 2
ENDMDL
