MODEL 1
REMARK VINA RESULT:      -9.3      0.000      0.000
REMARK  6 active torsions:
REMARK  status: ('A' for Active; 'I' for Inactive)
REMARK    1  A    between atoms: O_2  and  C_3 
REMARK    2  A    between atoms: C_6  and  C_7 
REMARK    3  A    between atoms: C_13  and  C_14 
REMARK       I    between atoms: C_14  and  N_15 
REMARK    4  A    between atoms: N_15  and  C_16 
REMARK    5  A    between atoms: C_18  and  O_19 
REMARK    6  A    between atoms: C_24  and  C_25 
ROOT
HETATM    1  C   UNL     1     -40.953  55.747 -53.540  1.00  0.00     0.118 C 
HETATM    2  N   UNL     1     -41.721  55.953 -54.778  1.00  0.00    -0.365 N 
HETATM    3  C   UNL     1     -42.533  57.044 -54.904  1.00  0.00     0.138 A 
HETATM    4  N   UNL     1     -42.723  57.908 -53.851  1.00  0.00    -0.240 N 
HETATM    5  N   UNL     1     -43.554  58.925 -54.112  1.00  0.00    -0.181 NA
HETATM    6  C   UNL     1     -43.881  58.725 -55.391  1.00  0.00     0.160 A 
HETATM    7  C   UNL     1     -43.305  57.549 -55.937  1.00  0.00     0.096 A 
HETATM    8  C   UNL     1     -42.116  57.763 -52.543  1.00  0.00     0.221 C 
HETATM    9  C   UNL     1     -41.725  56.296 -52.328  1.00  0.00     0.066 C 
HETATM   10  H   UNL     1     -41.186  55.653 -55.597  1.00  0.00     0.161 HD
ENDROOT
BRANCH   7  11
HETATM   11  C   UNL     1     -43.545  57.048 -57.282  1.00  0.00     0.261 C 
HETATM   12  N   UNL     1     -44.868  57.113 -57.678  1.00  0.00    -0.323 N 
HETATM   13  H   UNL     1     -45.500  57.535 -57.009  1.00  0.00     0.169 HD
HETATM   14  O   UNL     1     -42.609  56.647 -57.963  1.00  0.00    -0.267 OA
BRANCH  12  15
HETATM   15  C   UNL     1     -45.418  56.734 -58.919  1.00  0.00     0.037 A 
HETATM   16  C   UNL     1     -44.864  55.765 -59.758  1.00  0.00     0.066 A 
HETATM   17  C   UNL     1     -45.469  55.466 -60.979  1.00  0.00     0.067 A 
HETATM   18  C   UNL     1     -46.635  56.109 -61.378  1.00  0.00     0.036 A 
HETATM   19  C   UNL     1     -47.199  57.072 -60.544  1.00  0.00     0.005 A 
HETATM   20  C   UNL     1     -46.591  57.386 -59.325  1.00  0.00     0.029 A 
BRANCH  17  21
HETATM   21  O   UNL     1     -44.876  54.525 -61.769  1.00  0.00    -0.361 OA
HETATM   22  H   UNL     1     -45.559  54.076 -62.291  1.00  0.00     0.217 HD
ENDBRANCH  17  21
ENDBRANCH  12  15
ENDBRANCH   7  11
BRANCH   1  23
HETATM   23  C   UNL     1     -40.660  54.272 -53.333  1.00  0.00    -0.035 A 
HETATM   24  C   UNL     1     -40.541  53.423 -54.445  1.00  0.00     0.012 A 
HETATM   25  C   UNL     1     -40.173  52.081 -54.291  1.00  0.00     0.037 A 
HETATM   26  C   UNL     1     -39.916  51.567 -53.022  1.00  0.00     0.068 A 
HETATM   27  C   UNL     1     -40.056  52.396 -51.909  1.00  0.00     0.037 A 
HETATM   28  C   UNL     1     -40.416  53.738 -52.060  1.00  0.00     0.012 A 
BRANCH  26  29
HETATM   29  O   UNL     1     -39.527  50.286 -52.742  1.00  0.00    -0.356 OA
HETATM   30  C   UNL     1     -39.522  49.909 -51.369  1.00  0.00     0.210 C 
ENDBRANCH  26  29
ENDBRANCH   1  23
BRANCH   8  31
HETATM   31  C   UNL     1     -40.936  58.702 -52.410  1.00  0.00     0.409 C 
HETATM   32  F   UNL     1     -40.212  58.805 -53.546  1.00  0.00    -0.169 F 
HETATM   33  F   UNL     1     -41.289  59.946 -52.031  1.00  0.00    -0.169 F 
HETATM   34  F   UNL     1     -40.086  58.235 -51.457  1.00  0.00    -0.169 F 
ENDBRANCH   8  31
TORSDOF 6
ENDMDL
MODEL 2
REMARK VINA RESULT:      -9.2      2.772      7.710
REMARK  6 active torsions:
REMARK  status: ('A' for Active; 'I' for Inactive)
REMARK    1  A    between atoms: O_2  and  C_3 
REMARK    2  A    between atoms: C_6  and  C_7 
REMARK    3  A    between atoms: C_13  and  C_14 
REMARK       I    between atoms: C_14  and  N_15 
REMARK    4  A    between atoms: N_15  and  C_16 
REMARK    5  A    between atoms: C_18  and  O_19 
REMARK    6  A    between atoms: C_24  and  C_25 
ROOT
HETATM    1  C   UNL     1     -42.519  58.457 -54.407  1.00  0.00     0.118 C 
HETATM    2  N   UNL     1     -42.246  57.116 -53.864  1.00  0.00    -0.365 N 
HETATM    3  C   UNL     1     -41.748  56.982 -52.599  1.00  0.00     0.138 A 
HETATM    4  N   UNL     1     -41.399  58.086 -51.857  1.00  0.00    -0.240 N 
HETATM    5  N   UNL     1     -40.911  57.804 -50.642  1.00  0.00    -0.181 NA
HETATM    6  C   UNL     1     -40.982  56.471 -50.591  1.00  0.00     0.160 A 
HETATM    7  C   UNL     1     -41.464  55.892 -51.793  1.00  0.00     0.096 A 
HETATM    8  C   UNL     1     -41.511  59.458 -52.311  1.00  0.00     0.221 C 
HETATM    9  C   UNL     1     -41.519  59.481 -53.845  1.00  0.00     0.066 C 
HETATM   10  H   UNL     1     -42.948  56.442 -54.180  1.00  0.00     0.161 HD
ENDROOT
BRANCH   7  11
HETATM   11  C   UNL     1     -41.577  54.463 -52.045  1.00  0.00     0.261 C 
HETATM   12  N   UNL     1     -40.375  53.847 -52.336  1.00  0.00    -0.323 N 
HETATM   13  H   UNL     1     -39.560  54.447 -52.300  1.00  0.00     0.169 HD
HETATM   14  O   UNL     1     -42.667  53.911 -51.958  1.00  0.00    -0.267 OA
BRANCH  12  15
HETATM   15  C   UNL     1     -40.147  52.481 -52.600  1.00  0.00     0.037 A 
HETATM   16  C   UNL     1     -39.741  51.554 -51.638  1.00  0.00     0.066 A 
HETATM   17  C   UNL     1     -39.523  50.223 -51.996  1.00  0.00     0.067 A 
HETATM   18  C   UNL     1     -39.716  49.791 -53.303  1.00  0.00     0.036 A 
HETATM   19  C   UNL     1     -40.128  50.707 -54.267  1.00  0.00     0.005 A 
HETATM   20  C   UNL     1     -40.337  52.045 -53.920  1.00  0.00     0.029 A 
BRANCH  17  21
HETATM   21  O   UNL     1     -39.108  49.363 -51.021  1.00  0.00    -0.361 OA
HETATM   22  H   UNL     1     -39.300  48.454 -51.301  1.00  0.00     0.217 HD
ENDBRANCH  17  21
ENDBRANCH  12  15
ENDBRANCH   7  11
BRANCH   1  23
HETATM   23  C   UNL     1     -42.437  58.444 -55.924  1.00  0.00    -0.035 A 
HETATM   24  C   UNL     1     -42.047  59.606 -56.609  1.00  0.00     0.012 A 
HETATM   25  C   UNL     1     -41.867  59.597 -57.997  1.00  0.00     0.037 A 
HETATM   26  C   UNL     1     -42.070  58.425 -58.722  1.00  0.00     0.068 A 
HETATM   27  C   UNL     1     -42.481  57.272 -58.053  1.00  0.00     0.037 A 
HETATM   28  C   UNL     1     -42.656  57.275 -56.666  1.00  0.00     0.012 A 
BRANCH  26  29
HETATM   29  O   UNL     1     -41.904  58.280 -60.072  1.00  0.00    -0.356 OA
HETATM   30  C   UNL     1     -41.987  59.466 -60.854  1.00  0.00     0.210 C 
ENDBRANCH  26  29
ENDBRANCH   1  23
BRANCH   8  31
HETATM   31  C   UNL     1     -42.744  60.104 -51.716  1.00  0.00     0.409 C 
HETATM   32  F   UNL     1     -43.280  61.053 -52.515  1.00  0.00    -0.169 F 
HETATM   33  F   UNL     1     -43.715  59.218 -51.419  1.00  0.00    -0.169 F 
HETATM   34  F   UNL     1     -42.418  60.724 -50.551  1.00  0.00    -0.169 F 
ENDBRANCH   8  31
TORSDOF 6
ENDMDL
MODEL 3
REMARK VINA RESULT:      -9.2      1.922      7.511
REMARK  6 active torsions:
REMARK  status: ('A' for Active; 'I' for Inactive)
REMARK    1  A    between atoms: O_2  and  C_3 
REMARK    2  A    between atoms: C_6  and  C_7 
REMARK    3  A    between atoms: C_13  and  C_14 
REMARK       I    between atoms: C_14  and  N_15 
REMARK    4  A    between atoms: N_15  and  C_16 
REMARK    5  A    between atoms: C_18  and  O_19 
REMARK    6  A    between atoms: C_24  and  C_25 
ROOT
HETATM    1  C   UNL     1     -43.348  57.529 -55.482  1.00  0.00     0.118 C 
HETATM    2  N   UNL     1     -42.873  56.377 -54.698  1.00  0.00    -0.365 N 
HETATM    3  C   UNL     1     -42.201  56.581 -53.526  1.00  0.00     0.138 A 
HETATM    4  N   UNL     1     -41.871  57.851 -53.113  1.00  0.00    -0.240 N 
HETATM    5  N   UNL     1     -41.201  57.899 -51.955  1.00  0.00    -0.181 NA
HETATM    6  C   UNL     1     -41.130  56.615 -51.594  1.00  0.00     0.160 A 
HETATM    7  C   UNL     1     -41.705  55.736 -52.548  1.00  0.00     0.096 A 
HETATM    8  C   UNL     1     -42.180  59.065 -53.843  1.00  0.00     0.221 C 
HETATM    9  C   UNL     1     -42.392  58.722 -55.323  1.00  0.00     0.066 C 
HETATM   10  H   UNL     1     -43.539  55.602 -54.743  1.00  0.00     0.161 HD
ENDROOT
BRANCH   7  11
HETATM   11  C   UNL     1     -41.706  54.284 -52.451  1.00  0.00     0.261 C 
HETATM   12  N   UNL     1     -40.508  53.696 -52.809  1.00  0.00    -0.323 N 
HETATM   13  H   UNL     1     -39.766  54.339 -53.054  1.00  0.00     0.169 HD
HETATM   14  O   UNL     1     -42.704  53.698 -52.049  1.00  0.00    -0.267 OA
BRANCH  12  15
HETATM   15  C   UNL     1     -40.182  52.324 -52.799  1.00  0.00     0.037 A 
HETATM   16  C   UNL     1     -40.209  51.504 -53.929  1.00  0.00     0.066 A 
HETATM   17  C   UNL     1     -39.886  50.151 -53.820  1.00  0.00     0.067 A 
HETATM   18  C   UNL     1     -39.521  49.597 -52.599  1.00  0.00     0.036 A 
HETATM   19  C   UNL     1     -39.485  50.408 -51.468  1.00  0.00     0.005 A 
HETATM   20  C   UNL     1     -39.819  51.763 -51.566  1.00  0.00     0.029 A 
BRANCH  17  21
HETATM   21  O   UNL     1     -39.947  49.391 -54.952  1.00  0.00    -0.361 OA
HETATM   22  H   UNL     1     -40.807  49.529 -55.378  1.00  0.00     0.217 HD
ENDBRANCH  17  21
ENDBRANCH  12  15
ENDBRANCH   7  11
BRANCH   1  23
HETATM   23  C   UNL     1     -43.466  57.162 -56.951  1.00  0.00    -0.035 A 
HETATM   24  C   UNL     1     -42.931  55.947 -57.410  1.00  0.00     0.012 A 
HETATM   25  C   UNL     1     -43.111  55.536 -58.736  1.00  0.00     0.037 A 
HETATM   26  C   UNL     1     -43.832  56.332 -59.624  1.00  0.00     0.068 A 
HETATM   27  C   UNL     1     -44.345  57.553 -59.184  1.00  0.00     0.037 A 
HETATM   28  C   UNL     1     -44.173  57.963 -57.858  1.00  0.00     0.012 A 
BRANCH  26  29
HETATM   29  O   UNL     1     -44.097  56.033 -60.931  1.00  0.00    -0.356 OA
HETATM   30  C   UNL     1     -45.209  55.179 -61.176  1.00  0.00     0.210 C 
ENDBRANCH  26  29
ENDBRANCH   1  23
BRANCH   8  31
HETATM   31  C   UNL     1     -43.382  59.749 -53.229  1.00  0.00     0.409 C 
HETATM   32  F   UNL     1     -43.051  60.618 -52.249  1.00  0.00    -0.169 F 
HETATM   33  F   UNL     1     -44.132  60.412 -54.132  1.00  0.00    -0.169 F 
HETATM   34  F   UNL     1     -44.195  58.821 -52.659  1.00  0.00    -0.169 F 
ENDBRANCH   8  31
TORSDOF 6
ENDMDL
MODEL 4
REMARK VINA RESULT:      -9.0      1.747      2.184
REMARK  6 active torsions:
REMARK  status: ('A' for Active; 'I' for Inactive)
REMARK    1  A    between atoms: O_2  and  C_3 
REMARK    2  A    between atoms: C_6  and  C_7 
REMARK    3  A    between atoms: C_13  and  C_14 
REMARK       I    between atoms: C_14  and  N_15 
REMARK    4  A    between atoms: N_15  and  C_16 
REMARK    5  A    between atoms: C_18  and  O_19 
REMARK    6  A    between atoms: C_24  and  C_25 
ROOT
HETATM    1  C   UNL     1     -41.229  55.985 -52.738  1.00  0.00     0.118 C 
HETATM    2  N   UNL     1     -42.255  56.363 -53.723  1.00  0.00    -0.365 N 
HETATM    3  C   UNL     1     -43.108  57.396 -53.455  1.00  0.00     0.138 A 
HETATM    4  N   UNL     1     -43.090  58.029 -52.234  1.00  0.00    -0.240 N 
HETATM    5  N   UNL     1     -43.990  59.012 -52.107  1.00  0.00    -0.181 NA
HETATM    6  C   UNL     1     -44.583  59.034 -53.303  1.00  0.00     0.160 A 
HETATM    7  C   UNL     1     -44.103  58.028 -54.182  1.00  0.00     0.096 A 
HETATM    8  C   UNL     1     -42.207  57.685 -51.137  1.00  0.00     0.221 C 
HETATM    9  C   UNL     1     -41.733  56.236 -51.308  1.00  0.00     0.066 C 
HETATM   10  H   UNL     1     -41.903  56.264 -54.678  1.00  0.00     0.161 HD
ENDROOT
BRANCH   7  11
HETATM   11  C   UNL     1     -44.617  57.774 -55.520  1.00  0.00     0.261 C 
HETATM   12  N   UNL     1     -43.639  57.472 -56.448  1.00  0.00    -0.323 N 
HETATM   13  H   UNL     1     -42.695  57.423 -56.085  1.00  0.00     0.169 HD
HETATM   14  O   UNL     1     -45.823  57.808 -55.729  1.00  0.00    -0.267 OA
BRANCH  12  15
HETATM   15  C   UNL     1     -43.811  57.154 -57.811  1.00  0.00     0.037 A 
HETATM   16  C   UNL     1     -44.421  57.997 -58.742  1.00  0.00     0.066 A 
HETATM   17  C   UNL     1     -44.563  57.590 -60.069  1.00  0.00     0.067 A 
HETATM   18  C   UNL     1     -44.093  56.353 -60.494  1.00  0.00     0.036 A 
HETATM   19  C   UNL     1     -43.477  55.508 -59.574  1.00  0.00     0.005 A 
HETATM   20  C   UNL     1     -43.342  55.903 -58.240  1.00  0.00     0.029 A 
BRANCH  17  21
HETATM   21  O   UNL     1     -45.183  58.445 -60.933  1.00  0.00    -0.361 OA
HETATM   22  H   UNL     1     -45.624  59.143 -60.423  1.00  0.00     0.217 HD
ENDBRANCH  17  21
ENDBRANCH  12  15
ENDBRANCH   7  11
BRANCH   1  23
HETATM   23  C   UNL     1     -40.851  54.523 -52.897  1.00  0.00    -0.035 A 
HETATM   24  C   UNL     1     -40.807  53.950 -54.178  1.00  0.00     0.012 A 
HETATM   25  C   UNL     1     -40.367  52.635 -54.364  1.00  0.00     0.037 A 
HETATM   26  C   UNL     1     -39.960  51.871 -53.273  1.00  0.00     0.068 A 
HETATM   27  C   UNL     1     -40.024  52.423 -51.993  1.00  0.00     0.037 A 
HETATM   28  C   UNL     1     -40.457  53.739 -51.804  1.00  0.00     0.012 A 
BRANCH  26  29
HETATM   29  O   UNL     1     -39.489  50.588 -53.324  1.00  0.00    -0.356 OA
HETATM   30  C   UNL     1     -39.752  49.862 -54.519  1.00  0.00     0.210 C 
ENDBRANCH  26  29
ENDBRANCH   1  23
BRANCH   8  31
HETATM   31  C   UNL     1     -41.057  58.666 -51.068  1.00  0.00     0.409 C 
HETATM   32  F   UNL     1     -39.905  58.100 -50.647  1.00  0.00    -0.169 F 
HETATM   33  F   UNL     1     -40.811  59.278 -52.244  1.00  0.00    -0.169 F 
HETATM   34  F   UNL     1     -41.348  59.649 -50.175  1.00  0.00    -0.169 F 
ENDBRANCH   8  31
TORSDOF 6
ENDMDL
MODEL 5
REMARK VINA RESULT:      -8.4      1.662      2.064
REMARK  6 active torsions:
REMARK  status: ('A' for Active; 'I' for Inactive)
REMARK    1  A    between atoms: O_2  and  C_3 
REMARK    2  A    between atoms: C_6  and  C_7 
REMARK    3  A    between atoms: C_13  and  C_14 
REMARK       I    between atoms: C_14  and  N_15 
REMARK    4  A    between atoms: N_15  and  C_16 
REMARK    5  A    between atoms: C_18  and  O_19 
REMARK    6  A    between atoms: C_24  and  C_25 
ROOT
HETATM    1  C   UNL     1     -41.082  55.703 -52.904  1.00  0.00     0.118 C 
HETATM    2  N   UNL     1     -41.956  56.077 -54.027  1.00  0.00    -0.365 N 
HETATM    3  C   UNL     1     -42.896  57.054 -53.864  1.00  0.00     0.138 A 
HETATM    4  N   UNL     1     -43.109  57.630 -52.633  1.00  0.00    -0.240 N 
HETATM    5  N   UNL     1     -44.070  58.562 -52.617  1.00  0.00    -0.181 NA
HETATM    6  C   UNL     1     -44.463  58.611 -53.893  1.00  0.00     0.160 A 
HETATM    7  C   UNL     1     -43.794  57.671 -54.719  1.00  0.00     0.096 A 
HETATM    8  C   UNL     1     -42.397  57.279 -51.421  1.00  0.00     0.221 C 
HETATM    9  C   UNL     1     -41.823  55.864 -51.566  1.00  0.00     0.066 C 
HETATM   10  H   UNL     1     -41.450  56.038 -54.916  1.00  0.00     0.161 HD
ENDROOT
BRANCH   7  11
HETATM   11  C   UNL     1     -44.071  57.454 -56.131  1.00  0.00     0.261 C 
HETATM   12  N   UNL     1     -44.960  58.362 -56.675  1.00  0.00    -0.323 N 
HETATM   13  H   UNL     1     -45.279  59.087 -56.045  1.00  0.00     0.169 HD
HETATM   14  O   UNL     1     -43.507  56.548 -56.733  1.00  0.00    -0.267 OA
BRANCH  12  15
HETATM   15  C   UNL     1     -45.409  58.436 -58.009  1.00  0.00     0.037 A 
HETATM   16  C   UNL     1     -44.649  58.943 -59.065  1.00  0.00     0.066 A 
HETATM   17  C   UNL     1     -45.184  58.993 -60.352  1.00  0.00     0.067 A 
HETATM   18  C   UNL     1     -46.469  58.532 -60.614  1.00  0.00     0.036 A 
HETATM   19  C   UNL     1     -47.232  58.018 -59.568  1.00  0.00     0.005 A 
HETATM   20  C   UNL     1     -46.708  57.975 -58.273  1.00  0.00     0.029 A 
BRANCH  17  21
HETATM   21  O   UNL     1     -44.406  59.516 -61.344  1.00  0.00    -0.361 OA
HETATM   22  H   UNL     1     -43.495  59.205 -61.226  1.00  0.00     0.217 HD
ENDBRANCH  17  21
ENDBRANCH  12  15
ENDBRANCH   7  11
BRANCH   1  23
HETATM   23  C   UNL     1     -40.604  54.269 -53.054  1.00  0.00    -0.035 A 
HETATM   24  C   UNL     1     -40.283  53.520 -51.910  1.00  0.00     0.012 A 
HETATM   25  C   UNL     1     -39.936  52.167 -52.010  1.00  0.00     0.037 A 
HETATM   26  C   UNL     1     -39.907  51.542 -53.254  1.00  0.00     0.068 A 
HETATM   27  C   UNL     1     -40.200  52.285 -54.399  1.00  0.00     0.037 A 
HETATM   28  C   UNL     1     -40.554  53.634 -54.302  1.00  0.00     0.012 A 
BRANCH  26  29
HETATM   29  O   UNL     1     -39.609  50.227 -53.482  1.00  0.00    -0.356 OA
HETATM   30  C   UNL     1     -39.600  49.370 -52.345  1.00  0.00     0.210 C 
ENDBRANCH  26  29
ENDBRANCH   1  23
BRANCH   8  31
HETATM   31  C   UNL     1     -41.328  58.309 -51.128  1.00  0.00     0.409 C 
HETATM   32  F   UNL     1     -41.765  59.312 -50.334  1.00  0.00    -0.169 F 
HETATM   33  F   UNL     1     -40.226  57.781 -50.558  1.00  0.00    -0.169 F 
HETATM   34  F   UNL     1     -40.922  58.889 -52.288  1.00  0.00    -0.169 F 
ENDBRANCH   8  31
TORSDOF 6
ENDMDL
MODEL 6
REMARK VINA RESULT:      -8.4      3.607      4.278
REMARK  6 active torsions:
REMARK  status: ('A' for Active; 'I' for Inactive)
REMARK    1  A    between atoms: O_2  and  C_3 
REMARK    2  A    between atoms: C_6  and  C_7 
REMARK    3  A    between atoms: C_13  and  C_14 
REMARK       I    between atoms: C_14  and  N_15 
REMARK    4  A    between atoms: N_15  and  C_16 
REMARK    5  A    between atoms: C_18  and  O_19 
REMARK    6  A    between atoms: C_24  and  C_25 
ROOT
HETATM    1  C   UNL     1     -41.069  56.944 -53.138  1.00  0.00     0.118 C 
HETATM    2  N   UNL     1     -41.308  57.768 -54.334  1.00  0.00    -0.365 N 
HETATM    3  C   UNL     1     -41.930  58.978 -54.214  1.00  0.00     0.138 A 
HETATM    4  N   UNL     1     -42.429  59.400 -53.003  1.00  0.00    -0.240 N 
HETATM    5  N   UNL     1     -43.025  60.598 -53.037  1.00  0.00    -0.181 NA
HETATM    6  C   UNL     1     -42.872  60.975 -54.309  1.00  0.00     0.160 A 
HETATM    7  C   UNL     1     -42.226  59.995 -55.107  1.00  0.00     0.096 A 
HETATM    8  C   UNL     1     -42.360  58.640 -51.771  1.00  0.00     0.221 C 
HETATM    9  C   UNL     1     -42.189  57.153 -52.105  1.00  0.00     0.066 C 
HETATM   10  H   UNL     1     -40.534  57.687 -54.997  1.00  0.00     0.161 HD
ENDROOT
BRANCH   7  11
HETATM   11  C   UNL     1     -41.992  60.106 -56.539  1.00  0.00     0.261 C 
HETATM   12  N   UNL     1     -41.782  61.400 -56.975  1.00  0.00    -0.323 N 
HETATM   13  H   UNL     1     -41.775  62.107 -56.250  1.00  0.00     0.169 HD
HETATM   14  O   UNL     1     -41.963  59.098 -57.235  1.00  0.00    -0.267 OA
BRANCH  12  15
HETATM   15  C   UNL     1     -41.505  61.835 -58.288  1.00  0.00     0.037 A 
HETATM   16  C   UNL     1     -42.424  61.791 -59.338  1.00  0.00     0.066 A 
HETATM   17  C   UNL     1     -42.054  62.228 -60.610  1.00  0.00     0.067 A 
HETATM   18  C   UNL     1     -40.780  62.726 -60.856  1.00  0.00     0.036 A 
HETATM   19  C   UNL     1     -39.859  62.780 -59.813  1.00  0.00     0.005 A 
HETATM   20  C   UNL     1     -40.217  62.332 -58.538  1.00  0.00     0.029 A 
BRANCH  17  21
HETATM   21  O   UNL     1     -42.984  62.146 -61.605  1.00  0.00    -0.361 OA
HETATM   22  H   UNL     1     -42.551  62.318 -62.456  1.00  0.00     0.217 HD
ENDBRANCH  17  21
ENDBRANCH  12  15
ENDBRANCH   7  11
BRANCH   1  23
HETATM   23  C   UNL     1     -40.986  55.474 -53.511  1.00  0.00    -0.035 A 
HETATM   24  C   UNL     1     -40.432  55.100 -54.746  1.00  0.00     0.012 A 
HETATM   25  C   UNL     1     -40.251  53.751 -55.074  1.00  0.00     0.037 A 
HETATM   26  C   UNL     1     -40.620  52.755 -54.173  1.00  0.00     0.068 A 
HETATM   27  C   UNL     1     -41.195  53.117 -52.954  1.00  0.00     0.037 A 
HETATM   28  C   UNL     1     -41.371  54.463 -52.620  1.00  0.00     0.012 A 
BRANCH  26  29
HETATM   29  O   UNL     1     -40.474  51.409 -54.364  1.00  0.00    -0.356 OA
HETATM   30  C   UNL     1     -39.589  50.733 -53.477  1.00  0.00     0.210 C 
ENDBRANCH  26  29
ENDBRANCH   1  23
BRANCH   8  31
HETATM   31  C   UNL     1     -41.244  59.168 -50.896  1.00  0.00     0.409 C 
HETATM   32  F   UNL     1     -40.749  58.237 -50.052  1.00  0.00    -0.169 F 
HETATM   33  F   UNL     1     -40.213  59.676 -51.601  1.00  0.00    -0.169 F 
HETATM   34  F   UNL     1     -41.713  60.179 -50.117  1.00  0.00    -0.169 F 
ENDBRANCH   8  31
TORSDOF 6
ENDMDL
MODEL 7
REMARK VINA RESULT:      -8.2      3.836      8.192
REMARK  6 active torsions:
REMARK  status: ('A' for Active; 'I' for Inactive)
REMARK    1  A    between atoms: O_2  and  C_3 
REMARK    2  A    between atoms: C_6  and  C_7 
REMARK    3  A    between atoms: C_13  and  C_14 
REMARK       I    between atoms: C_14  and  N_15 
REMARK    4  A    between atoms: N_15  and  C_16 
REMARK    5  A    between atoms: C_18  and  O_19 
REMARK    6  A    between atoms: C_24  and  C_25 
ROOT
HETATM    1  C   UNL     1     -42.678  55.923 -55.935  1.00  0.00     0.118 C 
HETATM    2  N   UNL     1     -43.243  56.765 -54.868  1.00  0.00    -0.365 N 
HETATM    3  C   UNL     1     -43.177  56.353 -53.568  1.00  0.00     0.138 A 
HETATM    4  N   UNL     1     -42.677  55.112 -53.244  1.00  0.00    -0.240 N 
HETATM    5  N   UNL     1     -42.686  54.837 -51.934  1.00  0.00    -0.181 NA
HETATM    6  C   UNL     1     -43.177  55.956 -51.394  1.00  0.00     0.160 A 
HETATM    7  C   UNL     1     -43.535  56.930 -52.361  1.00  0.00     0.096 A 
HETATM    8  C   UNL     1     -42.191  54.141 -54.203  1.00  0.00     0.221 C 
HETATM    9  C   UNL     1     -42.810  54.434 -55.576  1.00  0.00     0.066 C 
HETATM   10  H   UNL     1     -43.098  57.758 -55.068  1.00  0.00     0.161 HD
ENDROOT
BRANCH   7  11
HETATM   11  C   UNL     1     -44.158  58.212 -52.064  1.00  0.00     0.261 C 
HETATM   12  N   UNL     1     -43.625  58.853 -50.962  1.00  0.00    -0.323 N 
HETATM   13  H   UNL     1     -42.845  58.382 -50.521  1.00  0.00     0.169 HD
HETATM   14  O   UNL     1     -45.050  58.641 -52.786  1.00  0.00    -0.267 OA
BRANCH  12  15
HETATM   15  C   UNL     1     -43.988  60.109 -50.435  1.00  0.00     0.037 A 
HETATM   16  C   UNL     1     -45.158  60.347 -49.711  1.00  0.00     0.066 A 
HETATM   17  C   UNL     1     -45.444  61.629 -49.241  1.00  0.00     0.067 A 
HETATM   18  C   UNL     1     -44.572  62.687 -49.469  1.00  0.00     0.036 A 
HETATM   19  C   UNL     1     -43.399  62.458 -50.185  1.00  0.00     0.005 A 
HETATM   20  C   UNL     1     -43.111  61.179 -50.669  1.00  0.00     0.029 A 
BRANCH  17  21
HETATM   21  O   UNL     1     -46.610  61.810 -48.556  1.00  0.00    -0.361 OA
HETATM   22  H   UNL     1     -46.783  61.023 -48.016  1.00  0.00     0.217 HD
ENDBRANCH  17  21
ENDBRANCH  12  15
ENDBRANCH   7  11
BRANCH   1  23
HETATM   23  C   UNL     1     -43.378  56.193 -57.255  1.00  0.00    -0.035 A 
HETATM   24  C   UNL     1     -43.238  55.284 -58.316  1.00  0.00     0.012 A 
HETATM   25  C   UNL     1     -43.950  55.455 -59.510  1.00  0.00     0.037 A 
HETATM   26  C   UNL     1     -44.815  56.536 -59.660  1.00  0.00     0.068 A 
HETATM   27  C   UNL     1     -44.941  57.459 -58.621  1.00  0.00     0.037 A 
HETATM   28  C   UNL     1     -44.237  57.288 -57.425  1.00  0.00     0.012 A 
BRANCH  26  29
HETATM   29  O   UNL     1     -45.582  56.800 -60.761  1.00  0.00    -0.356 OA
HETATM   30  C   UNL     1     -46.974  56.530 -60.647  1.00  0.00     0.210 C 
ENDBRANCH  26  29
ENDBRANCH   1  23
BRANCH   8  31
HETATM   31  C   UNL     1     -40.678  54.156 -54.237  1.00  0.00     0.409 C 
HETATM   32  F   UNL     1     -40.157  55.386 -54.031  1.00  0.00    -0.169 F 
HETATM   33  F   UNL     1     -40.120  53.316 -53.342  1.00  0.00    -0.169 F 
HETATM   34  F   UNL     1     -40.244  53.757 -55.462  1.00  0.00    -0.169 F 
ENDBRANCH   8  31
TORSDOF 6
ENDMDL
MODEL 8
REMARK VINA RESULT:      -8.1      4.139      7.056
REMARK  6 active torsions:
REMARK  status: ('A' for Active; 'I' for Inactive)
REMARK    1  A    between atoms: O_2  and  C_3 
REMARK    2  A    between atoms: C_6  and  C_7 
REMARK    3  A    between atoms: C_13  and  C_14 
REMARK       I    between atoms: C_14  and  N_15 
REMARK    4  A    between atoms: N_15  and  C_16 
REMARK    5  A    between atoms: C_18  and  O_19 
REMARK    6  A    between atoms: C_24  and  C_25 
ROOT
HETATM    1  C   UNL     1     -41.952  55.265 -53.615  1.00  0.00     0.118 C 
HETATM    2  N   UNL     1     -42.113  56.498 -52.828  1.00  0.00    -0.365 N 
HETATM    3  C   UNL     1     -42.173  57.708 -53.461  1.00  0.00     0.138 A 
HETATM    4  N   UNL     1     -41.985  57.804 -54.820  1.00  0.00    -0.240 N 
HETATM    5  N   UNL     1     -42.057  59.051 -55.301  1.00  0.00    -0.181 NA
HETATM    6  C   UNL     1     -42.337  59.777 -54.216  1.00  0.00     0.160 A 
HETATM    7  C   UNL     1     -42.390  59.005 -53.027  1.00  0.00     0.096 A 
HETATM    8  C   UNL     1     -41.709  56.684 -55.698  1.00  0.00     0.221 C 
HETATM    9  C   UNL     1     -41.113  55.534 -54.876  1.00  0.00     0.066 C 
HETATM   10  H   UNL     1     -42.726  56.344 -52.024  1.00  0.00     0.161 HD
ENDROOT
BRANCH   7  11
HETATM   11  C   UNL     1     -42.604  59.542 -51.691  1.00  0.00     0.261 C 
HETATM   12  N   UNL     1     -43.588  60.509 -51.626  1.00  0.00    -0.323 N 
HETATM   13  H   UNL     1     -44.068  60.700 -52.497  1.00  0.00     0.169 HD
HETATM   14  O   UNL     1     -41.957  59.107 -50.746  1.00  0.00    -0.267 OA
BRANCH  12  15
HETATM   15  C   UNL     1     -44.047  61.199 -50.485  1.00  0.00     0.037 A 
HETATM   16  C   UNL     1     -44.976  60.684 -49.578  1.00  0.00     0.066 A 
HETATM   17  C   UNL     1     -45.384  61.447 -48.484  1.00  0.00     0.067 A 
HETATM   18  C   UNL     1     -44.870  62.720 -48.265  1.00  0.00     0.036 A 
HETATM   19  C   UNL     1     -43.938  63.239 -49.160  1.00  0.00     0.005 A 
HETATM   20  C   UNL     1     -43.532  62.486 -50.266  1.00  0.00     0.029 A 
BRANCH  17  21
HETATM   21  O   UNL     1     -46.308  60.904 -47.640  1.00  0.00    -0.361 OA
HETATM   22  H   UNL     1     -46.002  61.011 -46.726  1.00  0.00     0.217 HD
ENDBRANCH  17  21
ENDBRANCH  12  15
ENDBRANCH   7  11
BRANCH   1  23
HETATM   23  C   UNL     1     -41.287  54.184 -52.781  1.00  0.00    -0.035 A 
HETATM   24  C   UNL     1     -41.458  54.175 -51.388  1.00  0.00     0.012 A 
HETATM   25  C   UNL     1     -40.941  53.136 -50.605  1.00  0.00     0.037 A 
HETATM   26  C   UNL     1     -40.246  52.088 -51.203  1.00  0.00     0.068 A 
HETATM   27  C   UNL     1     -40.049  52.101 -52.585  1.00  0.00     0.037 A 
HETATM   28  C   UNL     1     -40.570  53.133 -53.371  1.00  0.00     0.012 A 
BRANCH  26  29
HETATM   29  O   UNL     1     -39.715  51.007 -50.556  1.00  0.00    -0.356 OA
HETATM   30  C   UNL     1     -39.491  49.841 -51.341  1.00  0.00     0.210 C 
ENDBRANCH  26  29
ENDBRANCH   1  23
BRANCH   8  31
HETATM   31  C   UNL     1     -42.967  56.278 -56.435  1.00  0.00     0.409 C 
HETATM   32  F   UNL     1     -43.023  54.952 -56.691  1.00  0.00    -0.169 F 
HETATM   33  F   UNL     1     -44.096  56.621 -55.783  1.00  0.00    -0.169 F 
HETATM   34  F   UNL     1     -43.012  56.903 -57.641  1.00  0.00    -0.169 F 
ENDBRANCH   8  31
TORSDOF 6
ENDMDL
MODEL 9
REMARK VINA RESULT:      -8.0      1.557      1.900
REMARK  6 active torsions:
REMARK  status: ('A' for Active; 'I' for Inactive)
REMARK    1  A    between atoms: O_2  and  C_3 
REMARK    2  A    between atoms: C_6  and  C_7 
REMARK    3  A    between atoms: C_13  and  C_14 
REMARK       I    between atoms: C_14  and  N_15 
REMARK    4  A    between atoms: N_15  and  C_16 
REMARK    5  A    between atoms: C_18  and  O_19 
REMARK    6  A    between atoms: C_24  and  C_25 
ROOT
HETATM    1  C   UNL     1     -41.739  57.058 -52.977  1.00  0.00     0.118 C 
HETATM    2  N   UNL     1     -42.522  57.517 -54.136  1.00  0.00    -0.365 N 
HETATM    3  C   UNL     1     -43.475  58.483 -53.975  1.00  0.00     0.138 A 
HETATM    4  N   UNL     1     -43.786  58.966 -52.726  1.00  0.00    -0.240 N 
HETATM    5  N   UNL     1     -44.748  59.898 -52.717  1.00  0.00    -0.181 NA
HETATM    6  C   UNL     1     -45.039  60.043 -54.012  1.00  0.00     0.160 A 
HETATM    7  C   UNL     1     -44.304  59.164 -54.850  1.00  0.00     0.096 A 
HETATM    8  C   UNL     1     -43.172  58.523 -51.490  1.00  0.00     0.221 C 
HETATM    9  C   UNL     1     -42.584  57.121 -51.694  1.00  0.00     0.066 C 
HETATM   10  H   UNL     1     -41.947  57.543 -54.981  1.00  0.00     0.161 HD
ENDROOT
BRANCH   7  11
HETATM   11  C   UNL     1     -44.467  59.054 -56.292  1.00  0.00     0.261 C 
HETATM   12  N   UNL     1     -45.040  57.865 -56.703  1.00  0.00    -0.323 N 
HETATM   13  H   UNL     1     -45.313  57.236 -55.959  1.00  0.00     0.169 HD
HETATM   14  O   UNL     1     -44.135  59.982 -57.019  1.00  0.00    -0.267 OA
BRANCH  12  15
HETATM   15  C   UNL     1     -45.352  57.467 -58.019  1.00  0.00     0.037 A 
HETATM   16  C   UNL     1     -44.457  56.824 -58.877  1.00  0.00     0.066 A 
HETATM   17  C   UNL     1     -44.849  56.482 -60.170  1.00  0.00     0.067 A 
HETATM   18  C   UNL     1     -46.133  56.757 -60.627  1.00  0.00     0.036 A 
HETATM   19  C   UNL     1     -47.035  57.391 -59.777  1.00  0.00     0.005 A 
HETATM   20  C   UNL     1     -46.645  57.749 -58.482  1.00  0.00     0.029 A 
BRANCH  17  21
HETATM   21  O   UNL     1     -43.929  55.873 -60.973  1.00  0.00    -0.361 OA
HETATM   22  H   UNL     1     -43.057  55.930 -60.553  1.00  0.00     0.217 HD
ENDBRANCH  17  21
ENDBRANCH  12  15
ENDBRANCH   7  11
BRANCH   1  23
HETATM   23  C   UNL     1     -41.247  55.637 -53.195  1.00  0.00    -0.035 A 
HETATM   24  C   UNL     1     -40.881  55.218 -54.484  1.00  0.00     0.012 A 
HETATM   25  C   UNL     1     -40.331  53.949 -54.699  1.00  0.00     0.037 A 
HETATM   26  C   UNL     1     -40.136  53.079 -53.628  1.00  0.00     0.068 A 
HETATM   27  C   UNL     1     -40.521  53.478 -52.347  1.00  0.00     0.037 A 
HETATM   28  C   UNL     1     -41.064  54.748 -52.128  1.00  0.00     0.012 A 
BRANCH  26  29
HETATM   29  O   UNL     1     -39.588  51.829 -53.702  1.00  0.00    -0.356 OA
HETATM   30  C   UNL     1     -40.394  50.816 -54.295  1.00  0.00     0.210 C 
ENDBRANCH  26  29
ENDBRANCH   1  23
BRANCH   8  31
HETATM   31  C   UNL     1     -42.132  59.525 -51.037  1.00  0.00     0.409 C 
HETATM   32  F   UNL     1     -41.542  60.175 -52.065  1.00  0.00    -0.169 F 
HETATM   33  F   UNL     1     -42.624  60.452 -50.191  1.00  0.00    -0.169 F 
HETATM   34  F   UNL     1     -41.137  58.882 -50.370  1.00  0.00    -0.169 F 
ENDBRANCH   8  31
TORSDOF 6
ENDMDL
MODEL 10
REMARK VINA RESULT:      -8.0      3.840      8.252
REMARK  6 active torsions:
REMARK  status: ('A' for Active; 'I' for Inactive)
REMARK    1  A    between atoms: O_2  and  C_3 
REMARK    2  A    between atoms: C_6  and  C_7 
REMARK    3  A    between atoms: C_13  and  C_14 
REMARK       I    between atoms: C_14  and  N_15 
REMARK    4  A    between atoms: N_15  and  C_16 
REMARK    5  A    between atoms: C_18  and  O_19 
REMARK    6  A    between atoms: C_24  and  C_25 
ROOT
HETATM    1  C   UNL     1     -42.625  56.179 -55.565  1.00  0.00     0.118 C 
HETATM    2  N   UNL     1     -43.090  57.141 -54.554  1.00  0.00    -0.365 N 
HETATM    3  C   UNL     1     -43.054  56.809 -53.229  1.00  0.00     0.138 A 
HETATM    4  N   UNL     1     -42.682  55.548 -52.828  1.00  0.00    -0.240 N 
HETATM    5  N   UNL     1     -42.706  55.359 -51.502  1.00  0.00    -0.181 NA
HETATM    6  C   UNL     1     -43.073  56.555 -51.035  1.00  0.00     0.160 A 
HETATM    7  C   UNL     1     -43.339  57.497 -52.062  1.00  0.00     0.096 A 
HETATM    8  C   UNL     1     -42.307  54.471 -53.723  1.00  0.00     0.221 C 
HETATM    9  C   UNL     1     -42.907  54.738 -55.109  1.00  0.00     0.066 C 
HETATM   10  H   UNL     1     -42.845  58.099 -54.818  1.00  0.00     0.161 HD
ENDROOT
BRANCH   7  11
HETATM   11  C   UNL     1     -43.823  58.853 -51.846  1.00  0.00     0.261 C 
HETATM   12  N   UNL     1     -43.339  59.446 -50.696  1.00  0.00    -0.323 N 
HETATM   13  H   UNL     1     -42.680  58.890 -50.165  1.00  0.00     0.169 HD
HETATM   14  O   UNL     1     -44.567  59.375 -52.668  1.00  0.00    -0.267 OA
BRANCH  12  15
HETATM   15  C   UNL     1     -43.597  60.749 -50.223  1.00  0.00     0.037 A 
HETATM   16  C   UNL     1     -42.834  61.870 -50.557  1.00  0.00     0.066 A 
HETATM   17  C   UNL     1     -43.155  63.119 -50.025  1.00  0.00     0.067 A 
HETATM   18  C   UNL     1     -44.239  63.279 -49.171  1.00  0.00     0.036 A 
HETATM   19  C   UNL     1     -45.010  62.168 -48.837  1.00  0.00     0.005 A 
HETATM   20  C   UNL     1     -44.688  60.910 -49.356  1.00  0.00     0.029 A 
BRANCH  17  21
HETATM   21  O   UNL     1     -42.365  64.177 -50.369  1.00  0.00    -0.361 OA
HETATM   22  H   UNL     1     -41.555  63.843 -50.786  1.00  0.00     0.217 HD
ENDBRANCH  17  21
ENDBRANCH  12  15
ENDBRANCH   7  11
BRANCH   1  23
HETATM   23  C   UNL     1     -43.307  56.435 -56.898  1.00  0.00    -0.035 A 
HETATM   24  C   UNL     1     -43.156  55.512 -57.946  1.00  0.00     0.012 A 
HETATM   25  C   UNL     1     -43.851  55.670 -59.150  1.00  0.00     0.037 A 
HETATM   26  C   UNL     1     -44.711  56.751 -59.326  1.00  0.00     0.068 A 
HETATM   27  C   UNL     1     -44.848  57.688 -58.300  1.00  0.00     0.037 A 
HETATM   28  C   UNL     1     -44.161  57.529 -57.093  1.00  0.00     0.012 A 
BRANCH  26  29
HETATM   29  O   UNL     1     -45.462  57.004 -60.440  1.00  0.00    -0.356 OA
HETATM   30  C   UNL     1     -46.506  56.079 -60.727  1.00  0.00     0.210 C 
ENDBRANCH  26  29
ENDBRANCH   1  23
BRANCH   8  31
HETATM   31  C   UNL     1     -40.801  54.327 -53.763  1.00  0.00     0.409 C 
HETATM   32  F   UNL     1     -40.316  53.574 -52.751  1.00  0.00    -0.169 F 
HETATM   33  F   UNL     1     -40.349  53.804 -54.920  1.00  0.00    -0.169 F 
HETATM   34  F   UNL     1     -40.222  55.551 -53.640  1.00  0.00    -0.169 F 
ENDBRANCH   8  31
TORSDOF 6
ENDMDL
