MODEL 1
REMARK VINA RESULT:      -8.3      0.000      0.000
REMARK  5 active torsions:
REMARK  status: ('A' for Active; 'I' for Inactive)
REMARK    1  A    between atoms: C_2  and  C_3 
REMARK    2  A    between atoms: C_3  and  O_4 
REMARK    3  A    between atoms: O_4  and  C_5 
REMARK    4  A    between atoms: C_8  and  C_9 
REMARK    5  A    between atoms: C_15  and  C_16 
ROOT
HETATM    1  C   UNL     1     -42.913  54.160 -52.017  1.00  0.00     0.066 C 
HETATM    2  C   UNL     1     -41.602  54.202 -51.314  1.00  0.00     0.028 A 
HETATM    3  C   UNL     1     -41.259  55.208 -50.447  1.00  0.00     0.133 A 
HETATM    4  N   UNL     1     -40.002  54.948 -50.005  1.00  0.00    -0.261 N 
HETATM    5  H   UNL     1     -39.429  55.475 -49.353  1.00  0.00     0.191 HD
HETATM    6  N   UNL     1     -39.481  53.843 -50.550  1.00  0.00    -0.172 NA
HETATM    7  C   UNL     1     -40.438  53.370 -51.374  1.00  0.00     0.098 A 
HETATM    8  N   UNL     1     -42.076  56.279 -50.189  1.00  0.00    -0.312 N 
HETATM    9  C   UNL     1     -43.390  56.320 -50.747  1.00  0.00     0.224 C 
HETATM   10  O   UNL     1     -44.012  57.354 -50.571  1.00  0.00    -0.273 OA
HETATM   11  C   UNL     1     -43.960  55.065 -51.356  1.00  0.00     0.117 C 
HETATM   12  H   UNL     1     -41.772  57.083 -49.653  1.00  0.00     0.170 HD
ENDROOT
BRANCH   1  13
HETATM   13  C   UNL     1     -42.690  54.516 -53.476  1.00  0.00    -0.049 A 
HETATM   14  C   UNL     1     -43.434  53.820 -54.448  1.00  0.00     0.010 A 
HETATM   15  C   UNL     1     -43.335  54.140 -55.807  1.00  0.00     0.037 A 
HETATM   16  C   UNL     1     -42.495  55.169 -56.220  1.00  0.00     0.069 A 
HETATM   17  C   UNL     1     -41.731  55.848 -55.272  1.00  0.00     0.037 A 
HETATM   18  C   UNL     1     -41.836  55.539 -53.913  1.00  0.00     0.010 A 
BRANCH  16  19
HETATM   19  O   UNL     1     -42.327  55.586 -57.511  1.00  0.00    -0.348 OA
BRANCH  19  20
HETATM   20  C   UNL     1     -43.395  56.352 -58.067  1.00  0.00     0.202 C 
BRANCH  20  21
HETATM   21  C   UNL     1     -43.725  55.755 -59.402  1.00  0.00    -0.011 C 
HETATM   22  C   UNL     1     -44.296  54.557 -59.582  1.00  0.00     0.009 C 
ENDBRANCH  20  21
ENDBRANCH  19  20
ENDBRANCH  16  19
ENDBRANCH   1  13
BRANCH   7  23
HETATM   23  C   UNL     1     -40.172  52.201 -52.214  1.00  0.00    -0.005 A 
HETATM   24  C   UNL     1     -40.245  52.260 -53.611  1.00  0.00     0.014 A 
HETATM   25  C   UNL     1     -39.949  51.134 -54.385  1.00  0.00     0.001 A 
HETATM   26  C   UNL     1     -39.592  49.935 -53.771  1.00  0.00     0.000 A 
HETATM   27  C   UNL     1     -39.537  49.856 -52.381  1.00  0.00     0.001 A 
HETATM   28  C   UNL     1     -39.827  50.982 -51.609  1.00  0.00     0.014 A 
ENDBRANCH   7  23
TORSDOF 5
ENDMDL
MODEL 2
REMARK VINA RESULT:      -8.0      2.221      5.911
REMARK  5 active torsions:
REMARK  status: ('A' for Active; 'I' for Inactive)
REMARK    1  A    between atoms: C_2  and  C_3 
REMARK    2  A    between atoms: C_3  and  O_4 
REMARK    3  A    between atoms: O_4  and  C_5 
REMARK    4  A    between atoms: C_8  and  C_9 
REMARK    5  A    between atoms: C_15  and  C_16 
ROOT
HETATM    1  C   UNL     1     -41.191  56.622 -52.888  1.00  0.00     0.066 C 
HETATM    2  C   UNL     1     -42.649  56.902 -52.997  1.00  0.00     0.028 A 
HETATM    3  C   UNL     1     -43.479  56.939 -51.906  1.00  0.00     0.133 A 
HETATM    4  N   UNL     1     -44.731  57.197 -52.361  1.00  0.00    -0.261 N 
HETATM    5  H   UNL     1     -45.596  57.297 -51.838  1.00  0.00     0.191 HD
HETATM    6  N   UNL     1     -44.784  57.305 -53.693  1.00  0.00    -0.172 NA
HETATM    7  C   UNL     1     -43.519  57.111 -54.115  1.00  0.00     0.098 A 
HETATM    8  N   UNL     1     -43.044  56.680 -50.631  1.00  0.00    -0.312 N 
HETATM    9  C   UNL     1     -41.653  56.468 -50.385  1.00  0.00     0.224 C 
HETATM   10  O   UNL     1     -41.358  56.128 -49.251  1.00  0.00    -0.273 OA
HETATM   11  C   UNL     1     -40.662  56.823 -51.464  1.00  0.00     0.117 C 
HETATM   12  H   UNL     1     -43.676  56.580 -49.846  1.00  0.00     0.170 HD
ENDROOT
BRANCH   1  13
HETATM   13  C   UNL     1     -40.929  55.217 -53.402  1.00  0.00    -0.049 A 
HETATM   14  C   UNL     1     -40.298  55.077 -54.653  1.00  0.00     0.010 A 
HETATM   15  C   UNL     1     -39.960  53.817 -55.160  1.00  0.00     0.037 A 
HETATM   16  C   UNL     1     -40.240  52.672 -54.422  1.00  0.00     0.069 A 
HETATM   17  C   UNL     1     -40.890  52.793 -53.195  1.00  0.00     0.037 A 
HETATM   18  C   UNL     1     -41.219  54.050 -52.679  1.00  0.00     0.010 A 
BRANCH  16  19
HETATM   19  O   UNL     1     -39.944  51.392 -54.800  1.00  0.00    -0.348 OA
BRANCH  19  20
HETATM   20  C   UNL     1     -40.640  50.356 -54.108  1.00  0.00     0.202 C 
BRANCH  20  21
HETATM   21  C   UNL     1     -39.629  49.600 -53.300  1.00  0.00    -0.011 C 
HETATM   22  C   UNL     1     -39.597  49.560 -51.962  1.00  0.00     0.009 C 
ENDBRANCH  20  21
ENDBRANCH  19  20
ENDBRANCH  16  19
ENDBRANCH   1  13
BRANCH   7  23
HETATM   23  C   UNL     1     -43.220  57.071 -55.547  1.00  0.00    -0.005 A 
HETATM   24  C   UNL     1     -43.294  55.886 -56.288  1.00  0.00     0.014 A 
HETATM   25  C   UNL     1     -43.038  55.891 -57.662  1.00  0.00     0.001 A 
HETATM   26  C   UNL     1     -42.689  57.077 -58.307  1.00  0.00     0.000 A 
HETATM   27  C   UNL     1     -42.588  58.259 -57.578  1.00  0.00     0.001 A 
HETATM   28  C   UNL     1     -42.850  58.255 -56.207  1.00  0.00     0.014 A 
ENDBRANCH   7  23
TORSDOF 5
ENDMDL
MODEL 3
REMARK VINA RESULT:      -7.6      2.981      6.586
REMARK  5 active torsions:
REMARK  status: ('A' for Active; 'I' for Inactive)
REMARK    1  A    between atoms: C_2  and  C_3 
REMARK    2  A    between atoms: C_3  and  O_4 
REMARK    3  A    between atoms: O_4  and  C_5 
REMARK    4  A    between atoms: C_8  and  C_9 
REMARK    5  A    between atoms: C_15  and  C_16 
ROOT
HETATM    1  C   UNL     1     -42.359  57.823 -54.642  1.00  0.00     0.066 C 
HETATM    2  C   UNL     1     -43.697  57.999 -55.273  1.00  0.00     0.028 A 
HETATM    3  C   UNL     1     -44.820  58.311 -54.550  1.00  0.00     0.133 A 
HETATM    4  N   UNL     1     -45.856  58.377 -55.424  1.00  0.00    -0.261 N 
HETATM    5  H   UNL     1     -46.834  58.585 -55.247  1.00  0.00     0.191 HD
HETATM    6  N   UNL     1     -45.489  58.098 -56.681  1.00  0.00    -0.172 NA
HETATM    7  C   UNL     1     -44.167  57.846 -56.616  1.00  0.00     0.098 A 
HETATM    8  N   UNL     1     -44.813  58.445 -53.185  1.00  0.00    -0.312 N 
HETATM    9  C   UNL     1     -43.579  58.369 -52.470  1.00  0.00     0.224 C 
HETATM   10  O   UNL     1     -43.666  58.379 -51.253  1.00  0.00    -0.273 OA
HETATM   11  C   UNL     1     -42.287  58.443 -53.242  1.00  0.00     0.117 C 
HETATM   12  H   UNL     1     -45.661  58.546 -52.640  1.00  0.00     0.170 HD
ENDROOT
BRANCH   1  13
HETATM   13  C   UNL     1     -42.023  56.342 -54.629  1.00  0.00    -0.049 A 
HETATM   14  C   UNL     1     -40.666  55.972 -54.572  1.00  0.00     0.010 A 
HETATM   15  C   UNL     1     -40.280  54.630 -54.486  1.00  0.00     0.037 A 
HETATM   16  C   UNL     1     -41.247  53.630 -54.447  1.00  0.00     0.069 A 
HETATM   17  C   UNL     1     -42.594  53.979 -54.531  1.00  0.00     0.037 A 
HETATM   18  C   UNL     1     -42.983  55.320 -54.605  1.00  0.00     0.010 A 
BRANCH  16  19
HETATM   19  O   UNL     1     -40.998  52.290 -54.346  1.00  0.00    -0.348 OA
BRANCH  19  20
HETATM   20  C   UNL     1     -40.082  51.898 -53.324  1.00  0.00     0.202 C 
BRANCH  20  21
HETATM   21  C   UNL     1     -39.474  50.593 -53.745  1.00  0.00    -0.011 C 
HETATM   22  C   UNL     1     -39.942  49.817 -54.732  1.00  0.00     0.009 C 
ENDBRANCH  20  21
ENDBRANCH  19  20
ENDBRANCH  16  19
ENDBRANCH   1  13
BRANCH   7  23
HETATM   23  C   UNL     1     -43.443  57.412 -57.812  1.00  0.00    -0.005 A 
HETATM   24  C   UNL     1     -43.625  56.141 -58.370  1.00  0.00     0.014 A 
HETATM   25  C   UNL     1     -42.945  55.773 -59.534  1.00  0.00     0.001 A 
HETATM   26  C   UNL     1     -42.064  56.665 -60.143  1.00  0.00     0.000 A 
HETATM   27  C   UNL     1     -41.855  57.924 -59.586  1.00  0.00     0.001 A 
HETATM   28  C   UNL     1     -42.539  58.294 -58.427  1.00  0.00     0.014 A 
ENDBRANCH   7  23
TORSDOF 5
ENDMDL
MODEL 4
REMARK VINA RESULT:      -7.6      2.790      6.199
REMARK  5 active torsions:
REMARK  status: ('A' for Active; 'I' for Inactive)
REMARK    1  A    between atoms: C_2  and  C_3 
REMARK    2  A    between atoms: C_3  and  O_4 
REMARK    3  A    between atoms: O_4  and  C_5 
REMARK    4  A    between atoms: C_8  and  C_9 
REMARK    5  A    between atoms: C_15  and  C_16 
ROOT
HETATM    1  C   UNL     1     -40.969  57.914 -53.698  1.00  0.00     0.066 C 
HETATM    2  C   UNL     1     -42.351  58.418 -53.925  1.00  0.00     0.028 A 
HETATM    3  C   UNL     1     -43.105  58.982 -52.928  1.00  0.00     0.133 A 
HETATM    4  N   UNL     1     -44.307  59.310 -53.467  1.00  0.00    -0.261 N 
HETATM    5  H   UNL     1     -45.111  59.746 -53.027  1.00  0.00     0.191 HD
HETATM    6  N   UNL     1     -44.402  58.971 -54.758  1.00  0.00    -0.172 NA
HETATM    7  C   UNL     1     -43.218  58.404 -55.064  1.00  0.00     0.098 A 
HETATM    8  N   UNL     1     -42.666  59.088 -51.632  1.00  0.00    -0.312 N 
HETATM    9  C   UNL     1     -41.331  58.705 -51.302  1.00  0.00     0.224 C 
HETATM   10  O   UNL     1     -41.051  58.717 -50.114  1.00  0.00    -0.273 OA
HETATM   11  C   UNL     1     -40.344  58.476 -52.417  1.00  0.00     0.117 C 
HETATM   12  H   UNL     1     -43.268  59.384 -50.873  1.00  0.00     0.170 HD
ENDROOT
BRANCH   1  13
HETATM   13  C   UNL     1     -41.003  56.395 -53.699  1.00  0.00    -0.049 A 
HETATM   14  C   UNL     1     -40.410  55.721 -54.783  1.00  0.00     0.010 A 
HETATM   15  C   UNL     1     -40.340  54.324 -54.821  1.00  0.00     0.037 A 
HETATM   16  C   UNL     1     -40.855  53.573 -53.769  1.00  0.00     0.069 A 
HETATM   17  C   UNL     1     -41.470  54.226 -52.701  1.00  0.00     0.037 A 
HETATM   18  C   UNL     1     -41.531  55.622 -52.655  1.00  0.00     0.010 A 
BRANCH  16  19
HETATM   19  O   UNL     1     -40.830  52.209 -53.681  1.00  0.00    -0.348 OA
BRANCH  19  20
HETATM   20  C   UNL     1     -39.733  51.647 -52.961  1.00  0.00     0.202 C 
BRANCH  20  21
HETATM   21  C   UNL     1     -39.616  50.211 -53.374  1.00  0.00    -0.011 C 
HETATM   22  C   UNL     1     -39.787  49.761 -54.625  1.00  0.00     0.009 C 
ENDBRANCH  20  21
ENDBRANCH  19  20
ENDBRANCH  16  19
ENDBRANCH   1  13
BRANCH   7  23
HETATM   23  C   UNL     1     -43.001  57.827 -56.391  1.00  0.00    -0.005 A 
HETATM   24  C   UNL     1     -42.429  58.562 -57.436  1.00  0.00     0.014 A 
HETATM   25  C   UNL     1     -42.202  57.968 -58.681  1.00  0.00     0.001 A 
HETATM   26  C   UNL     1     -42.559  56.639 -58.899  1.00  0.00     0.000 A 
HETATM   27  C   UNL     1     -43.151  55.902 -57.877  1.00  0.00     0.001 A 
HETATM   28  C   UNL     1     -43.372  56.493 -56.631  1.00  0.00     0.014 A 
ENDBRANCH   7  23
TORSDOF 5
ENDMDL
MODEL 5
REMARK VINA RESULT:      -7.3      3.680      7.339
REMARK  5 active torsions:
REMARK  status: ('A' for Active; 'I' for Inactive)
REMARK    1  A    between atoms: C_2  and  C_3 
REMARK    2  A    between atoms: C_3  and  O_4 
REMARK    3  A    between atoms: O_4  and  C_5 
REMARK    4  A    between atoms: C_8  and  C_9 
REMARK    5  A    between atoms: C_15  and  C_16 
ROOT
HETATM    1  C   UNL     1     -43.598  56.887 -56.725  1.00  0.00     0.066 C 
HETATM    2  C   UNL     1     -42.846  58.172 -56.716  1.00  0.00     0.028 A 
HETATM    3  C   UNL     1     -42.080  58.589 -57.774  1.00  0.00     0.133 A 
HETATM    4  N   UNL     1     -41.525  59.778 -57.428  1.00  0.00    -0.261 N 
HETATM    5  H   UNL     1     -40.905  60.377 -57.963  1.00  0.00     0.191 HD
HETATM    6  N   UNL     1     -41.857  60.159 -56.189  1.00  0.00    -0.172 NA
HETATM    7  C   UNL     1     -42.656  59.182 -55.719  1.00  0.00     0.098 A 
HETATM    8  N   UNL     1     -41.910  57.838 -58.910  1.00  0.00    -0.312 N 
HETATM    9  C   UNL     1     -42.635  56.618 -59.071  1.00  0.00     0.224 C 
HETATM   10  O   UNL     1     -42.344  55.950 -60.049  1.00  0.00    -0.273 OA
HETATM   11  C   UNL     1     -43.784  56.329 -58.140  1.00  0.00     0.117 C 
HETATM   12  H   UNL     1     -41.245  58.084 -59.634  1.00  0.00     0.170 HD
ENDROOT
BRANCH   1  13
HETATM   13  C   UNL     1     -42.885  55.904 -55.812  1.00  0.00    -0.049 A 
HETATM   14  C   UNL     1     -43.575  55.436 -54.678  1.00  0.00     0.010 A 
HETATM   15  C   UNL     1     -43.012  54.476 -53.829  1.00  0.00     0.037 A 
HETATM   16  C   UNL     1     -41.750  53.960 -54.103  1.00  0.00     0.069 A 
HETATM   17  C   UNL     1     -41.043  54.435 -55.207  1.00  0.00     0.037 A 
HETATM   18  C   UNL     1     -41.607  55.385 -56.064  1.00  0.00     0.010 A 
BRANCH  16  19
HETATM   19  O   UNL     1     -41.103  53.010 -53.363  1.00  0.00    -0.348 OA
BRANCH  19  20
HETATM   20  C   UNL     1     -40.060  52.298 -54.029  1.00  0.00     0.202 C 
BRANCH  20  21
HETATM   21  C   UNL     1     -40.535  50.890 -54.227  1.00  0.00    -0.011 C 
HETATM   22  C   UNL     1     -39.758  49.872 -54.620  1.00  0.00     0.009 C 
ENDBRANCH  20  21
ENDBRANCH  19  20
ENDBRANCH  16  19
ENDBRANCH   1  13
BRANCH   7  23
HETATM   23  C   UNL     1     -43.140  59.228 -54.338  1.00  0.00    -0.005 A 
HETATM   24  C   UNL     1     -42.266  59.334 -53.249  1.00  0.00     0.014 A 
HETATM   25  C   UNL     1     -42.763  59.413 -51.945  1.00  0.00     0.001 A 
HETATM   26  C   UNL     1     -44.137  59.373 -51.715  1.00  0.00     0.000 A 
HETATM   27  C   UNL     1     -45.017  59.244 -52.786  1.00  0.00     0.001 A 
HETATM   28  C   UNL     1     -44.521  59.171 -54.089  1.00  0.00     0.014 A 
ENDBRANCH   7  23
TORSDOF 5
ENDMDL
MODEL 6
REMARK VINA RESULT:      -7.2      2.894      3.809
REMARK  5 active torsions:
REMARK  status: ('A' for Active; 'I' for Inactive)
REMARK    1  A    between atoms: C_2  and  C_3 
REMARK    2  A    between atoms: C_3  and  O_4 
REMARK    3  A    between atoms: O_4  and  C_5 
REMARK    4  A    between atoms: C_8  and  C_9 
REMARK    5  A    between atoms: C_15  and  C_16 
ROOT
HETATM    1  C   UNL     1     -43.860  57.147 -53.245  1.00  0.00     0.066 C 
HETATM    2  C   UNL     1     -42.789  57.021 -52.219  1.00  0.00     0.028 A 
HETATM    3  C   UNL     1     -42.690  57.868 -51.145  1.00  0.00     0.133 A 
HETATM    4  N   UNL     1     -41.602  57.487 -50.429  1.00  0.00    -0.261 N 
HETATM    5  H   UNL     1     -41.225  57.882 -49.573  1.00  0.00     0.191 HD
HETATM    6  N   UNL     1     -40.957  56.453 -50.982  1.00  0.00    -0.172 NA
HETATM    7  C   UNL     1     -41.656  56.155 -52.095  1.00  0.00     0.098 A 
HETATM    8  N   UNL     1     -43.543  58.925 -50.950  1.00  0.00    -0.312 N 
HETATM    9  C   UNL     1     -44.655  59.111 -51.826  1.00  0.00     0.224 C 
HETATM   10  O   UNL     1     -45.298  60.135 -51.662  1.00  0.00    -0.273 OA
HETATM   11  C   UNL     1     -45.043  57.989 -52.755  1.00  0.00     0.117 C 
HETATM   12  H   UNL     1     -43.393  59.624 -50.233  1.00  0.00     0.170 HD
ENDROOT
BRANCH   1  13
HETATM   13  C   UNL     1     -43.247  57.707 -54.516  1.00  0.00    -0.049 A 
HETATM   14  C   UNL     1     -43.435  56.990 -55.713  1.00  0.00     0.010 A 
HETATM   15  C   UNL     1     -42.962  57.479 -56.936  1.00  0.00     0.037 A 
HETATM   16  C   UNL     1     -42.296  58.699 -56.987  1.00  0.00     0.069 A 
HETATM   17  C   UNL     1     -42.077  59.407 -55.806  1.00  0.00     0.037 A 
HETATM   18  C   UNL     1     -42.559  58.928 -54.584  1.00  0.00     0.010 A 
BRANCH  16  19
HETATM   19  O   UNL     1     -41.805  59.288 -58.118  1.00  0.00    -0.348 OA
BRANCH  19  20
HETATM   20  C   UNL     1     -42.604  60.327 -58.682  1.00  0.00     0.202 C 
BRANCH  20  21
HETATM   21  C   UNL     1     -41.673  61.408 -59.144  1.00  0.00    -0.011 C 
HETATM   22  C   UNL     1     -40.654  61.895 -58.424  1.00  0.00     0.009 C 
ENDBRANCH  20  21
ENDBRANCH  19  20
ENDBRANCH  16  19
ENDBRANCH   1  13
BRANCH   7  23
HETATM   23  C   UNL     1     -41.176  55.115 -53.007  1.00  0.00    -0.005 A 
HETATM   24  C   UNL     1     -40.563  55.423 -54.227  1.00  0.00     0.014 A 
HETATM   25  C   UNL     1     -40.083  54.405 -55.057  1.00  0.00     0.001 A 
HETATM   26  C   UNL     1     -40.224  53.070 -54.683  1.00  0.00     0.000 A 
HETATM   27  C   UNL     1     -40.853  52.748 -53.483  1.00  0.00     0.001 A 
HETATM   28  C   UNL     1     -41.327  53.764 -52.651  1.00  0.00     0.014 A 
ENDBRANCH   7  23
TORSDOF 5
ENDMDL
MODEL 7
REMARK VINA RESULT:      -7.2      3.476      6.756
REMARK  5 active torsions:
REMARK  status: ('A' for Active; 'I' for Inactive)
REMARK    1  A    between atoms: C_2  and  C_3 
REMARK    2  A    between atoms: C_3  and  O_4 
REMARK    3  A    between atoms: O_4  and  C_5 
REMARK    4  A    between atoms: C_8  and  C_9 
REMARK    5  A    between atoms: C_15  and  C_16 
ROOT
HETATM    1  C   UNL     1     -41.918  57.536 -53.882  1.00  0.00     0.066 C 
HETATM    2  C   UNL     1     -42.687  56.264 -53.790  1.00  0.00     0.028 A 
HETATM    3  C   UNL     1     -43.737  55.974 -54.623  1.00  0.00     0.133 A 
HETATM    4  N   UNL     1     -44.218  54.758 -54.257  1.00  0.00    -0.261 N 
HETATM    5  H   UNL     1     -44.987  54.227 -54.651  1.00  0.00     0.191 HD
HETATM    6  N   UNL     1     -43.564  54.239 -53.211  1.00  0.00    -0.172 NA
HETATM    7  C   UNL     1     -42.626  55.153 -52.891  1.00  0.00     0.098 A 
HETATM    8  N   UNL     1     -44.193  56.846 -55.579  1.00  0.00    -0.312 N 
HETATM    9  C   UNL     1     -43.495  58.070 -55.813  1.00  0.00     0.224 C 
HETATM   10  O   UNL     1     -44.025  58.845 -56.593  1.00  0.00    -0.273 OA
HETATM   11  C   UNL     1     -42.119  58.245 -55.225  1.00  0.00     0.117 C 
HETATM   12  H   UNL     1     -45.044  56.687 -56.103  1.00  0.00     0.170 HD
ENDROOT
BRANCH   1  13
HETATM   13  C   UNL     1     -42.303  58.418 -52.707  1.00  0.00    -0.049 A 
HETATM   14  C   UNL     1     -41.272  59.061 -51.996  1.00  0.00     0.010 A 
HETATM   15  C   UNL     1     -41.551  59.945 -50.948  1.00  0.00     0.037 A 
HETATM   16  C   UNL     1     -42.871  60.209 -50.594  1.00  0.00     0.069 A 
HETATM   17  C   UNL     1     -43.902  59.558 -51.270  1.00  0.00     0.037 A 
HETATM   18  C   UNL     1     -43.627  58.684 -52.326  1.00  0.00     0.010 A 
BRANCH  16  19
HETATM   19  O   UNL     1     -43.271  61.062 -49.604  1.00  0.00    -0.348 OA
BRANCH  19  20
HETATM   20  C   UNL     1     -44.674  61.107 -49.344  1.00  0.00     0.202 C 
BRANCH  20  21
HETATM   21  C   UNL     1     -44.860  61.767 -48.011  1.00  0.00    -0.011 C 
HETATM   22  C   UNL     1     -44.854  61.126 -46.834  1.00  0.00     0.009 C 
ENDBRANCH  20  21
ENDBRANCH  19  20
ENDBRANCH  16  19
ENDBRANCH   1  13
BRANCH   7  23
HETATM   23  C   UNL     1     -41.773  54.950 -51.718  1.00  0.00    -0.005 A 
HETATM   24  C   UNL     1     -41.981  55.645 -50.521  1.00  0.00     0.014 A 
HETATM   25  C   UNL     1     -41.170  55.400 -49.409  1.00  0.00     0.001 A 
HETATM   26  C   UNL     1     -40.135  54.470 -49.486  1.00  0.00     0.000 A 
HETATM   27  C   UNL     1     -39.902  53.788 -50.678  1.00  0.00     0.001 A 
HETATM   28  C   UNL     1     -40.715  54.028 -51.787  1.00  0.00     0.014 A 
ENDBRANCH   7  23
TORSDOF 5
ENDMDL
MODEL 8
REMARK VINA RESULT:      -7.0     14.487     17.733
REMARK  5 active torsions:
REMARK  status: ('A' for Active; 'I' for Inactive)
REMARK    1  A    between atoms: C_2  and  C_3 
REMARK    2  A    between atoms: C_3  and  O_4 
REMARK    3  A    between atoms: O_4  and  C_5 
REMARK    4  A    between atoms: C_8  and  C_9 
REMARK    5  A    between atoms: C_15  and  C_16 
ROOT
HETATM    1  C   UNL     1     -37.211  38.859 -58.655  1.00  0.00     0.066 C 
HETATM    2  C   UNL     1     -37.215  40.268 -59.138  1.00  0.00     0.028 A 
HETATM    3  C   UNL     1     -37.392  40.597 -60.457  1.00  0.00     0.133 A 
HETATM    4  N   UNL     1     -37.322  41.949 -60.548  1.00  0.00    -0.261 N 
HETATM    5  H   UNL     1     -37.409  42.543 -61.367  1.00  0.00     0.191 HD
HETATM    6  N   UNL     1     -37.080  42.533 -59.369  1.00  0.00    -0.172 NA
HETATM    7  C   UNL     1     -36.993  41.521 -58.484  1.00  0.00     0.098 A 
HETATM    8  N   UNL     1     -37.537  39.657 -61.446  1.00  0.00    -0.312 N 
HETATM    9  C   UNL     1     -37.621  38.273 -61.103  1.00  0.00     0.224 C 
HETATM   10  O   UNL     1     -37.631  37.491 -62.040  1.00  0.00    -0.273 OA
HETATM   11  C   UNL     1     -37.847  37.894 -59.662  1.00  0.00     0.117 C 
HETATM   12  H   UNL     1     -37.537  39.893 -62.431  1.00  0.00     0.170 HD
ENDROOT
BRANCH   1  13
HETATM   13  C   UNL     1     -35.783  38.470 -58.315  1.00  0.00    -0.049 A 
HETATM   14  C   UNL     1     -35.390  38.512 -56.963  1.00  0.00     0.010 A 
HETATM   15  C   UNL     1     -34.114  38.101 -56.563  1.00  0.00     0.037 A 
HETATM   16  C   UNL     1     -33.207  37.631 -57.507  1.00  0.00     0.069 A 
HETATM   17  C   UNL     1     -33.572  37.610 -58.853  1.00  0.00     0.037 A 
HETATM   18  C   UNL     1     -34.850  38.009 -59.255  1.00  0.00     0.010 A 
BRANCH  16  19
HETATM   19  O   UNL     1     -31.943  37.186 -57.240  1.00  0.00    -0.348 OA
BRANCH  19  20
HETATM   20  C   UNL     1     -31.459  37.429 -55.919  1.00  0.00     0.202 C 
BRANCH  20  21
HETATM   21  C   UNL     1     -30.213  38.254 -56.044  1.00  0.00    -0.011 C 
HETATM   22  C   UNL     1     -30.160  39.476 -56.590  1.00  0.00     0.009 C 
ENDBRANCH  20  21
ENDBRANCH  19  20
ENDBRANCH  16  19
ENDBRANCH   1  13
BRANCH   7  23
HETATM   23  C   UNL     1     -36.642  41.794 -57.089  1.00  0.00    -0.005 A 
HETATM   24  C   UNL     1     -37.543  41.573 -56.040  1.00  0.00     0.014 A 
HETATM   25  C   UNL     1     -37.162  41.810 -54.716  1.00  0.00     0.001 A 
HETATM   26  C   UNL     1     -35.883  42.283 -54.427  1.00  0.00     0.000 A 
HETATM   27  C   UNL     1     -34.985  42.529 -55.462  1.00  0.00     0.001 A 
HETATM   28  C   UNL     1     -35.362  42.287 -56.784  1.00  0.00     0.014 A 
ENDBRANCH   7  23
TORSDOF 5
ENDMDL
MODEL 9
REMARK VINA RESULT:      -7.0      2.669      5.576
REMARK  5 active torsions:
REMARK  status: ('A' for Active; 'I' for Inactive)
REMARK    1  A    between atoms: C_2  and  C_3 
REMARK    2  A    between atoms: C_3  and  O_4 
REMARK    3  A    between atoms: O_4  and  C_5 
REMARK    4  A    between atoms: C_8  and  C_9 
REMARK    5  A    between atoms: C_15  and  C_16 
ROOT
HETATM    1  C   UNL     1     -41.208  55.885 -54.395  1.00  0.00     0.066 C 
HETATM    2  C   UNL     1     -42.095  55.592 -53.235  1.00  0.00     0.028 A 
HETATM    3  C   UNL     1     -42.218  54.337 -52.696  1.00  0.00     0.133 A 
HETATM    4  N   UNL     1     -43.111  54.421 -51.678  1.00  0.00    -0.261 N 
HETATM    5  H   UNL     1     -43.445  53.693 -51.055  1.00  0.00     0.191 HD
HETATM    6  N   UNL     1     -43.609  55.655 -51.529  1.00  0.00    -0.172 NA
HETATM    7  C   UNL     1     -43.014  56.394 -52.486  1.00  0.00     0.098 A 
HETATM    8  N   UNL     1     -41.568  53.242 -53.206  1.00  0.00    -0.312 N 
HETATM    9  C   UNL     1     -40.634  53.403 -54.273  1.00  0.00     0.224 C 
HETATM   10  O   UNL     1     -40.186  52.374 -54.751  1.00  0.00    -0.273 OA
HETATM   11  C   UNL     1     -40.158  54.791 -54.618  1.00  0.00     0.117 C 
HETATM   12  H   UNL     1     -41.758  52.297 -52.892  1.00  0.00     0.170 HD
ENDROOT
BRANCH   1  13
HETATM   13  C   UNL     1     -42.076  56.104 -55.623  1.00  0.00    -0.049 A 
HETATM   14  C   UNL     1     -42.319  57.428 -56.033  1.00  0.00     0.010 A 
HETATM   15  C   UNL     1     -43.048  57.708 -57.194  1.00  0.00     0.037 A 
HETATM   16  C   UNL     1     -43.544  56.667 -57.972  1.00  0.00     0.069 A 
HETATM   17  C   UNL     1     -43.335  55.351 -57.563  1.00  0.00     0.037 A 
HETATM   18  C   UNL     1     -42.597  55.067 -56.410  1.00  0.00     0.010 A 
BRANCH  16  19
HETATM   19  O   UNL     1     -44.252  56.811 -59.132  1.00  0.00    -0.348 OA
BRANCH  19  20
HETATM   20  C   UNL     1     -44.182  55.721 -60.050  1.00  0.00     0.202 C 
BRANCH  20  21
HETATM   21  C   UNL     1     -45.574  55.458 -60.540  1.00  0.00    -0.011 C 
HETATM   22  C   UNL     1     -46.635  56.230 -60.272  1.00  0.00     0.009 C 
ENDBRANCH  20  21
ENDBRANCH  19  20
ENDBRANCH  16  19
ENDBRANCH   1  13
BRANCH   7  23
HETATM   23  C   UNL     1     -43.396  57.795 -52.675  1.00  0.00    -0.005 A 
HETATM   24  C   UNL     1     -42.510  58.847 -52.415  1.00  0.00     0.014 A 
HETATM   25  C   UNL     1     -42.895  60.171 -52.642  1.00  0.00     0.001 A 
HETATM   26  C   UNL     1     -44.174  60.459 -53.116  1.00  0.00     0.000 A 
HETATM   27  C   UNL     1     -45.074  59.423 -53.356  1.00  0.00     0.001 A 
HETATM   28  C   UNL     1     -44.687  58.100 -53.136  1.00  0.00     0.014 A 
ENDBRANCH   7  23
TORSDOF 5
ENDMDL
MODEL 10
REMARK VINA RESULT:      -7.0     14.425     17.435
REMARK  5 active torsions:
REMARK  status: ('A' for Active; 'I' for Inactive)
REMARK    1  A    between atoms: C_2  and  C_3 
REMARK    2  A    between atoms: C_3  and  O_4 
REMARK    3  A    between atoms: O_4  and  C_5 
REMARK    4  A    between atoms: C_8  and  C_9 
REMARK    5  A    between atoms: C_15  and  C_16 
ROOT
HETATM    1  C   UNL     1     -35.098  39.218 -54.599  1.00  0.00     0.066 C 
HETATM    2  C   UNL     1     -35.442  40.500 -53.925  1.00  0.00     0.028 A 
HETATM    3  C   UNL     1     -36.265  41.437 -54.493  1.00  0.00     0.133 A 
HETATM    4  N   UNL     1     -36.349  42.479 -53.628  1.00  0.00    -0.261 N 
HETATM    5  H   UNL     1     -36.869  43.346 -53.715  1.00  0.00     0.191 HD
HETATM    6  N   UNL     1     -35.605  42.298 -52.530  1.00  0.00    -0.172 NA
HETATM    7  C   UNL     1     -35.022  41.094 -52.692  1.00  0.00     0.098 A 
HETATM    8  N   UNL     1     -36.805  41.291 -55.746  1.00  0.00    -0.312 N 
HETATM    9  C   UNL     1     -36.608  40.075 -56.467  1.00  0.00     0.224 C 
HETATM   10  O   UNL     1     -37.017  40.064 -57.617  1.00  0.00    -0.273 OA
HETATM   11  C   UNL     1     -36.072  38.873 -55.732  1.00  0.00     0.117 C 
HETATM   12  H   UNL     1     -37.305  42.036 -56.217  1.00  0.00     0.170 HD
ENDROOT
BRANCH   1  13
HETATM   13  C   UNL     1     -33.661  39.299 -55.086  1.00  0.00    -0.049 A 
HETATM   14  C   UNL     1     -32.725  38.403 -54.535  1.00  0.00     0.010 A 
HETATM   15  C   UNL     1     -31.400  38.369 -54.983  1.00  0.00     0.037 A 
HETATM   16  C   UNL     1     -30.987  39.226 -55.998  1.00  0.00     0.069 A 
HETATM   17  C   UNL     1     -31.895  40.138 -56.533  1.00  0.00     0.037 A 
HETATM   18  C   UNL     1     -33.223  40.167 -56.096  1.00  0.00     0.010 A 
BRANCH  16  19
HETATM   19  O   UNL     1     -29.729  39.276 -56.532  1.00  0.00    -0.348 OA
BRANCH  19  20
HETATM   20  C   UNL     1     -29.383  38.214 -57.421  1.00  0.00     0.202 C 
BRANCH  20  21
HETATM   21  C   UNL     1     -28.000  37.762 -57.060  1.00  0.00    -0.011 C 
HETATM   22  C   UNL     1     -27.515  37.713 -55.811  1.00  0.00     0.009 C 
ENDBRANCH  20  21
ENDBRANCH  19  20
ENDBRANCH  16  19
ENDBRANCH   1  13
BRANCH   7  23
HETATM   23  C   UNL     1     -34.055  40.608 -51.707  1.00  0.00    -0.005 A 
HETATM   24  C   UNL     1     -34.455  39.971 -50.526  1.00  0.00     0.014 A 
HETATM   25  C   UNL     1     -33.504  39.487 -49.623  1.00  0.00     0.001 A 
HETATM   26  C   UNL     1     -32.144  39.646 -49.884  1.00  0.00     0.000 A 
HETATM   27  C   UNL     1     -31.732  40.298 -51.043  1.00  0.00     0.001 A 
HETATM   28  C   UNL     1     -32.681  40.777 -51.948  1.00  0.00     0.014 A 
ENDBRANCH   7  23
TORSDOF 5
ENDMDL
