MODEL 1
REMARK VINA RESULT:      -8.3      0.000      0.000
REMARK  5 active torsions:
REMARK  status: ('A' for Active; 'I' for Inactive)
REMARK    1  A    between atoms: C_2  and  O_3 
REMARK    2  A    between atoms: C_2  and  C_4 
REMARK    3  A    between atoms: C_4  and  N_5 
REMARK       I    between atoms: N_5  and  C_6 
REMARK    4  A    between atoms: C_6  and  C_7 
REMARK    5  A    between atoms: C_15  and  C_16 
ROOT
HETATM    1  C   UNL     1     -42.245  56.379 -55.521  1.00  0.00     0.046 A 
HETATM    2  C   UNL     1     -41.906  57.449 -54.663  1.00  0.00     0.008 A 
HETATM    3  C   UNL     1     -41.158  57.108 -53.523  1.00  0.00     0.068 A 
HETATM    4  C   UNL     1     -40.780  58.113 -52.642  1.00  0.00     0.032 A 
HETATM    5  C   UNL     1     -41.118  59.451 -52.855  1.00  0.00     0.002 A 
HETATM    6  C   UNL     1     -41.852  59.801 -53.979  1.00  0.00     0.001 A 
HETATM    7  C   UNL     1     -42.242  58.811 -54.878  1.00  0.00     0.015 A 
HETATM    8  N   UNL     1     -40.783  55.848 -53.242  1.00  0.00    -0.248 NA
HETATM    9  C   UNL     1     -41.141  54.831 -54.063  1.00  0.00     0.068 A 
HETATM   10  C   UNL     1     -41.870  55.067 -55.216  1.00  0.00     0.050 A 
ENDROOT
BRANCH   1  11
HETATM   11  C   UNL     1     -43.029  56.593 -56.763  1.00  0.00     0.252 C 
HETATM   12  N   UNL     1     -42.443  56.113 -57.914  1.00  0.00    -0.354 N 
HETATM   13  H   UNL     1     -41.491  55.772 -57.890  1.00  0.00     0.162 HD
HETATM   14  O   UNL     1     -44.112  57.161 -56.734  1.00  0.00    -0.268 OA
BRANCH  12  15
HETATM   15  C   UNL     1     -43.091  56.240 -59.207  1.00  0.00     0.154 C 
BRANCH  15  16
HETATM   16  C   UNL     1     -42.325  57.112 -60.214  1.00  0.00     0.132 C 
HETATM   17  C   UNL     1     -42.147  58.543 -59.723  1.00  0.00     0.041 C 
BRANCH  16  18
HETATM   18  O   UNL     1     -41.028  56.543 -60.412  1.00  0.00    -0.394 OA
HETATM   19  H   UNL     1     -40.522  56.694 -59.595  1.00  0.00     0.210 HD
ENDBRANCH  16  18
ENDBRANCH  15  16
ENDBRANCH  12  15
ENDBRANCH   1  11
BRANCH   9  20
HETATM   20  C   UNL     1     -40.689  53.485 -53.650  1.00  0.00    -0.007 A 
HETATM   21  C   UNL     1     -40.325  53.187 -52.323  1.00  0.00     0.015 A 
HETATM   22  C   UNL     1     -39.909  51.902 -51.951  1.00  0.00     0.024 A 
HETATM   23  C   UNL     1     -39.844  50.891 -52.905  1.00  0.00     0.034 A 
HETATM   24 CL   UNL     1     -39.333  49.314 -52.447  1.00  0.00    -0.084 Cl
HETATM   25  C   UNL     1     -40.184  51.154 -54.225  1.00  0.00     0.024 A 
HETATM   26  C   UNL     1     -40.601  52.439 -54.592  1.00  0.00     0.015 A 
ENDBRANCH   9  20
TORSDOF 5
ENDMDL
MODEL 2
REMARK VINA RESULT:      -8.2      2.068      2.661
REMARK  5 active torsions:
REMARK  status: ('A' for Active; 'I' for Inactive)
REMARK    1  A    between atoms: C_2  and  O_3 
REMARK    2  A    between atoms: C_2  and  C_4 
REMARK    3  A    between atoms: C_4  and  N_5 
REMARK       I    between atoms: N_5  and  C_6 
REMARK    4  A    between atoms: C_6  and  C_7 
REMARK    5  A    between atoms: C_15  and  C_16 
ROOT
HETATM    1  C   UNL     1     -42.988  56.220 -56.347  1.00  0.00     0.046 A 
HETATM    2  C   UNL     1     -43.745  57.086 -55.527  1.00  0.00     0.008 A 
HETATM    3  C   UNL     1     -43.673  56.840 -54.145  1.00  0.00     0.068 A 
HETATM    4  C   UNL     1     -44.383  57.662 -53.279  1.00  0.00     0.032 A 
HETATM    5  C   UNL     1     -45.165  58.723 -53.738  1.00  0.00     0.002 A 
HETATM    6  C   UNL     1     -45.242  58.978 -55.099  1.00  0.00     0.001 A 
HETATM    7  C   UNL     1     -44.536  58.169 -55.988  1.00  0.00     0.015 A 
HETATM    8  N   UNL     1     -42.940  55.846 -53.614  1.00  0.00    -0.248 NA
HETATM    9  C   UNL     1     -42.242  55.009 -54.419  1.00  0.00     0.068 A 
HETATM   10  C   UNL     1     -42.242  55.175 -55.794  1.00  0.00     0.050 A 
ENDROOT
BRANCH   1  11
HETATM   11  C   UNL     1     -42.968  56.364 -57.824  1.00  0.00     0.252 C 
HETATM   12  N   UNL     1     -43.704  55.425 -58.513  1.00  0.00    -0.354 N 
HETATM   13  H   UNL     1     -44.100  54.634 -58.021  1.00  0.00     0.162 HD
HETATM   14  O   UNL     1     -42.331  57.260 -58.361  1.00  0.00    -0.268 OA
BRANCH  12  15
HETATM   15  C   UNL     1     -43.788  55.438 -59.962  1.00  0.00     0.154 C 
BRANCH  15  16
HETATM   16  C   UNL     1     -45.161  55.030 -60.519  1.00  0.00     0.132 C 
HETATM   17  C   UNL     1     -46.248  56.042 -60.179  1.00  0.00     0.041 C 
BRANCH  16  18
HETATM   18  O   UNL     1     -45.064  54.941 -61.943  1.00  0.00    -0.394 OA
HETATM   19  H   UNL     1     -44.341  54.320 -62.142  1.00  0.00     0.210 HD
ENDBRANCH  16  18
ENDBRANCH  15  16
ENDBRANCH  12  15
ENDBRANCH   1  11
BRANCH   9  20
HETATM   20  C   UNL     1     -41.484  53.942 -53.731  1.00  0.00    -0.007 A 
HETATM   21  C   UNL     1     -40.892  52.870 -54.426  1.00  0.00     0.015 A 
HETATM   22  C   UNL     1     -40.170  51.874 -53.756  1.00  0.00     0.024 A 
HETATM   23  C   UNL     1     -40.032  51.931 -52.372  1.00  0.00     0.034 A 
HETATM   24 CL   UNL     1     -39.145  50.708 -51.550  1.00  0.00    -0.084 Cl
HETATM   25  C   UNL     1     -40.614  52.968 -51.654  1.00  0.00     0.024 A 
HETATM   26  C   UNL     1     -41.333  53.961 -52.329  1.00  0.00     0.015 A 
ENDBRANCH   9  20
TORSDOF 5
ENDMDL
MODEL 3
REMARK VINA RESULT:      -8.1      2.403      4.926
REMARK  5 active torsions:
REMARK  status: ('A' for Active; 'I' for Inactive)
REMARK    1  A    between atoms: C_2  and  O_3 
REMARK    2  A    between atoms: C_2  and  C_4 
REMARK    3  A    between atoms: C_4  and  N_5 
REMARK       I    between atoms: N_5  and  C_6 
REMARK    4  A    between atoms: C_6  and  C_7 
REMARK    5  A    between atoms: C_15  and  C_16 
ROOT
HETATM    1  C   UNL     1     -41.498  57.209 -54.050  1.00  0.00     0.046 A 
HETATM    2  C   UNL     1     -42.109  57.010 -55.307  1.00  0.00     0.008 A 
HETATM    3  C   UNL     1     -42.202  55.675 -55.740  1.00  0.00     0.068 A 
HETATM    4  C   UNL     1     -42.803  55.406 -56.963  1.00  0.00     0.032 A 
HETATM    5  C   UNL     1     -43.318  56.418 -57.775  1.00  0.00     0.002 A 
HETATM    6  C   UNL     1     -43.236  57.739 -57.358  1.00  0.00     0.001 A 
HETATM    7  C   UNL     1     -42.640  58.034 -56.133  1.00  0.00     0.015 A 
HETATM    8  N   UNL     1     -41.740  54.638 -55.021  1.00  0.00    -0.248 NA
HETATM    9  C   UNL     1     -41.133  54.852 -53.829  1.00  0.00     0.068 A 
HETATM   10  C   UNL     1     -41.002  56.129 -53.313  1.00  0.00     0.050 A 
ENDROOT
BRANCH   1  11
HETATM   11  C   UNL     1     -41.336  58.564 -53.467  1.00  0.00     0.252 C 
HETATM   12  N   UNL     1     -42.448  59.059 -52.821  1.00  0.00    -0.354 N 
HETATM   13  H   UNL     1     -43.328  58.564 -52.880  1.00  0.00     0.162 HD
HETATM   14  O   UNL     1     -40.280  59.173 -53.574  1.00  0.00    -0.268 OA
BRANCH  12  15
HETATM   15  C   UNL     1     -42.442  60.368 -52.193  1.00  0.00     0.154 C 
BRANCH  15  16
HETATM   16  C   UNL     1     -42.275  60.336 -50.666  1.00  0.00     0.132 C 
HETATM   17  C   UNL     1     -43.417  61.040 -49.944  1.00  0.00     0.041 C 
BRANCH  16  18
HETATM   18  O   UNL     1     -42.253  58.971 -50.241  1.00  0.00    -0.394 OA
HETATM   19  H   UNL     1     -41.408  58.828 -49.780  1.00  0.00     0.210 HD
ENDBRANCH  16  18
ENDBRANCH  15  16
ENDBRANCH  12  15
ENDBRANCH   1  11
BRANCH   9  20
HETATM   20  C   UNL     1     -40.648  53.641 -53.131  1.00  0.00    -0.007 A 
HETATM   21  C   UNL     1     -40.598  53.551 -51.726  1.00  0.00     0.015 A 
HETATM   22  C   UNL     1     -40.144  52.391 -51.085  1.00  0.00     0.024 A 
HETATM   23  C   UNL     1     -39.727  51.299 -51.840  1.00  0.00     0.034 A 
HETATM   24 CL   UNL     1     -39.172  49.875 -51.051  1.00  0.00    -0.084 Cl
HETATM   25  C   UNL     1     -39.754  51.359 -53.227  1.00  0.00     0.024 A 
HETATM   26  C   UNL     1     -40.208  52.520 -53.863  1.00  0.00     0.015 A 
ENDBRANCH   9  20
TORSDOF 5
ENDMDL
MODEL 4
REMARK VINA RESULT:      -7.6      1.688      2.074
REMARK  5 active torsions:
REMARK  status: ('A' for Active; 'I' for Inactive)
REMARK    1  A    between atoms: C_2  and  O_3 
REMARK    2  A    between atoms: C_2  and  C_4 
REMARK    3  A    between atoms: C_4  and  N_5 
REMARK       I    between atoms: N_5  and  C_6 
REMARK    4  A    between atoms: C_6  and  C_7 
REMARK    5  A    between atoms: C_15  and  C_16 
ROOT
HETATM    1  C   UNL     1     -41.966  57.236 -54.134  1.00  0.00     0.046 A 
HETATM    2  C   UNL     1     -41.803  57.953 -52.927  1.00  0.00     0.008 A 
HETATM    3  C   UNL     1     -41.244  57.233 -51.857  1.00  0.00     0.068 A 
HETATM    4  C   UNL     1     -41.045  57.881 -50.644  1.00  0.00     0.032 A 
HETATM    5  C   UNL     1     -41.381  59.222 -50.456  1.00  0.00     0.002 A 
HETATM    6  C   UNL     1     -41.930  59.944 -51.505  1.00  0.00     0.001 A 
HETATM    7  C   UNL     1     -42.138  59.318 -52.732  1.00  0.00     0.015 A 
HETATM    8  N   UNL     1     -40.883  55.942 -51.951  1.00  0.00    -0.248 NA
HETATM    9  C   UNL     1     -41.072  55.264 -53.108  1.00  0.00     0.068 A 
HETATM   10  C   UNL     1     -41.608  55.887 -54.222  1.00  0.00     0.050 A 
ENDROOT
BRANCH   1  11
HETATM   11  C   UNL     1     -42.541  57.870 -55.346  1.00  0.00     0.252 C 
HETATM   12  N   UNL     1     -43.685  57.274 -55.830  1.00  0.00    -0.354 N 
HETATM   13  H   UNL     1     -43.998  56.394 -55.441  1.00  0.00     0.162 HD
HETATM   14  O   UNL     1     -42.012  58.847 -55.857  1.00  0.00    -0.268 OA
BRANCH  12  15
HETATM   15  C   UNL     1     -44.369  57.783 -57.005  1.00  0.00     0.154 C 
BRANCH  15  16
HETATM   16  C   UNL     1     -44.062  57.013 -58.299  1.00  0.00     0.132 C 
HETATM   17  C   UNL     1     -43.202  55.781 -58.048  1.00  0.00     0.041 C 
BRANCH  16  18
HETATM   18  O   UNL     1     -45.299  56.584 -58.875  1.00  0.00    -0.394 OA
HETATM   19  H   UNL     1     -46.013  56.979 -58.345  1.00  0.00     0.210 HD
ENDBRANCH  16  18
ENDBRANCH  15  16
ENDBRANCH  12  15
ENDBRANCH   1  11
BRANCH   9  20
HETATM   20  C   UNL     1     -40.655  53.845 -53.095  1.00  0.00    -0.007 A 
HETATM   21  C   UNL     1     -40.197  53.205 -51.927  1.00  0.00     0.015 A 
HETATM   22  C   UNL     1     -39.816  51.857 -51.934  1.00  0.00     0.024 A 
HETATM   23  C   UNL     1     -39.882  51.125 -53.115  1.00  0.00     0.034 A 
HETATM   24 CL   UNL     1     -39.415  49.469 -53.122  1.00  0.00    -0.084 Cl
HETATM   25  C   UNL     1     -40.318  51.728 -54.288  1.00  0.00     0.024 A 
HETATM   26  C   UNL     1     -40.699  53.075 -54.275  1.00  0.00     0.015 A 
ENDBRANCH   9  20
TORSDOF 5
ENDMDL
MODEL 5
REMARK VINA RESULT:      -7.6      1.937      2.115
REMARK  5 active torsions:
REMARK  status: ('A' for Active; 'I' for Inactive)
REMARK    1  A    between atoms: C_2  and  O_3 
REMARK    2  A    between atoms: C_2  and  C_4 
REMARK    3  A    between atoms: C_4  and  N_5 
REMARK       I    between atoms: N_5  and  C_6 
REMARK    4  A    between atoms: C_6  and  C_7 
REMARK    5  A    between atoms: C_15  and  C_16 
ROOT
HETATM    1  C   UNL     1     -42.868  56.518 -54.784  1.00  0.00     0.046 A 
HETATM    2  C   UNL     1     -43.589  57.226 -53.797  1.00  0.00     0.008 A 
HETATM    3  C   UNL     1     -43.475  56.735 -52.484  1.00  0.00     0.068 A 
HETATM    4  C   UNL     1     -44.148  57.391 -51.461  1.00  0.00     0.032 A 
HETATM    5  C   UNL     1     -44.933  58.521 -51.696  1.00  0.00     0.002 A 
HETATM    6  C   UNL     1     -45.051  59.017 -52.986  1.00  0.00     0.001 A 
HETATM    7  C   UNL     1     -44.383  58.378 -54.029  1.00  0.00     0.015 A 
HETATM    8  N   UNL     1     -42.735  55.659 -52.166  1.00  0.00    -0.248 NA
HETATM    9  C   UNL     1     -42.073  54.977 -53.131  1.00  0.00     0.068 A 
HETATM   10  C   UNL     1     -42.116  55.387 -54.453  1.00  0.00     0.050 A 
ENDROOT
BRANCH   1  11
HETATM   11  C   UNL     1     -42.894  56.926 -56.211  1.00  0.00     0.252 C 
HETATM   12  N   UNL     1     -43.937  56.408 -56.947  1.00  0.00    -0.354 N 
HETATM   13  H   UNL     1     -44.538  55.701 -56.543  1.00  0.00     0.162 HD
HETATM   14  O   UNL     1     -42.035  57.665 -56.670  1.00  0.00    -0.268 OA
BRANCH  12  15
HETATM   15  C   UNL     1     -44.103  56.721 -58.355  1.00  0.00     0.154 C 
BRANCH  15  16
HETATM   16  C   UNL     1     -43.474  55.693 -59.309  1.00  0.00     0.132 C 
HETATM   17  C   UNL     1     -44.227  55.593 -60.630  1.00  0.00     0.041 C 
BRANCH  16  18
HETATM   18  O   UNL     1     -42.132  56.098 -59.590  1.00  0.00    -0.394 OA
HETATM   19  H   UNL     1     -41.680  55.333 -59.989  1.00  0.00     0.210 HD
ENDBRANCH  16  18
ENDBRANCH  15  16
ENDBRANCH  12  15
ENDBRANCH   1  11
BRANCH   9  20
HETATM   20  C   UNL     1     -41.304  53.800 -52.672  1.00  0.00    -0.007 A 
HETATM   21  C   UNL     1     -41.073  53.537 -51.308  1.00  0.00     0.015 A 
HETATM   22  C   UNL     1     -40.351  52.411 -50.893  1.00  0.00     0.024 A 
HETATM   23  C   UNL     1     -39.841  51.527 -51.840  1.00  0.00     0.034 A 
HETATM   24 CL   UNL     1     -38.955  50.144 -51.330  1.00  0.00    -0.084 Cl
HETATM   25  C   UNL     1     -40.041  51.763 -53.194  1.00  0.00     0.024 A 
HETATM   26  C   UNL     1     -40.764  52.890 -53.603  1.00  0.00     0.015 A 
ENDBRANCH   9  20
TORSDOF 5
ENDMDL
MODEL 6
REMARK VINA RESULT:      -7.6      3.795      7.069
REMARK  5 active torsions:
REMARK  status: ('A' for Active; 'I' for Inactive)
REMARK    1  A    between atoms: C_2  and  O_3 
REMARK    2  A    between atoms: C_2  and  C_4 
REMARK    3  A    between atoms: C_4  and  N_5 
REMARK       I    between atoms: N_5  and  C_6 
REMARK    4  A    between atoms: C_6  and  C_7 
REMARK    5  A    between atoms: C_15  and  C_16 
ROOT
HETATM    1  C   UNL     1     -41.552  55.603 -52.898  1.00  0.00     0.046 A 
HETATM    2  C   UNL     1     -40.970  54.318 -52.958  1.00  0.00     0.008 A 
HETATM    3  C   UNL     1     -40.914  53.727 -54.232  1.00  0.00     0.068 A 
HETATM    4  C   UNL     1     -40.343  52.468 -54.364  1.00  0.00     0.032 A 
HETATM    5  C   UNL     1     -39.822  51.772 -53.273  1.00  0.00     0.002 A 
HETATM    6  C   UNL     1     -39.866  52.345 -52.010  1.00  0.00     0.001 A 
HETATM    7  C   UNL     1     -40.433  53.609 -51.852  1.00  0.00     0.015 A 
HETATM    8  N   UNL     1     -41.385  54.327 -55.339  1.00  0.00    -0.248 NA
HETATM    9  C   UNL     1     -41.965  55.549 -55.258  1.00  0.00     0.068 A 
HETATM   10  C   UNL     1     -42.058  56.216 -54.049  1.00  0.00     0.050 A 
ENDROOT
BRANCH   1  11
HETATM   11  C   UNL     1     -41.674  56.347 -51.620  1.00  0.00     0.252 C 
HETATM   12  N   UNL     1     -41.019  57.558 -51.584  1.00  0.00    -0.354 N 
HETATM   13  H   UNL     1     -40.401  57.820 -52.342  1.00  0.00     0.162 HD
HETATM   14  O   UNL     1     -42.313  55.888 -50.683  1.00  0.00    -0.268 OA
BRANCH  12  15
HETATM   15  C   UNL     1     -41.051  58.405 -50.405  1.00  0.00     0.154 C 
BRANCH  15  16
HETATM   16  C   UNL     1     -41.484  59.854 -50.680  1.00  0.00     0.132 C 
HETATM   17  C   UNL     1     -42.009  60.042 -52.098  1.00  0.00     0.041 C 
BRANCH  16  18
HETATM   18  O   UNL     1     -42.531  60.194 -49.767  1.00  0.00    -0.394 OA
HETATM   19  H   UNL     1     -43.353  60.254 -50.284  1.00  0.00     0.210 HD
ENDBRANCH  16  18
ENDBRANCH  15  16
ENDBRANCH  12  15
ENDBRANCH   1  11
BRANCH   9  20
HETATM   20  C   UNL     1     -42.462  56.108 -56.534  1.00  0.00    -0.007 A 
HETATM   21  C   UNL     1     -42.374  57.480 -56.840  1.00  0.00     0.015 A 
HETATM   22  C   UNL     1     -42.843  57.987 -58.059  1.00  0.00     0.024 A 
HETATM   23  C   UNL     1     -43.414  57.129 -58.994  1.00  0.00     0.034 A 
HETATM   24 CL   UNL     1     -43.987  57.753 -60.490  1.00  0.00    -0.084 Cl
HETATM   25  C   UNL     1     -43.526  55.772 -58.718  1.00  0.00     0.024 A 
HETATM   26  C   UNL     1     -43.056  55.270 -57.499  1.00  0.00     0.015 A 
ENDBRANCH   9  20
TORSDOF 5
ENDMDL
MODEL 7
REMARK VINA RESULT:      -7.5      2.641      4.987
REMARK  5 active torsions:
REMARK  status: ('A' for Active; 'I' for Inactive)
REMARK    1  A    between atoms: C_2  and  O_3 
REMARK    2  A    between atoms: C_2  and  C_4 
REMARK    3  A    between atoms: C_4  and  N_5 
REMARK       I    between atoms: N_5  and  C_6 
REMARK    4  A    between atoms: C_6  and  C_7 
REMARK    5  A    between atoms: C_15  and  C_16 
ROOT
HETATM    1  C   UNL     1     -42.111  57.157 -53.427  1.00  0.00     0.046 A 
HETATM    2  C   UNL     1     -42.495  57.062 -54.783  1.00  0.00     0.008 A 
HETATM    3  C   UNL     1     -42.303  55.809 -55.390  1.00  0.00     0.068 A 
HETATM    4  C   UNL     1     -42.670  55.642 -56.719  1.00  0.00     0.032 A 
HETATM    5  C   UNL     1     -43.225  56.680 -57.470  1.00  0.00     0.002 A 
HETATM    6  C   UNL     1     -43.424  57.921 -56.882  1.00  0.00     0.001 A 
HETATM    7  C   UNL     1     -43.065  58.112 -55.549  1.00  0.00     0.015 A 
HETATM    8  N   UNL     1     -41.782  54.753 -54.741  1.00  0.00    -0.248 NA
HETATM    9  C   UNL     1     -41.395  54.871 -53.448  1.00  0.00     0.068 A 
HETATM   10  C   UNL     1     -41.552  56.062 -52.760  1.00  0.00     0.050 A 
ENDROOT
BRANCH   1  11
HETATM   11  C   UNL     1     -42.261  58.418 -52.660  1.00  0.00     0.252 C 
HETATM   12  N   UNL     1     -43.323  58.447 -51.783  1.00  0.00    -0.354 N 
HETATM   13  H   UNL     1     -44.004  57.698 -51.792  1.00  0.00     0.162 HD
HETATM   14  O   UNL     1     -41.482  59.348 -52.820  1.00  0.00    -0.268 OA
BRANCH  12  15
HETATM   15  C   UNL     1     -43.596  59.608 -50.956  1.00  0.00     0.154 C 
BRANCH  15  16
HETATM   16  C   UNL     1     -45.091  59.911 -50.766  1.00  0.00     0.132 C 
HETATM   17  C   UNL     1     -45.859  59.886 -52.081  1.00  0.00     0.041 C 
BRANCH  16  18
HETATM   18  O   UNL     1     -45.648  58.916 -49.903  1.00  0.00    -0.394 OA
HETATM   19  H   UNL     1     -46.538  59.221 -49.652  1.00  0.00     0.210 HD
ENDBRANCH  16  18
ENDBRANCH  15  16
ENDBRANCH  12  15
ENDBRANCH   1  11
BRANCH   9  20
HETATM   20  C   UNL     1     -40.821  53.652 -52.838  1.00  0.00    -0.007 A 
HETATM   21  C   UNL     1     -40.763  53.463 -51.443  1.00  0.00     0.015 A 
HETATM   22  C   UNL     1     -40.223  52.296 -50.886  1.00  0.00     0.024 A 
HETATM   23  C   UNL     1     -39.726  51.297 -51.717  1.00  0.00     0.034 A 
HETATM   24 CL   UNL     1     -39.066  49.864 -51.032  1.00  0.00    -0.084 Cl
HETATM   25  C   UNL     1     -39.758  51.456 -53.096  1.00  0.00     0.024 A 
HETATM   26  C   UNL     1     -40.298  52.623 -53.648  1.00  0.00     0.015 A 
ENDBRANCH   9  20
TORSDOF 5
ENDMDL
MODEL 8
REMARK VINA RESULT:      -7.3      3.739      6.685
REMARK  5 active torsions:
REMARK  status: ('A' for Active; 'I' for Inactive)
REMARK    1  A    between atoms: C_2  and  O_3 
REMARK    2  A    between atoms: C_2  and  C_4 
REMARK    3  A    between atoms: C_4  and  N_5 
REMARK       I    between atoms: N_5  and  C_6 
REMARK    4  A    between atoms: C_6  and  C_7 
REMARK    5  A    between atoms: C_15  and  C_16 
ROOT
HETATM    1  C   UNL     1     -41.706  55.561 -52.580  1.00  0.00     0.046 A 
HETATM    2  C   UNL     1     -41.371  56.815 -52.023  1.00  0.00     0.008 A 
HETATM    3  C   UNL     1     -41.455  57.916 -52.893  1.00  0.00     0.068 A 
HETATM    4  C   UNL     1     -41.150  59.181 -52.406  1.00  0.00     0.032 A 
HETATM    5  C   UNL     1     -40.765  59.393 -51.081  1.00  0.00     0.002 A 
HETATM    6  C   UNL     1     -40.682  58.315 -50.211  1.00  0.00     0.001 A 
HETATM    7  C   UNL     1     -40.985  57.036 -50.675  1.00  0.00     0.015 A 
HETATM    8  N   UNL     1     -41.824  57.806 -54.180  1.00  0.00    -0.248 NA
HETATM    9  C   UNL     1     -42.116  56.591 -54.705  1.00  0.00     0.068 A 
HETATM   10  C   UNL     1     -42.071  55.448 -53.926  1.00  0.00     0.050 A 
ENDROOT
BRANCH   1  11
HETATM   11  C   UNL     1     -41.666  54.314 -51.778  1.00  0.00     0.252 C 
HETATM   12  N   UNL     1     -40.436  53.694 -51.723  1.00  0.00    -0.354 N 
HETATM   13  H   UNL     1     -39.680  54.022 -52.310  1.00  0.00     0.162 HD
HETATM   14  O   UNL     1     -42.669  53.891 -51.220  1.00  0.00    -0.268 OA
BRANCH  12  15
HETATM   15  C   UNL     1     -40.235  52.469 -50.971  1.00  0.00     0.154 C 
BRANCH  15  16
HETATM   16  C   UNL     1     -39.420  51.398 -51.713  1.00  0.00     0.132 C 
HETATM   17  C   UNL     1     -39.603  50.011 -51.112  1.00  0.00     0.041 C 
BRANCH  16  18
HETATM   18  O   UNL     1     -39.858  51.358 -53.073  1.00  0.00    -0.394 OA
HETATM   19  H   UNL     1     -40.531  50.657 -53.136  1.00  0.00     0.210 HD
ENDBRANCH  16  18
ENDBRANCH  15  16
ENDBRANCH  12  15
ENDBRANCH   1  11
BRANCH   9  20
HETATM   20  C   UNL     1     -42.494  56.585 -56.135  1.00  0.00    -0.007 A 
HETATM   21  C   UNL     1     -42.869  55.407 -56.809  1.00  0.00     0.015 A 
HETATM   22  C   UNL     1     -43.232  55.424 -58.162  1.00  0.00     0.024 A 
HETATM   23  C   UNL     1     -43.222  56.624 -58.867  1.00  0.00     0.034 A 
HETATM   24 CL   UNL     1     -43.670  56.645 -60.527  1.00  0.00    -0.084 Cl
HETATM   25  C   UNL     1     -42.847  57.802 -58.235  1.00  0.00     0.024 A 
HETATM   26  C   UNL     1     -42.485  57.780 -56.883  1.00  0.00     0.015 A 
ENDBRANCH   9  20
TORSDOF 5
ENDMDL
MODEL 9
REMARK VINA RESULT:      -7.0      3.253      5.740
REMARK  5 active torsions:
REMARK  status: ('A' for Active; 'I' for Inactive)
REMARK    1  A    between atoms: C_2  and  O_3 
REMARK    2  A    between atoms: C_2  and  C_4 
REMARK    3  A    between atoms: C_4  and  N_5 
REMARK       I    between atoms: N_5  and  C_6 
REMARK    4  A    between atoms: C_6  and  C_7 
REMARK    5  A    between atoms: C_15  and  C_16 
ROOT
HETATM    1  C   UNL     1     -42.396  55.046 -54.607  1.00  0.00     0.046 A 
HETATM    2  C   UNL     1     -41.563  54.128 -53.929  1.00  0.00     0.008 A 
HETATM    3  C   UNL     1     -41.129  54.521 -52.651  1.00  0.00     0.068 A 
HETATM    4  C   UNL     1     -40.316  53.661 -51.924  1.00  0.00     0.032 A 
HETATM    5  C   UNL     1     -39.918  52.419 -52.422  1.00  0.00     0.002 A 
HETATM    6  C   UNL     1     -40.343  52.018 -53.680  1.00  0.00     0.001 A 
HETATM    7  C   UNL     1     -41.160  52.862 -54.429  1.00  0.00     0.015 A 
HETATM    8  N   UNL     1     -41.469  55.695 -52.091  1.00  0.00    -0.248 NA
HETATM    9  C   UNL     1     -42.247  56.574 -52.768  1.00  0.00     0.068 A 
HETATM   10  C   UNL     1     -42.732  56.274 -54.029  1.00  0.00     0.050 A 
ENDROOT
BRANCH   1  11
HETATM   11  C   UNL     1     -42.930  54.761 -55.962  1.00  0.00     0.252 C 
HETATM   12  N   UNL     1     -42.609  55.693 -56.924  1.00  0.00    -0.354 N 
HETATM   13  H   UNL     1     -42.159  56.559 -56.657  1.00  0.00     0.162 HD
HETATM   14  O   UNL     1     -43.607  53.764 -56.175  1.00  0.00    -0.268 OA
BRANCH  12  15
HETATM   15  C   UNL     1     -43.053  55.550 -58.300  1.00  0.00     0.154 C 
BRANCH  15  16
HETATM   16  C   UNL     1     -42.470  56.595 -59.263  1.00  0.00     0.132 C 
HETATM   17  C   UNL     1     -43.550  57.302 -60.072  1.00  0.00     0.041 C 
BRANCH  16  18
HETATM   18  O   UNL     1     -41.770  57.578 -58.496  1.00  0.00    -0.394 OA
HETATM   19  H   UNL     1     -41.064  57.115 -58.013  1.00  0.00     0.210 HD
ENDBRANCH  16  18
ENDBRANCH  15  16
ENDBRANCH  12  15
ENDBRANCH   1  11
BRANCH   9  20
HETATM   20  C   UNL     1     -42.545  57.840 -52.063  1.00  0.00    -0.007 A 
HETATM   21  C   UNL     1     -43.862  58.293 -51.854  1.00  0.00     0.015 A 
HETATM   22  C   UNL     1     -44.122  59.491 -51.176  1.00  0.00     0.024 A 
HETATM   23  C   UNL     1     -43.066  60.261 -50.698  1.00  0.00     0.034 A 
HETATM   24 CL   UNL     1     -43.388  61.730 -49.864  1.00  0.00    -0.084 Cl
HETATM   25  C   UNL     1     -41.755  59.848 -50.898  1.00  0.00     0.024 A 
HETATM   26  C   UNL     1     -41.500  58.650 -51.575  1.00  0.00     0.015 A 
ENDBRANCH   9  20
TORSDOF 5
ENDMDL
MODEL 10
REMARK VINA RESULT:      -7.0     15.596     17.672
REMARK  5 active torsions:
REMARK  status: ('A' for Active; 'I' for Inactive)
REMARK    1  A    between atoms: C_2  and  O_3 
REMARK    2  A    between atoms: C_2  and  C_4 
REMARK    3  A    between atoms: C_4  and  N_5 
REMARK       I    between atoms: N_5  and  C_6 
REMARK    4  A    between atoms: C_6  and  C_7 
REMARK    5  A    between atoms: C_15  and  C_16 
ROOT
HETATM    1  C   UNL     1     -35.886  40.019 -51.429  1.00  0.00     0.046 A 
HETATM    2  C   UNL     1     -34.496  40.017 -51.175  1.00  0.00     0.008 A 
HETATM    3  C   UNL     1     -33.677  40.425 -52.242  1.00  0.00     0.068 A 
HETATM    4  C   UNL     1     -32.300  40.459 -52.057  1.00  0.00     0.032 A 
HETATM    5  C   UNL     1     -31.707  40.102 -50.845  1.00  0.00     0.002 A 
HETATM    6  C   UNL     1     -32.504  39.702 -49.783  1.00  0.00     0.001 A 
HETATM    7  C   UNL     1     -33.888  39.662 -49.943  1.00  0.00     0.015 A 
HETATM    8  N   UNL     1     -34.163  40.792 -53.441  1.00  0.00    -0.248 NA
HETATM    9  C   UNL     1     -35.497  40.761 -53.674  1.00  0.00     0.068 A 
HETATM   10  C   UNL     1     -36.387  40.383 -52.683  1.00  0.00     0.050 A 
ENDROOT
BRANCH   1  11
HETATM   11  C   UNL     1     -36.869  39.615 -50.394  1.00  0.00     0.252 C 
HETATM   12  N   UNL     1     -37.727  38.604 -50.765  1.00  0.00    -0.354 N 
HETATM   13  H   UNL     1     -37.743  38.283 -51.725  1.00  0.00     0.162 HD
HETATM   14  O   UNL     1     -36.893  40.163 -49.300  1.00  0.00    -0.268 OA
BRANCH  12  15
HETATM   15  C   UNL     1     -38.740  38.094 -49.858  1.00  0.00     0.154 C 
BRANCH  15  16
HETATM   16  C   UNL     1     -40.177  38.199 -50.392  1.00  0.00     0.132 C 
HETATM   17  C   UNL     1     -41.204  38.305 -49.272  1.00  0.00     0.041 C 
BRANCH  16  18
HETATM   18  O   UNL     1     -40.275  39.374 -51.201  1.00  0.00    -0.394 OA
HETATM   19  H   UNL     1     -40.889  39.981 -50.751  1.00  0.00     0.210 HD
ENDBRANCH  16  18
ENDBRANCH  15  16
ENDBRANCH  12  15
ENDBRANCH   1  11
BRANCH   9  20
HETATM   20  C   UNL     1     -35.919  41.170 -55.031  1.00  0.00    -0.007 A 
HETATM   21  C   UNL     1     -37.258  41.085 -55.461  1.00  0.00     0.015 A 
HETATM   22  C   UNL     1     -37.638  41.486 -56.748  1.00  0.00     0.024 A 
HETATM   23  C   UNL     1     -36.682  41.976 -57.632  1.00  0.00     0.034 A 
HETATM   24 CL   UNL     1     -37.151  42.470 -59.212  1.00  0.00    -0.084 Cl
HETATM   25  C   UNL     1     -35.351  42.062 -57.244  1.00  0.00     0.024 A 
HETATM   26  C   UNL     1     -34.976  41.660 -55.957  1.00  0.00     0.015 A 
ENDBRANCH   9  20
TORSDOF 5
ENDMDL
