MODEL 1
REMARK VINA RESULT:      -9.5      0.000      0.000
REMARK  3 active torsions:
REMARK  status: ('A' for Active; 'I' for Inactive)
REMARK    1  A    between atoms: C_4  and  C_5 
REMARK    2  A    between atoms: C_5  and  C_6 
REMARK    3  A    between atoms: C_6  and  N_7 
ROOT
HETATM    1  N   UNL     1     -41.984  54.059 -53.008  1.00  0.00    -0.071 N 
HETATM    2  H   UNL     1     -42.064  53.111 -53.405  1.00  0.00     0.279 HD
HETATM    3  C   UNL     1     -41.001  54.831 -53.861  1.00  0.00     0.237 C 
HETATM    4  C   UNL     1     -41.514  54.934 -55.280  1.00  0.00     0.065 C 
HETATM    5  C   UNL     1     -42.879  55.650 -55.362  1.00  0.00     0.076 C 
HETATM    6  N   UNL     1     -43.399  55.444 -56.727  1.00  0.00    -0.373 N 
HETATM    7  C   UNL     1     -42.872  56.270 -57.735  1.00  0.00     0.056 A 
HETATM    8  C   UNL     1     -42.391  57.561 -57.458  1.00  0.00     0.065 A 
HETATM    9  N   UNL     1     -42.421  57.981 -56.109  1.00  0.00    -0.321 N 
HETATM   10  C   UNL     1     -42.719  57.125 -55.057  1.00  0.00     0.045 A 
HETATM   11  C   UNL     1     -42.175  59.234 -55.602  1.00  0.00     0.097 A 
HETATM   12  C   UNL     1     -42.425  59.218 -54.250  1.00  0.00     0.020 A 
HETATM   13  C   UNL     1     -42.788  57.897 -53.908  1.00  0.00     0.029 A 
HETATM   14  C   UNL     1     -42.950  55.866 -59.072  1.00  0.00     0.031 A 
HETATM   15  C   UNL     1     -42.486  56.694 -60.098  1.00  0.00     0.002 A 
HETATM   16  C   UNL     1     -41.971  57.954 -59.802  1.00  0.00     0.002 A 
HETATM   17  C   UNL     1     -41.933  58.400 -58.481  1.00  0.00     0.032 A 
HETATM   18  C   UNL     1     -43.871  54.944 -54.414  1.00  0.00     0.065 C 
HETATM   19  C   UNL     1     -43.356  54.688 -53.005  1.00  0.00     0.237 C 
HETATM   20  H   UNL     1     -43.476  54.477 -57.032  1.00  0.00     0.161 HD
ENDROOT
BRANCH   1  21
HETATM   21  C   UNL     1     -41.401  53.905 -51.604  1.00  0.00     0.239 C 
BRANCH  21  22
HETATM   22  C   UNL     1     -39.937  53.462 -51.617  1.00  0.00     0.066 C 
BRANCH  22  23
HETATM   23  C   UNL     1     -39.866  51.980 -51.884  1.00  0.00    -0.057 A 
HETATM   24  C   UNL     1     -39.862  51.067 -50.819  1.00  0.00     0.007 A 
HETATM   25  C   UNL     1     -39.720  49.701 -51.062  1.00  0.00     0.001 A 
HETATM   26  C   UNL     1     -39.583  49.234 -52.367  1.00  0.00     0.000 A 
HETATM   27  C   UNL     1     -39.595  50.132 -53.432  1.00  0.00     0.001 A 
HETATM   28  C   UNL     1     -39.735  51.499 -53.194  1.00  0.00     0.007 A 
ENDBRANCH  22  23
ENDBRANCH  21  22
ENDBRANCH   1  21
TORSDOF 3
ENDMDL
MODEL 2
REMARK VINA RESULT:      -9.3      3.129      5.220
REMARK  3 active torsions:
REMARK  status: ('A' for Active; 'I' for Inactive)
REMARK    1  A    between atoms: C_4  and  C_5 
REMARK    2  A    between atoms: C_5  and  C_6 
REMARK    3  A    between atoms: C_6  and  N_7 
ROOT
HETATM    1  N   UNL     1     -43.029  54.604 -53.245  1.00  0.00    -0.071 N 
HETATM    2  H   UNL     1     -43.990  54.284 -53.432  1.00  0.00     0.279 HD
HETATM    3  C   UNL     1     -42.908  56.018 -53.770  1.00  0.00     0.237 C 
HETATM    4  C   UNL     1     -43.877  56.926 -53.048  1.00  0.00     0.065 C 
HETATM    5  C   UNL     1     -43.627  56.962 -51.525  1.00  0.00     0.076 C 
HETATM    6  N   UNL     1     -44.783  57.640 -50.909  1.00  0.00    -0.373 N 
HETATM    7  C   UNL     1     -44.796  59.045 -50.969  1.00  0.00     0.056 A 
HETATM    8  C   UNL     1     -43.610  59.796 -51.021  1.00  0.00     0.065 A 
HETATM    9  N   UNL     1     -42.396  59.074 -51.053  1.00  0.00    -0.321 N 
HETATM   10  C   UNL     1     -42.338  57.697 -51.221  1.00  0.00     0.045 A 
HETATM   11  C   UNL     1     -41.115  59.558 -50.934  1.00  0.00     0.097 A 
HETATM   12  C   UNL     1     -40.244  58.494 -50.908  1.00  0.00     0.020 A 
HETATM   13  C   UNL     1     -41.013  57.320 -51.067  1.00  0.00     0.029 A 
HETATM   14  C   UNL     1     -46.008  59.731 -50.835  1.00  0.00     0.031 A 
HETATM   15  C   UNL     1     -46.043  61.128 -50.833  1.00  0.00     0.002 A 
HETATM   16  C   UNL     1     -44.860  61.858 -50.931  1.00  0.00     0.002 A 
HETATM   17  C   UNL     1     -43.637  61.196 -51.012  1.00  0.00     0.032 A 
HETATM   18  C   UNL     1     -43.638  55.518 -50.983  1.00  0.00     0.065 C 
HETATM   19  C   UNL     1     -42.784  54.524 -51.758  1.00  0.00     0.237 C 
HETATM   20  H   UNL     1     -45.695  57.244 -51.119  1.00  0.00     0.161 HD
ENDROOT
BRANCH   1  21
HETATM   21  C   UNL     1     -42.096  53.700 -54.048  1.00  0.00     0.239 C 
BRANCH  21  22
HETATM   22  C   UNL     1     -40.662  53.706 -53.513  1.00  0.00     0.066 C 
BRANCH  22  23
HETATM   23  C   UNL     1     -40.227  52.290 -53.237  1.00  0.00    -0.057 A 
HETATM   24  C   UNL     1     -40.250  51.329 -54.258  1.00  0.00     0.007 A 
HETATM   25  C   UNL     1     -39.920  50.001 -53.985  1.00  0.00     0.001 A 
HETATM   26  C   UNL     1     -39.562  49.621 -52.693  1.00  0.00     0.000 A 
HETATM   27  C   UNL     1     -39.528  50.570 -51.674  1.00  0.00     0.001 A 
HETATM   28  C   UNL     1     -39.858  51.899 -51.942  1.00  0.00     0.007 A 
ENDBRANCH  22  23
ENDBRANCH  21  22
ENDBRANCH   1  21
TORSDOF 3
ENDMDL
MODEL 3
REMARK VINA RESULT:      -9.0      2.995      7.724
REMARK  3 active torsions:
REMARK  status: ('A' for Active; 'I' for Inactive)
REMARK    1  A    between atoms: C_4  and  C_5 
REMARK    2  A    between atoms: C_5  and  C_6 
REMARK    3  A    between atoms: C_6  and  N_7 
ROOT
HETATM    1  N   UNL     1     -43.139  56.395 -53.770  1.00  0.00    -0.071 N 
HETATM    2  H   UNL     1     -43.324  56.180 -54.761  1.00  0.00     0.279 HD
HETATM    3  C   UNL     1     -43.433  55.145 -52.969  1.00  0.00     0.237 C 
HETATM    4  C   UNL     1     -42.523  54.020 -53.408  1.00  0.00     0.065 C 
HETATM    5  C   UNL     1     -41.029  54.364 -53.220  1.00  0.00     0.076 C 
HETATM    6  N   UNL     1     -40.252  53.330 -53.928  1.00  0.00    -0.373 N 
HETATM    7  C   UNL     1     -40.082  52.103 -53.265  1.00  0.00     0.056 A 
HETATM    8  C   UNL     1     -40.073  52.013 -51.863  1.00  0.00     0.065 A 
HETATM    9  N   UNL     1     -40.285  53.210 -51.143  1.00  0.00    -0.321 N 
HETATM   10  C   UNL     1     -40.678  54.397 -51.747  1.00  0.00     0.045 A 
HETATM   11  C   UNL     1     -40.156  53.425 -49.792  1.00  0.00     0.097 A 
HETATM   12  C   UNL     1     -40.349  54.762 -49.539  1.00  0.00     0.020 A 
HETATM   13  C   UNL     1     -40.657  55.380 -50.771  1.00  0.00     0.029 A 
HETATM   14  C   UNL     1     -39.774  50.954 -54.003  1.00  0.00     0.031 A 
HETATM   15  C   UNL     1     -39.544  49.733 -53.364  1.00  0.00     0.002 A 
HETATM   16  C   UNL     1     -39.583  49.652 -51.974  1.00  0.00     0.002 A 
HETATM   17  C   UNL     1     -39.835  50.795 -51.215  1.00  0.00     0.032 A 
HETATM   18  C   UNL     1     -40.729  55.695 -53.940  1.00  0.00     0.065 C 
HETATM   19  C   UNL     1     -41.699  56.830 -53.643  1.00  0.00     0.237 C 
HETATM   20  H   UNL     1     -40.475  53.201 -54.912  1.00  0.00     0.161 HD
ENDROOT
BRANCH   1  21
HETATM   21  C   UNL     1     -44.125  57.486 -53.359  1.00  0.00     0.239 C 
BRANCH  21  22
HETATM   22  C   UNL     1     -44.583  57.353 -51.906  1.00  0.00     0.066 C 
BRANCH  22  23
HETATM   23  C   UNL     1     -44.348  58.656 -51.187  1.00  0.00    -0.057 A 
HETATM   24  C   UNL     1     -45.411  59.319 -50.556  1.00  0.00     0.007 A 
HETATM   25  C   UNL     1     -45.211  60.562 -49.956  1.00  0.00     0.001 A 
HETATM   26  C   UNL     1     -43.949  61.154 -49.978  1.00  0.00     0.000 A 
HETATM   27  C   UNL     1     -42.885  60.499 -50.595  1.00  0.00     0.001 A 
HETATM   28  C   UNL     1     -43.081  59.256 -51.198  1.00  0.00     0.007 A 
ENDBRANCH  22  23
ENDBRANCH  21  22
ENDBRANCH   1  21
TORSDOF 3
ENDMDL
MODEL 4
REMARK VINA RESULT:      -8.9      2.610      4.683
REMARK  3 active torsions:
REMARK  status: ('A' for Active; 'I' for Inactive)
REMARK    1  A    between atoms: C_4  and  C_5 
REMARK    2  A    between atoms: C_5  and  C_6 
REMARK    3  A    between atoms: C_6  and  N_7 
ROOT
HETATM    1  N   UNL     1     -41.656  54.452 -50.151  1.00  0.00    -0.071 N 
HETATM    2  H   UNL     1     -41.947  54.556 -49.168  1.00  0.00     0.279 HD
HETATM    3  C   UNL     1     -42.888  54.623 -51.013  1.00  0.00     0.237 C 
HETATM    4  C   UNL     1     -43.472  56.004 -50.816  1.00  0.00     0.065 C 
HETATM    5  C   UNL     1     -42.476  57.123 -51.185  1.00  0.00     0.076 C 
HETATM    6  N   UNL     1     -43.043  58.393 -50.695  1.00  0.00    -0.373 N 
HETATM    7  C   UNL     1     -44.044  58.984 -51.486  1.00  0.00     0.056 A 
HETATM    8  C   UNL     1     -44.099  58.792 -52.877  1.00  0.00     0.065 A 
HETATM    9  N   UNL     1     -43.125  57.942 -53.445  1.00  0.00    -0.321 N 
HETATM   10  C   UNL     1     -42.262  57.164 -52.684  1.00  0.00     0.045 A 
HETATM   11  C   UNL     1     -42.854  57.726 -54.775  1.00  0.00     0.097 A 
HETATM   12  C   UNL     1     -41.753  56.909 -54.874  1.00  0.00     0.020 A 
HETATM   13  C   UNL     1     -41.365  56.570 -53.559  1.00  0.00     0.029 A 
HETATM   14  C   UNL     1     -44.931  59.898 -50.909  1.00  0.00     0.031 A 
HETATM   15  C   UNL     1     -45.899  60.544 -51.685  1.00  0.00     0.002 A 
HETATM   16  C   UNL     1     -45.968  60.308 -53.056  1.00  0.00     0.002 A 
HETATM   17  C   UNL     1     -45.060  59.441 -53.661  1.00  0.00     0.032 A 
HETATM   18  C   UNL     1     -41.166  56.906 -50.397  1.00  0.00     0.065 C 
HETATM   19  C   UNL     1     -40.603  55.493 -50.445  1.00  0.00     0.237 C 
HETATM   20  H   UNL     1     -43.276  58.424 -49.706  1.00  0.00     0.161 HD
ENDROOT
BRANCH   1  21
HETATM   21  C   UNL     1     -41.137  53.024 -50.312  1.00  0.00     0.239 C 
BRANCH  21  22
HETATM   22  C   UNL     1     -39.768  52.965 -50.991  1.00  0.00     0.066 C 
BRANCH  22  23
HETATM   23  C   UNL     1     -39.798  51.932 -52.087  1.00  0.00    -0.057 A 
HETATM   24  C   UNL     1     -40.154  52.295 -53.395  1.00  0.00     0.007 A 
HETATM   25  C   UNL     1     -40.256  51.326 -54.393  1.00  0.00     0.001 A 
HETATM   26  C   UNL     1     -40.002  49.988 -54.097  1.00  0.00     0.000 A 
HETATM   27  C   UNL     1     -39.639  49.619 -52.804  1.00  0.00     0.001 A 
HETATM   28  C   UNL     1     -39.538  50.584 -51.802  1.00  0.00     0.007 A 
ENDBRANCH  22  23
ENDBRANCH  21  22
ENDBRANCH   1  21
TORSDOF 3
ENDMDL
MODEL 5
REMARK VINA RESULT:      -8.7      2.015      7.857
REMARK  3 active torsions:
REMARK  status: ('A' for Active; 'I' for Inactive)
REMARK    1  A    between atoms: C_4  and  C_5 
REMARK    2  A    between atoms: C_5  and  C_6 
REMARK    3  A    between atoms: C_6  and  N_7 
ROOT
HETATM    1  N   UNL     1     -43.145  55.996 -54.833  1.00  0.00    -0.071 N 
HETATM    2  H   UNL     1     -43.243  55.623 -55.788  1.00  0.00     0.279 HD
HETATM    3  C   UNL     1     -43.458  54.872 -53.869  1.00  0.00     0.237 C 
HETATM    4  C   UNL     1     -42.477  53.737 -54.058  1.00  0.00     0.065 C 
HETATM    5  C   UNL     1     -41.016  54.175 -53.818  1.00  0.00     0.076 C 
HETATM    6  N   UNL     1     -40.148  53.083 -54.297  1.00  0.00    -0.373 N 
HETATM    7  C   UNL     1     -39.989  51.981 -53.439  1.00  0.00     0.056 A 
HETATM    8  C   UNL     1     -40.088  52.108 -52.043  1.00  0.00     0.065 A 
HETATM    9  N   UNL     1     -40.399  53.390 -51.537  1.00  0.00    -0.321 N 
HETATM   10  C   UNL     1     -40.784  54.451 -52.347  1.00  0.00     0.045 A 
HETATM   11  C   UNL     1     -40.386  53.816 -50.231  1.00  0.00     0.097 A 
HETATM   12  C   UNL     1     -40.645  55.166 -50.205  1.00  0.00     0.020 A 
HETATM   13  C   UNL     1     -40.876  55.572 -51.538  1.00  0.00     0.029 A 
HETATM   14  C   UNL     1     -39.583  50.749 -53.963  1.00  0.00     0.031 A 
HETATM   15  C   UNL     1     -39.361  49.653 -53.126  1.00  0.00     0.002 A 
HETATM   16  C   UNL     1     -39.509  49.784 -51.747  1.00  0.00     0.002 A 
HETATM   17  C   UNL     1     -39.860  51.016 -51.197  1.00  0.00     0.032 A 
HETATM   18  C   UNL     1     -40.707  55.393 -54.713  1.00  0.00     0.065 C 
HETATM   19  C   UNL     1     -41.736  56.514 -54.670  1.00  0.00     0.237 C 
HETATM   20  H   UNL     1     -40.288  52.794 -55.262  1.00  0.00     0.161 HD
ENDROOT
BRANCH   1  21
HETATM   21  C   UNL     1     -44.199  57.090 -54.671  1.00  0.00     0.239 C 
BRANCH  21  22
HETATM   22  C   UNL     1     -44.046  58.215 -55.696  1.00  0.00     0.066 C 
BRANCH  22  23
HETATM   23  C   UNL     1     -44.880  57.900 -56.911  1.00  0.00    -0.057 A 
HETATM   24  C   UNL     1     -44.293  57.304 -58.038  1.00  0.00     0.007 A 
HETATM   25  C   UNL     1     -45.046  57.082 -59.190  1.00  0.00     0.001 A 
HETATM   26  C   UNL     1     -46.390  57.448 -59.229  1.00  0.00     0.000 A 
HETATM   27  C   UNL     1     -46.984  58.033 -58.112  1.00  0.00     0.001 A 
HETATM   28  C   UNL     1     -46.234  58.259 -56.958  1.00  0.00     0.007 A 
ENDBRANCH  22  23
ENDBRANCH  21  22
ENDBRANCH   1  21
TORSDOF 3
ENDMDL
MODEL 6
REMARK VINA RESULT:      -8.6      1.501      7.649
REMARK  3 active torsions:
REMARK  status: ('A' for Active; 'I' for Inactive)
REMARK    1  A    between atoms: C_4  and  C_5 
REMARK    2  A    between atoms: C_5  and  C_6 
REMARK    3  A    between atoms: C_6  and  N_7 
ROOT
HETATM    1  N   UNL     1     -43.020  56.150 -54.023  1.00  0.00    -0.071 N 
HETATM    2  H   UNL     1     -43.143  55.877 -55.009  1.00  0.00     0.279 HD
HETATM    3  C   UNL     1     -43.361  54.948 -53.169  1.00  0.00     0.237 C 
HETATM    4  C   UNL     1     -42.422  53.805 -53.483  1.00  0.00     0.065 C 
HETATM    5  C   UNL     1     -40.944  54.167 -53.224  1.00  0.00     0.076 C 
HETATM    6  N   UNL     1     -40.121  53.099 -53.820  1.00  0.00    -0.373 N 
HETATM    7  C   UNL     1     -39.990  51.914 -53.076  1.00  0.00     0.056 A 
HETATM    8  C   UNL     1     -40.069  51.906 -51.673  1.00  0.00     0.065 A 
HETATM    9  N   UNL     1     -40.329  53.142 -51.040  1.00  0.00    -0.321 N 
HETATM   10  C   UNL     1     -40.686  54.289 -51.736  1.00  0.00     0.045 A 
HETATM   11  C   UNL     1     -40.285  53.437 -49.698  1.00  0.00     0.097 A 
HETATM   12  C   UNL     1     -40.497  54.786 -49.537  1.00  0.00     0.020 A 
HETATM   13  C   UNL     1     -40.728  55.328 -50.820  1.00  0.00     0.029 A 
HETATM   14  C   UNL     1     -39.635  50.726 -53.724  1.00  0.00     0.031 A 
HETATM   15  C   UNL     1     -39.442  49.546 -53.001  1.00  0.00     0.002 A 
HETATM   16  C   UNL     1     -39.568  49.546 -51.614  1.00  0.00     0.002 A 
HETATM   17  C   UNL     1     -39.869  50.730 -50.941  1.00  0.00     0.032 A 
HETATM   18  C   UNL     1     -40.603  55.457 -54.000  1.00  0.00     0.065 C 
HETATM   19  C   UNL     1     -41.592  56.601 -53.832  1.00  0.00     0.237 C 
HETATM   20  H   UNL     1     -40.282  52.911 -54.806  1.00  0.00     0.161 HD
ENDROOT
BRANCH   1  21
HETATM   21  C   UNL     1     -44.033  57.257 -53.739  1.00  0.00     0.239 C 
BRANCH  21  22
HETATM   22  C   UNL     1     -44.843  57.650 -54.977  1.00  0.00     0.066 C 
BRANCH  22  23
HETATM   23  C   UNL     1     -43.901  58.033 -56.089  1.00  0.00    -0.057 A 
HETATM   24  C   UNL     1     -43.748  57.199 -57.206  1.00  0.00     0.007 A 
HETATM   25  C   UNL     1     -42.821  57.515 -58.200  1.00  0.00     0.001 A 
HETATM   26  C   UNL     1     -42.042  58.665 -58.089  1.00  0.00     0.000 A 
HETATM   27  C   UNL     1     -42.193  59.504 -56.987  1.00  0.00     0.001 A 
HETATM   28  C   UNL     1     -43.118  59.191 -55.990  1.00  0.00     0.007 A 
ENDBRANCH  22  23
ENDBRANCH  21  22
ENDBRANCH   1  21
TORSDOF 3
ENDMDL
MODEL 7
REMARK VINA RESULT:      -8.6      3.532      8.268
REMARK  3 active torsions:
REMARK  status: ('A' for Active; 'I' for Inactive)
REMARK    1  A    between atoms: C_4  and  C_5 
REMARK    2  A    between atoms: C_5  and  C_6 
REMARK    3  A    between atoms: C_6  and  N_7 
ROOT
HETATM    1  N   UNL     1     -43.046  58.092 -50.994  1.00  0.00    -0.071 N 
HETATM    2  H   UNL     1     -42.696  58.098 -50.025  1.00  0.00     0.279 HD
HETATM    3  C   UNL     1     -41.889  57.714 -51.894  1.00  0.00     0.237 C 
HETATM    4  C   UNL     1     -41.387  56.332 -51.543  1.00  0.00     0.065 C 
HETATM    5  C   UNL     1     -42.479  55.252 -51.696  1.00  0.00     0.076 C 
HETATM    6  N   UNL     1     -41.966  54.020 -51.069  1.00  0.00    -0.373 N 
HETATM    7  C   UNL     1     -41.063  53.255 -51.828  1.00  0.00     0.056 A 
HETATM    8  C   UNL     1     -41.090  53.254 -53.232  1.00  0.00     0.065 A 
HETATM    9  N   UNL     1     -42.041  54.092 -53.855  1.00  0.00    -0.321 N 
HETATM   10  C   UNL     1     -42.797  55.028 -53.160  1.00  0.00     0.045 A 
HETATM   11  C   UNL     1     -42.386  54.148 -55.184  1.00  0.00     0.097 A 
HETATM   12  C   UNL     1     -43.435  55.026 -55.331  1.00  0.00     0.020 A 
HETATM   13  C   UNL     1     -43.708  55.566 -54.054  1.00  0.00     0.029 A 
HETATM   14  C   UNL     1     -40.202  52.360 -51.183  1.00  0.00     0.031 A 
HETATM   15  C   UNL     1     -39.335  51.546 -51.917  1.00  0.00     0.002 A 
HETATM   16  C   UNL     1     -39.343  51.591 -53.309  1.00  0.00     0.002 A 
HETATM   17  C   UNL     1     -40.230  52.435 -53.975  1.00  0.00     0.032 A 
HETATM   18  C   UNL     1     -43.714  55.671 -50.871  1.00  0.00     0.065 C 
HETATM   19  C   UNL     1     -44.184  57.104 -51.080  1.00  0.00     0.237 C 
HETATM   20  H   UNL     1     -41.669  54.104 -50.100  1.00  0.00     0.161 HD
ENDROOT
BRANCH   1  21
HETATM   21  C   UNL     1     -43.477  59.520 -51.321  1.00  0.00     0.239 C 
BRANCH  21  22
HETATM   22  C   UNL     1     -42.447  60.564 -50.884  1.00  0.00     0.066 C 
BRANCH  22  23
HETATM   23  C   UNL     1     -43.145  61.673 -50.141  1.00  0.00    -0.057 A 
HETATM   24  C   UNL     1     -42.764  63.009 -50.340  1.00  0.00     0.007 A 
HETATM   25  C   UNL     1     -43.356  64.029 -49.597  1.00  0.00     0.001 A 
HETATM   26  C   UNL     1     -44.334  63.728 -48.651  1.00  0.00     0.000 A 
HETATM   27  C   UNL     1     -44.725  62.406 -48.451  1.00  0.00     0.001 A 
HETATM   28  C   UNL     1     -44.134  61.381 -49.191  1.00  0.00     0.007 A 
ENDBRANCH  22  23
ENDBRANCH  21  22
ENDBRANCH   1  21
TORSDOF 3
ENDMDL
MODEL 8
REMARK VINA RESULT:      -8.5      2.251      3.436
REMARK  3 active torsions:
REMARK  status: ('A' for Active; 'I' for Inactive)
REMARK    1  A    between atoms: C_4  and  C_5 
REMARK    2  A    between atoms: C_5  and  C_6 
REMARK    3  A    between atoms: C_6  and  N_7 
ROOT
HETATM    1  N   UNL     1     -41.243  54.693 -55.346  1.00  0.00    -0.071 N 
HETATM    2  H   UNL     1     -41.161  54.732 -56.372  1.00  0.00     0.279 HD
HETATM    3  C   UNL     1     -41.098  56.106 -54.822  1.00  0.00     0.237 C 
HETATM    4  C   UNL     1     -42.202  56.980 -55.370  1.00  0.00     0.065 C 
HETATM    5  C   UNL     1     -43.606  56.470 -54.978  1.00  0.00     0.076 C 
HETATM    6  N   UNL     1     -44.585  57.221 -55.786  1.00  0.00    -0.373 N 
HETATM    7  C   UNL     1     -44.902  58.518 -55.348  1.00  0.00     0.056 A 
HETATM    8  C   UNL     1     -44.830  58.881 -53.993  1.00  0.00     0.065 A 
HETATM    9  N   UNL     1     -44.382  57.893 -53.088  1.00  0.00    -0.321 N 
HETATM   10  C   UNL     1     -43.847  56.679 -53.497  1.00  0.00     0.045 A 
HETATM   11  C   UNL     1     -44.383  57.933 -51.714  1.00  0.00     0.097 A 
HETATM   12  C   UNL     1     -43.963  56.714 -51.238  1.00  0.00     0.020 A 
HETATM   13  C   UNL     1     -43.645  55.915 -52.359  1.00  0.00     0.029 A 
HETATM   14  C   UNL     1     -45.438  59.442 -56.252  1.00  0.00     0.031 A 
HETATM   15  C   UNL     1     -45.816  60.720 -55.830  1.00  0.00     0.002 A 
HETATM   16  C   UNL     1     -45.696  61.079 -54.490  1.00  0.00     0.002 A 
HETATM   17  C   UNL     1     -45.215  60.157 -53.561  1.00  0.00     0.032 A 
HETATM   18  C   UNL     1     -43.739  54.993 -55.406  1.00  0.00     0.065 C 
HETATM   19  C   UNL     1     -42.582  54.090 -55.000  1.00  0.00     0.237 C 
HETATM   20  H   UNL     1     -44.452  57.184 -56.794  1.00  0.00     0.161 HD
ENDROOT
BRANCH   1  21
HETATM   21  C   UNL     1     -40.069  53.858 -54.838  1.00  0.00     0.239 C 
BRANCH  21  22
HETATM   22  C   UNL     1     -40.145  53.583 -53.335  1.00  0.00     0.066 C 
BRANCH  22  23
HETATM   23  C   UNL     1     -39.994  52.104 -53.090  1.00  0.00    -0.057 A 
HETATM   24  C   UNL     1     -39.711  51.624 -51.802  1.00  0.00     0.007 A 
HETATM   25  C   UNL     1     -39.496  50.263 -51.588  1.00  0.00     0.001 A 
HETATM   26  C   UNL     1     -39.563  49.368 -52.654  1.00  0.00     0.000 A 
HETATM   27  C   UNL     1     -39.851  49.834 -53.936  1.00  0.00     0.001 A 
HETATM   28  C   UNL     1     -40.066  51.195 -54.155  1.00  0.00     0.007 A 
ENDBRANCH  22  23
ENDBRANCH  21  22
ENDBRANCH   1  21
TORSDOF 3
ENDMDL
MODEL 9
REMARK VINA RESULT:      -8.4      2.339      7.253
REMARK  3 active torsions:
REMARK  status: ('A' for Active; 'I' for Inactive)
REMARK    1  A    between atoms: C_4  and  C_5 
REMARK    2  A    between atoms: C_5  and  C_6 
REMARK    3  A    between atoms: C_6  and  N_7 
ROOT
HETATM    1  N   UNL     1     -42.943  58.039 -50.962  1.00  0.00    -0.071 N 
HETATM    2  H   UNL     1     -42.614  58.037 -49.985  1.00  0.00     0.279 HD
HETATM    3  C   UNL     1     -41.776  57.638 -51.838  1.00  0.00     0.237 C 
HETATM    4  C   UNL     1     -41.310  56.245 -51.478  1.00  0.00     0.065 C 
HETATM    5  C   UNL     1     -42.422  55.188 -51.655  1.00  0.00     0.076 C 
HETATM    6  N   UNL     1     -41.948  53.945 -51.020  1.00  0.00    -0.373 N 
HETATM    7  C   UNL     1     -41.046  53.162 -51.760  1.00  0.00     0.056 A 
HETATM    8  C   UNL     1     -41.044  53.163 -53.165  1.00  0.00     0.065 A 
HETATM    9  N   UNL     1     -41.964  54.022 -53.807  1.00  0.00    -0.321 N 
HETATM   10  C   UNL     1     -42.713  54.972 -53.126  1.00  0.00     0.045 A 
HETATM   11  C   UNL     1     -42.280  54.086 -55.142  1.00  0.00     0.097 A 
HETATM   12  C   UNL     1     -43.306  54.986 -55.310  1.00  0.00     0.020 A 
HETATM   13  C   UNL     1     -43.595  55.530 -54.038  1.00  0.00     0.029 A 
HETATM   14  C   UNL     1     -40.217  52.249 -51.099  1.00  0.00     0.031 A 
HETATM   15  C   UNL     1     -39.353  51.417 -51.816  1.00  0.00     0.002 A 
HETATM   16  C   UNL     1     -39.331  51.463 -53.208  1.00  0.00     0.002 A 
HETATM   17  C   UNL     1     -40.186  52.327 -53.891  1.00  0.00     0.032 A 
HETATM   18  C   UNL     1     -43.665  55.632 -50.856  1.00  0.00     0.065 C 
HETATM   19  C   UNL     1     -44.099  57.075 -51.073  1.00  0.00     0.237 C 
HETATM   20  H   UNL     1     -41.670  54.022 -50.044  1.00  0.00     0.161 HD
ENDROOT
BRANCH   1  21
HETATM   21  C   UNL     1     -43.337  59.476 -51.295  1.00  0.00     0.239 C 
BRANCH  21  22
HETATM   22  C   UNL     1     -44.626  59.561 -52.114  1.00  0.00     0.066 C 
BRANCH  22  23
HETATM   23  C   UNL     1     -44.291  59.492 -53.582  1.00  0.00    -0.057 A 
HETATM   24  C   UNL     1     -45.127  58.797 -54.468  1.00  0.00     0.007 A 
HETATM   25  C   UNL     1     -44.778  58.667 -55.812  1.00  0.00     0.001 A 
HETATM   26  C   UNL     1     -43.595  59.231 -56.285  1.00  0.00     0.000 A 
HETATM   27  C   UNL     1     -42.762  59.930 -55.414  1.00  0.00     0.001 A 
HETATM   28  C   UNL     1     -43.106  60.061 -54.069  1.00  0.00     0.007 A 
ENDBRANCH  22  23
ENDBRANCH  21  22
ENDBRANCH   1  21
TORSDOF 3
ENDMDL
MODEL 10
REMARK VINA RESULT:      -8.3      2.321      3.555
REMARK  3 active torsions:
REMARK  status: ('A' for Active; 'I' for Inactive)
REMARK    1  A    between atoms: C_4  and  C_5 
REMARK    2  A    between atoms: C_5  and  C_6 
REMARK    3  A    between atoms: C_6  and  N_7 
ROOT
HETATM    1  N   UNL     1     -42.527  55.445 -53.776  1.00  0.00    -0.071 N 
HETATM    2  H   UNL     1     -42.624  55.999 -52.912  1.00  0.00     0.279 HD
HETATM    3  C   UNL     1     -43.897  55.341 -54.409  1.00  0.00     0.237 C 
HETATM    4  C   UNL     1     -44.413  56.718 -54.763  1.00  0.00     0.065 C 
HETATM    5  C   UNL     1     -43.487  57.457 -55.754  1.00  0.00     0.076 C 
HETATM    6  N   UNL     1     -43.932  58.861 -55.802  1.00  0.00    -0.373 N 
HETATM    7  C   UNL     1     -45.056  59.140 -56.600  1.00  0.00     0.056 A 
HETATM    8  C   UNL     1     -45.376  58.363 -57.726  1.00  0.00     0.065 A 
HETATM    9  N   UNL     1     -44.541  57.258 -58.001  1.00  0.00    -0.321 N 
HETATM   10  C   UNL     1     -43.561  56.813 -57.123  1.00  0.00     0.045 A 
HETATM   11  C   UNL     1     -44.531  56.454 -59.115  1.00  0.00     0.097 A 
HETATM   12  C   UNL     1     -43.481  55.572 -59.013  1.00  0.00     0.020 A 
HETATM   13  C   UNL     1     -42.856  55.810 -57.769  1.00  0.00     0.029 A 
HETATM   14  C   UNL     1     -45.803  60.298 -56.361  1.00  0.00     0.031 A 
HETATM   15  C   UNL     1     -46.890  60.629 -57.175  1.00  0.00     0.002 A 
HETATM   16  C   UNL     1     -47.222  59.823 -58.262  1.00  0.00     0.002 A 
HETATM   17  C   UNL     1     -46.459  58.693 -58.551  1.00  0.00     0.032 A 
HETATM   18  C   UNL     1     -42.056  57.480 -55.177  1.00  0.00     0.065 C 
HETATM   19  C   UNL     1     -41.533  56.141 -54.674  1.00  0.00     0.237 C 
HETATM   20  H   UNL     1     -43.972  59.347 -54.910  1.00  0.00     0.161 HD
ENDROOT
BRANCH   1  21
HETATM   21  C   UNL     1     -42.070  54.049 -53.359  1.00  0.00     0.239 C 
BRANCH  21  22
HETATM   22  C   UNL     1     -40.625  53.753 -53.766  1.00  0.00     0.066 C 
BRANCH  22  23
HETATM   23  C   UNL     1     -40.277  52.339 -53.378  1.00  0.00    -0.057 A 
HETATM   24  C   UNL     1     -39.879  52.041 -52.066  1.00  0.00     0.007 A 
HETATM   25  C   UNL     1     -39.484  50.747 -51.725  1.00  0.00     0.001 A 
HETATM   26  C   UNL     1     -39.485  49.740 -52.688  1.00  0.00     0.000 A 
HETATM   27  C   UNL     1     -39.886  50.024 -53.992  1.00  0.00     0.001 A 
HETATM   28  C   UNL     1     -40.281  51.317 -54.338  1.00  0.00     0.007 A 
ENDBRANCH  22  23
ENDBRANCH  21  22
ENDBRANCH   1  21
TORSDOF 3
ENDMDL
