MODEL 1
REMARK VINA RESULT:      -8.9      0.000      0.000
REMARK  3 active torsions:
REMARK  status: ('A' for Active; 'I' for Inactive)
REMARK    1  A    between atoms: N_4  and  C_5 
REMARK    2  A    between atoms: C_5  and  C_6 
REMARK       I    between atoms: C_6  and  N_7 
REMARK    3  A    between atoms: N_7  and  C_8 
ROOT
HETATM    1  C   UNL     1     -41.777  55.316 -49.812  1.00  0.00     0.257 C 
ENDROOT
BRANCH   1   2
HETATM    2  N   UNL     1     -42.040  55.959 -51.096  1.00  0.00    -0.225 N 
HETATM    3  N   UNL     1     -42.569  55.155 -52.077  1.00  0.00    -0.173 NA
HETATM    4  C   UNL     1     -42.735  55.635 -53.271  1.00  0.00     0.062 A 
HETATM    5  C   UNL     1     -43.304  54.711 -54.321  1.00  0.00     0.073 C 
HETATM    6  C   UNL     1     -42.387  57.021 -53.643  1.00  0.00     0.006 A 
HETATM    7  C   UNL     1     -41.811  57.816 -52.659  1.00  0.00     0.046 A 
HETATM    8  C   UNL     1     -42.606  57.546 -54.923  1.00  0.00     0.014 A 
HETATM    9  C   UNL     1     -41.581  57.254 -51.316  1.00  0.00     0.275 A 
HETATM   10  C   UNL     1     -41.452  59.140 -52.942  1.00  0.00     0.018 A 
HETATM   11  O   UNL     1     -41.018  57.934 -50.459  1.00  0.00    -0.266 OA
HETATM   12  C   UNL     1     -41.672  59.663 -54.216  1.00  0.00     0.001 A 
HETATM   13  C   UNL     1     -42.247  58.867 -55.205  1.00  0.00     0.001 A 
ENDBRANCH   1   2
BRANCH   1  14
HETATM   14  C   UNL     1     -40.605  54.337 -49.890  1.00  0.00     0.238 C 
HETATM   15  N   UNL     1     -40.894  53.172 -50.571  1.00  0.00    -0.351 N 
HETATM   16  H   UNL     1     -41.707  53.191 -51.186  1.00  0.00     0.163 HD
HETATM   17  O   UNL     1     -39.505  54.566 -49.392  1.00  0.00    -0.272 OA
BRANCH  15  18
HETATM   18  C   UNL     1     -39.902  52.145 -50.778  1.00  0.00     0.118 C 
HETATM   19  C   UNL     1     -39.909  51.599 -52.181  1.00  0.00    -0.029 A 
HETATM   20  C   UNL     1     -39.789  50.204 -52.170  1.00  0.00    -0.050 A 
HETATM   21  C   UNL     1     -39.962  52.294 -53.381  1.00  0.00     0.010 A 
HETATM   22  C   UNL     1     -39.737  49.477 -53.349  1.00  0.00     0.007 A 
HETATM   23  C   UNL     1     -39.672  49.686 -50.771  1.00  0.00     0.041 C 
HETATM   24  C   UNL     1     -39.814  50.171 -54.559  1.00  0.00     0.001 A 
HETATM   25  C   UNL     1     -39.923  51.569 -54.575  1.00  0.00     0.001 A 
HETATM   26  C   UNL     1     -40.214  50.871 -49.964  1.00  0.00     0.034 C 
ENDBRANCH  15  18
ENDBRANCH   1  14
TORSDOF 3
ENDMDL
MODEL 2
REMARK VINA RESULT:      -8.7      1.355      6.872
REMARK  3 active torsions:
REMARK  status: ('A' for Active; 'I' for Inactive)
REMARK    1  A    between atoms: N_4  and  C_5 
REMARK    2  A    between atoms: C_5  and  C_6 
REMARK       I    between atoms: C_6  and  N_7 
REMARK    3  A    between atoms: N_7  and  C_8 
ROOT
HETATM    1  C   UNL     1     -40.837  55.212 -50.451  1.00  0.00     0.257 C 
ENDROOT
BRANCH   1   2
HETATM    2  N   UNL     1     -40.508  54.135 -51.379  1.00  0.00    -0.225 N 
HETATM    3  N   UNL     1     -40.602  54.439 -52.716  1.00  0.00    -0.173 NA
HETATM    4  C   UNL     1     -40.419  53.503 -53.596  1.00  0.00     0.062 A 
HETATM    5  C   UNL     1     -40.548  53.880 -55.053  1.00  0.00     0.073 C 
HETATM    6  C   UNL     1     -40.106  52.105 -53.239  1.00  0.00     0.006 A 
HETATM    7  C   UNL     1     -40.056  51.793 -51.885  1.00  0.00     0.046 A 
HETATM    8  C   UNL     1     -39.869  51.108 -54.193  1.00  0.00     0.014 A 
HETATM    9  C   UNL     1     -40.309  52.848 -50.889  1.00  0.00     0.275 A 
HETATM   10  C   UNL     1     -39.768  50.486 -51.473  1.00  0.00     0.018 A 
HETATM   11  O   UNL     1     -40.324  52.565 -49.691  1.00  0.00    -0.266 OA
HETATM   12  C   UNL     1     -39.531  49.493 -52.423  1.00  0.00     0.001 A 
HETATM   13  C   UNL     1     -39.583  49.804 -53.781  1.00  0.00     0.001 A 
ENDBRANCH   1   2
BRANCH   1  14
HETATM   14  C   UNL     1     -41.909  56.146 -51.015  1.00  0.00     0.238 C 
HETATM   15  N   UNL     1     -41.402  57.212 -51.729  1.00  0.00    -0.351 N 
HETATM   16  H   UNL     1     -40.441  57.127 -52.060  1.00  0.00     0.163 HD
HETATM   17  O   UNL     1     -43.113  55.965 -50.847  1.00  0.00    -0.272 OA
BRANCH  15  18
HETATM   18  C   UNL     1     -42.261  58.180 -52.366  1.00  0.00     0.118 C 
HETATM   19  C   UNL     1     -42.281  58.050 -53.865  1.00  0.00    -0.029 A 
HETATM   20  C   UNL     1     -42.215  59.309 -54.474  1.00  0.00    -0.050 A 
HETATM   21  C   UNL     1     -42.403  56.901 -54.634  1.00  0.00     0.010 A 
HETATM   22  C   UNL     1     -42.252  59.445 -55.852  1.00  0.00     0.007 A 
HETATM   23  C   UNL     1     -42.165  60.398 -53.448  1.00  0.00     0.041 C 
HETATM   24  C   UNL     1     -42.352  58.289 -56.630  1.00  0.00     0.001 A 
HETATM   25  C   UNL     1     -42.429  57.027 -56.025  1.00  0.00     0.001 A 
HETATM   26  C   UNL     1     -41.728  59.620 -52.202  1.00  0.00     0.034 C 
ENDBRANCH  15  18
ENDBRANCH   1  14
TORSDOF 3
ENDMDL
MODEL 3
REMARK VINA RESULT:      -8.6      2.860      4.185
REMARK  3 active torsions:
REMARK  status: ('A' for Active; 'I' for Inactive)
REMARK    1  A    between atoms: N_4  and  C_5 
REMARK    2  A    between atoms: C_5  and  C_6 
REMARK       I    between atoms: C_6  and  N_7 
REMARK    3  A    between atoms: N_7  and  C_8 
ROOT
HETATM    1  C   UNL     1     -43.150  56.334 -53.810  1.00  0.00     0.257 C 
ENDROOT
BRANCH   1   2
HETATM    2  N   UNL     1     -42.850  56.822 -55.152  1.00  0.00    -0.225 N 
HETATM    3  N   UNL     1     -42.624  58.173 -55.268  1.00  0.00    -0.173 NA
HETATM    4  C   UNL     1     -42.449  58.690 -56.445  1.00  0.00     0.062 A 
HETATM    5  C   UNL     1     -42.221  60.181 -56.524  1.00  0.00     0.073 C 
HETATM    6  C   UNL     1     -42.474  57.898 -57.690  1.00  0.00     0.006 A 
HETATM    7  C   UNL     1     -42.747  56.540 -57.571  1.00  0.00     0.046 A 
HETATM    8  C   UNL     1     -42.244  58.455 -58.954  1.00  0.00     0.014 A 
HETATM    9  C   UNL     1     -42.991  55.964 -56.238  1.00  0.00     0.275 A 
HETATM   10  C   UNL     1     -42.790  55.727 -58.711  1.00  0.00     0.018 A 
HETATM   11  O   UNL     1     -43.291  54.775 -56.132  1.00  0.00    -0.266 OA
HETATM   12  C   UNL     1     -42.559  56.281 -59.970  1.00  0.00     0.001 A 
HETATM   13  C   UNL     1     -42.288  57.643 -60.091  1.00  0.00     0.001 A 
ENDBRANCH   1   2
BRANCH   1  14
HETATM   14  C   UNL     1     -41.889  55.887 -53.068  1.00  0.00     0.238 C 
HETATM   15  N   UNL     1     -41.672  54.525 -53.107  1.00  0.00    -0.351 N 
HETATM   16  H   UNL     1     -42.163  54.003 -53.832  1.00  0.00     0.163 HD
HETATM   17  O   UNL     1     -41.138  56.668 -52.489  1.00  0.00    -0.272 OA
BRANCH  15  18
HETATM   18  C   UNL     1     -40.516  53.920 -52.492  1.00  0.00     0.118 C 
HETATM   19  C   UNL     1     -40.273  52.510 -52.961  1.00  0.00    -0.029 A 
HETATM   20  C   UNL     1     -39.938  51.680 -51.884  1.00  0.00    -0.050 A 
HETATM   21  C   UNL     1     -40.294  52.012 -54.256  1.00  0.00     0.010 A 
HETATM   22  C   UNL     1     -39.637  50.341 -52.074  1.00  0.00     0.007 A 
HETATM   23  C   UNL     1     -39.906  52.452 -50.602  1.00  0.00     0.041 C 
HETATM   24  C   UNL     1     -39.680  49.831 -53.373  1.00  0.00     0.001 A 
HETATM   25  C   UNL     1     -40.003  50.660 -54.456  1.00  0.00     0.001 A 
HETATM   26  C   UNL     1     -40.717  53.697 -50.978  1.00  0.00     0.034 C 
ENDBRANCH  15  18
ENDBRANCH   1  14
TORSDOF 3
ENDMDL
MODEL 4
REMARK VINA RESULT:      -8.5      1.967      6.962
REMARK  3 active torsions:
REMARK  status: ('A' for Active; 'I' for Inactive)
REMARK    1  A    between atoms: N_4  and  C_5 
REMARK    2  A    between atoms: C_5  and  C_6 
REMARK       I    between atoms: C_6  and  N_7 
REMARK    3  A    between atoms: N_7  and  C_8 
ROOT
HETATM    1  C   UNL     1     -41.018  55.159 -50.543  1.00  0.00     0.257 C 
ENDROOT
BRANCH   1   2
HETATM    2  N   UNL     1     -40.636  54.122 -51.496  1.00  0.00    -0.225 N 
HETATM    3  N   UNL     1     -40.753  54.449 -52.825  1.00  0.00    -0.173 NA
HETATM    4  C   UNL     1     -40.525  53.543 -53.726  1.00  0.00     0.062 A 
HETATM    5  C   UNL     1     -40.681  53.943 -55.173  1.00  0.00     0.073 C 
HETATM    6  C   UNL     1     -40.134  52.157 -53.400  1.00  0.00     0.006 A 
HETATM    7  C   UNL     1     -40.061  51.819 -52.053  1.00  0.00     0.046 A 
HETATM    8  C   UNL     1     -39.849  51.194 -54.377  1.00  0.00     0.014 A 
HETATM    9  C   UNL     1     -40.366  52.837 -51.033  1.00  0.00     0.275 A 
HETATM   10  C   UNL     1     -39.700  50.521 -51.671  1.00  0.00     0.018 A 
HETATM   11  O   UNL     1     -40.359  52.529 -49.842  1.00  0.00    -0.266 OA
HETATM   12  C   UNL     1     -39.415  49.563 -52.643  1.00  0.00     0.001 A 
HETATM   13  C   UNL     1     -39.490  49.899 -53.994  1.00  0.00     0.001 A 
ENDBRANCH   1   2
BRANCH   1  14
HETATM   14  C   UNL     1     -42.476  55.588 -50.718  1.00  0.00     0.238 C 
HETATM   15  N   UNL     1     -42.656  56.591 -51.649  1.00  0.00    -0.351 N 
HETATM   16  H   UNL     1     -41.899  56.737 -52.316  1.00  0.00     0.163 HD
HETATM   17  O   UNL     1     -43.404  55.086 -50.087  1.00  0.00    -0.272 OA
BRANCH  15  18
HETATM   18  C   UNL     1     -43.965  57.101 -51.975  1.00  0.00     0.118 C 
HETATM   19  C   UNL     1     -44.106  57.467 -53.429  1.00  0.00    -0.029 A 
HETATM   20  C   UNL     1     -44.778  58.687 -53.570  1.00  0.00    -0.050 A 
HETATM   21  C   UNL     1     -43.713  56.743 -54.546  1.00  0.00     0.010 A 
HETATM   22  C   UNL     1     -45.056  59.214 -54.822  1.00  0.00     0.007 A 
HETATM   23  C   UNL     1     -45.167  59.243 -52.237  1.00  0.00     0.041 C 
HETATM   24  C   UNL     1     -44.643  58.500 -55.948  1.00  0.00     0.001 A 
HETATM   25  C   UNL     1     -43.979  57.273 -55.812  1.00  0.00     0.001 A 
HETATM   26  C   UNL     1     -44.237  58.464 -51.301  1.00  0.00     0.034 C 
ENDBRANCH  15  18
ENDBRANCH   1  14
TORSDOF 3
ENDMDL
MODEL 5
REMARK VINA RESULT:      -8.4      3.461      5.046
REMARK  3 active torsions:
REMARK  status: ('A' for Active; 'I' for Inactive)
REMARK    1  A    between atoms: N_4  and  C_5 
REMARK    2  A    between atoms: C_5  and  C_6 
REMARK       I    between atoms: C_6  and  N_7 
REMARK    3  A    between atoms: N_7  and  C_8 
ROOT
HETATM    1  C   UNL     1     -42.506  57.579 -54.762  1.00  0.00     0.257 C 
ENDROOT
BRANCH   1   2
HETATM    2  N   UNL     1     -42.514  57.889 -56.188  1.00  0.00    -0.225 N 
HETATM    3  N   UNL     1     -42.768  56.835 -57.033  1.00  0.00    -0.173 NA
HETATM    4  C   UNL     1     -42.692  57.017 -58.316  1.00  0.00     0.062 A 
HETATM    5  C   UNL     1     -42.964  55.827 -59.206  1.00  0.00     0.073 C 
HETATM    6  C   UNL     1     -42.348  58.314 -58.932  1.00  0.00     0.006 A 
HETATM    7  C   UNL     1     -42.048  59.364 -58.072  1.00  0.00     0.046 A 
HETATM    8  C   UNL     1     -42.308  58.514 -60.317  1.00  0.00     0.014 A 
HETATM    9  C   UNL     1     -42.089  59.143 -56.616  1.00  0.00     0.275 A 
HETATM   10  C   UNL     1     -41.708  60.622 -58.586  1.00  0.00     0.018 A 
HETATM   11  O   UNL     1     -41.768  60.052 -55.851  1.00  0.00    -0.266 OA
HETATM   12  C   UNL     1     -41.670  60.822 -59.966  1.00  0.00     0.001 A 
HETATM   13  C   UNL     1     -41.968  59.769 -60.830  1.00  0.00     0.001 A 
ENDBRANCH   1   2
BRANCH   1  14
HETATM   14  C   UNL     1     -42.691  56.084 -54.499  1.00  0.00     0.238 C 
HETATM   15  N   UNL     1     -41.511  55.368 -54.492  1.00  0.00    -0.351 N 
HETATM   16  H   UNL     1     -40.652  55.902 -54.364  1.00  0.00     0.163 HD
HETATM   17  O   UNL     1     -43.789  55.566 -54.312  1.00  0.00    -0.272 OA
BRANCH  15  18
HETATM   18  C   UNL     1     -41.482  53.951 -54.227  1.00  0.00     0.118 C 
HETATM   19  C   UNL     1     -41.159  53.629 -52.792  1.00  0.00    -0.029 A 
HETATM   20  C   UNL     1     -40.247  52.569 -52.715  1.00  0.00    -0.050 A 
HETATM   21  C   UNL     1     -41.678  54.200 -51.639  1.00  0.00     0.010 A 
HETATM   22  C   UNL     1     -39.825  52.072 -51.492  1.00  0.00     0.007 A 
HETATM   23  C   UNL     1     -39.890  52.069 -54.078  1.00  0.00     0.041 C 
HETATM   24  C   UNL     1     -40.327  52.660 -50.329  1.00  0.00     0.001 A 
HETATM   25  C   UNL     1     -41.248  53.714 -50.401  1.00  0.00     0.001 A 
HETATM   26  C   UNL     1     -40.314  53.251 -54.956  1.00  0.00     0.034 C 
ENDBRANCH  15  18
ENDBRANCH   1  14
TORSDOF 3
ENDMDL
MODEL 6
REMARK VINA RESULT:      -8.4      3.509      5.221
REMARK  3 active torsions:
REMARK  status: ('A' for Active; 'I' for Inactive)
REMARK    1  A    between atoms: N_4  and  C_5 
REMARK    2  A    between atoms: C_5  and  C_6 
REMARK       I    between atoms: C_6  and  N_7 
REMARK    3  A    between atoms: N_7  and  C_8 
ROOT
HETATM    1  C   UNL     1     -42.441  59.590 -54.552  1.00  0.00     0.257 C 
ENDROOT
BRANCH   1   2
HETATM    2  N   UNL     1     -42.488  59.176 -55.951  1.00  0.00    -0.225 N 
HETATM    3  N   UNL     1     -42.689  57.835 -56.178  1.00  0.00    -0.173 NA
HETATM    4  C   UNL     1     -42.643  57.382 -57.393  1.00  0.00     0.062 A 
HETATM    5  C   UNL     1     -42.855  55.901 -57.593  1.00  0.00     0.073 C 
HETATM    6  C   UNL     1     -42.388  58.239 -58.568  1.00  0.00     0.006 A 
HETATM    7  C   UNL     1     -42.140  59.586 -58.329  1.00  0.00     0.046 A 
HETATM    8  C   UNL     1     -42.380  57.751 -59.881  1.00  0.00     0.014 A 
HETATM    9  C   UNL     1     -42.146  60.088 -56.944  1.00  0.00     0.275 A 
HETATM   10  C   UNL     1     -41.885  60.457 -59.396  1.00  0.00     0.018 A 
HETATM   11  O   UNL     1     -41.870  61.267 -56.721  1.00  0.00    -0.266 OA
HETATM   12  C   UNL     1     -41.879  59.971 -60.703  1.00  0.00     0.001 A 
HETATM   13  C   UNL     1     -42.125  58.621 -60.945  1.00  0.00     0.001 A 
ENDBRANCH   1   2
BRANCH   1  14
HETATM   14  C   UNL     1     -41.453  58.751 -53.739  1.00  0.00     0.238 C 
HETATM   15  N   UNL     1     -41.949  57.524 -53.350  1.00  0.00    -0.351 N 
HETATM   16  H   UNL     1     -42.759  57.175 -53.860  1.00  0.00     0.163 HD
HETATM   17  O   UNL     1     -40.320  59.136 -53.457  1.00  0.00    -0.272 OA
BRANCH  15  18
HETATM   18  C   UNL     1     -41.150  56.581 -52.607  1.00  0.00     0.118 C 
HETATM   19  C   UNL     1     -40.852  55.326 -53.382  1.00  0.00    -0.029 A 
HETATM   20  C   UNL     1     -41.003  54.194 -52.570  1.00  0.00    -0.050 A 
HETATM   21  C   UNL     1     -40.426  55.200 -54.696  1.00  0.00     0.010 A 
HETATM   22  C   UNL     1     -40.749  52.922 -53.057  1.00  0.00     0.007 A 
HETATM   23  C   UNL     1     -41.394  54.581 -51.179  1.00  0.00     0.041 C 
HETATM   24  C   UNL     1     -40.342  52.789 -54.386  1.00  0.00     0.001 A 
HETATM   25  C   UNL     1     -40.179  53.919 -55.199  1.00  0.00     0.001 A 
HETATM   26  C   UNL     1     -41.916  56.005 -51.395  1.00  0.00     0.034 C 
ENDBRANCH  15  18
ENDBRANCH   1  14
TORSDOF 3
ENDMDL
MODEL 7
REMARK VINA RESULT:      -8.3      3.515      5.464
REMARK  3 active torsions:
REMARK  status: ('A' for Active; 'I' for Inactive)
REMARK    1  A    between atoms: N_4  and  C_5 
REMARK    2  A    between atoms: C_5  and  C_6 
REMARK       I    between atoms: C_6  and  N_7 
REMARK    3  A    between atoms: N_7  and  C_8 
ROOT
HETATM    1  C   UNL     1     -42.314  59.623 -54.411  1.00  0.00     0.257 C 
ENDROOT
BRANCH   1   2
HETATM    2  N   UNL     1     -42.173  59.409 -55.847  1.00  0.00    -0.225 N 
HETATM    3  N   UNL     1     -41.650  60.457 -56.566  1.00  0.00    -0.173 NA
HETATM    4  C   UNL     1     -41.588  60.373 -57.860  1.00  0.00     0.062 A 
HETATM    5  C   UNL     1     -41.021  61.555 -58.609  1.00  0.00     0.073 C 
HETATM    6  C   UNL     1     -42.050  59.193 -58.618  1.00  0.00     0.006 A 
HETATM    7  C   UNL     1     -42.619  58.155 -57.890  1.00  0.00     0.046 A 
HETATM    8  C   UNL     1     -41.942  59.092 -60.011  1.00  0.00     0.014 A 
HETATM    9  C   UNL     1     -42.730  58.273 -56.426  1.00  0.00     0.275 A 
HETATM   10  C   UNL     1     -43.082  57.006 -58.544  1.00  0.00     0.018 A 
HETATM   11  O   UNL     1     -43.286  57.383 -55.782  1.00  0.00    -0.266 OA
HETATM   12  C   UNL     1     -42.974  56.904 -59.931  1.00  0.00     0.001 A 
HETATM   13  C   UNL     1     -42.406  57.946 -60.663  1.00  0.00     0.001 A 
ENDBRANCH   1   2
BRANCH   1  14
HETATM   14  C   UNL     1     -41.334  58.769 -53.605  1.00  0.00     0.238 C 
HETATM   15  N   UNL     1     -41.828  57.527 -53.259  1.00  0.00    -0.351 N 
HETATM   16  H   UNL     1     -42.627  57.188 -53.793  1.00  0.00     0.163 HD
HETATM   17  O   UNL     1     -40.209  59.153 -53.292  1.00  0.00    -0.272 OA
BRANCH  15  18
HETATM   18  C   UNL     1     -41.035  56.569 -52.529  1.00  0.00     0.118 C 
HETATM   19  C   UNL     1     -40.797  55.297 -53.298  1.00  0.00    -0.029 A 
HETATM   20  C   UNL     1     -40.957  54.179 -52.470  1.00  0.00    -0.050 A 
HETATM   21  C   UNL     1     -40.414  55.145 -54.623  1.00  0.00     0.010 A 
HETATM   22  C   UNL     1     -40.755  52.895 -52.949  1.00  0.00     0.007 A 
HETATM   23  C   UNL     1     -41.295  54.592 -51.072  1.00  0.00     0.041 C 
HETATM   24  C   UNL     1     -40.391  52.736 -54.288  1.00  0.00     0.001 A 
HETATM   25  C   UNL     1     -40.220  53.853 -55.118  1.00  0.00     0.001 A 
HETATM   26  C   UNL     1     -41.781  56.029 -51.289  1.00  0.00     0.034 C 
ENDBRANCH  15  18
ENDBRANCH   1  14
TORSDOF 3
ENDMDL
MODEL 8
REMARK VINA RESULT:      -8.3      2.071      6.821
REMARK  3 active torsions:
REMARK  status: ('A' for Active; 'I' for Inactive)
REMARK    1  A    between atoms: N_4  and  C_5 
REMARK    2  A    between atoms: C_5  and  C_6 
REMARK       I    between atoms: C_6  and  N_7 
REMARK    3  A    between atoms: N_7  and  C_8 
ROOT
HETATM    1  C   UNL     1     -41.918  56.795 -51.647  1.00  0.00     0.257 C 
ENDROOT
BRANCH   1   2
HETATM    2  N   UNL     1     -41.296  55.520 -51.990  1.00  0.00    -0.225 N 
HETATM    3  N   UNL     1     -41.030  55.317 -53.323  1.00  0.00    -0.173 NA
HETATM    4  C   UNL     1     -40.569  54.168 -53.712  1.00  0.00     0.062 A 
HETATM    5  C   UNL     1     -40.307  53.986 -55.188  1.00  0.00     0.073 C 
HETATM    6  C   UNL     1     -40.305  53.047 -52.789  1.00  0.00     0.006 A 
HETATM    7  C   UNL     1     -40.618  53.242 -51.449  1.00  0.00     0.046 A 
HETATM    8  C   UNL     1     -39.769  51.823 -53.209  1.00  0.00     0.014 A 
HETATM    9  C   UNL     1     -41.185  54.532 -51.018  1.00  0.00     0.275 A 
HETATM   10  C   UNL     1     -40.397  52.220 -50.517  1.00  0.00     0.018 A 
HETATM   11  O   UNL     1     -41.518  54.689 -49.844  1.00  0.00    -0.266 OA
HETATM   12  C   UNL     1     -39.862  51.002 -50.935  1.00  0.00     0.001 A 
HETATM   13  C   UNL     1     -39.550  50.803 -52.279  1.00  0.00     0.001 A 
ENDBRANCH   1   2
BRANCH   1  14
HETATM   14  C   UNL     1     -42.826  57.310 -52.765  1.00  0.00     0.238 C 
HETATM   15  N   UNL     1     -42.150  57.956 -53.780  1.00  0.00    -0.351 N 
HETATM   16  H   UNL     1     -41.149  57.779 -53.849  1.00  0.00     0.163 HD
HETATM   17  O   UNL     1     -44.046  57.163 -52.761  1.00  0.00    -0.272 OA
BRANCH  15  18
HETATM   18  C   UNL     1     -42.834  58.479 -54.937  1.00  0.00     0.118 C 
HETATM   19  C   UNL     1     -42.815  57.531 -56.107  1.00  0.00    -0.029 A 
HETATM   20  C   UNL     1     -42.543  58.217 -57.297  1.00  0.00    -0.050 A 
HETATM   21  C   UNL     1     -43.075  56.168 -56.121  1.00  0.00     0.010 A 
HETATM   22  C   UNL     1     -42.508  57.557 -58.515  1.00  0.00     0.007 A 
HETATM   23  C   UNL     1     -42.374  59.682 -57.045  1.00  0.00     0.041 C 
HETATM   24  C   UNL     1     -42.745  56.181 -58.531  1.00  0.00     0.001 A 
HETATM   25  C   UNL     1     -43.029  55.492 -57.344  1.00  0.00     0.001 A 
HETATM   26  C   UNL     1     -42.103  59.700 -55.536  1.00  0.00     0.034 C 
ENDBRANCH  15  18
ENDBRANCH   1  14
TORSDOF 3
ENDMDL
MODEL 9
REMARK VINA RESULT:      -8.2      1.566      2.459
REMARK  3 active torsions:
REMARK  status: ('A' for Active; 'I' for Inactive)
REMARK    1  A    between atoms: N_4  and  C_5 
REMARK    2  A    between atoms: C_5  and  C_6 
REMARK       I    between atoms: C_6  and  N_7 
REMARK    3  A    between atoms: N_7  and  C_8 
ROOT
HETATM    1  C   UNL     1     -42.522  55.671 -51.101  1.00  0.00     0.257 C 
ENDROOT
BRANCH   1   2
HETATM    2  N   UNL     1     -42.417  56.337 -52.395  1.00  0.00    -0.225 N 
HETATM    3  N   UNL     1     -42.084  57.670 -52.364  1.00  0.00    -0.173 NA
HETATM    4  C   UNL     1     -42.070  58.348 -53.471  1.00  0.00     0.062 A 
HETATM    5  C   UNL     1     -41.714  59.813 -53.387  1.00  0.00     0.073 C 
HETATM    6  C   UNL     1     -42.391  57.759 -54.786  1.00  0.00     0.006 A 
HETATM    7  C   UNL     1     -42.771  56.422 -54.806  1.00  0.00     0.046 A 
HETATM    8  C   UNL     1     -42.335  58.485 -55.982  1.00  0.00     0.014 A 
HETATM    9  C   UNL     1     -42.831  55.667 -53.542  1.00  0.00     0.275 A 
HETATM   10  C   UNL     1     -43.094  55.798 -56.018  1.00  0.00     0.018 A 
HETATM   11  O   UNL     1     -43.222  54.500 -53.546  1.00  0.00    -0.266 OA
HETATM   12  C   UNL     1     -43.036  56.521 -57.209  1.00  0.00     0.001 A 
HETATM   13  C   UNL     1     -42.658  57.863 -57.191  1.00  0.00     0.001 A 
ENDBRANCH   1   2
BRANCH   1  14
HETATM   14  C   UNL     1     -41.280  54.836 -50.784  1.00  0.00     0.238 C 
HETATM   15  N   UNL     1     -41.295  53.577 -51.347  1.00  0.00    -0.351 N 
HETATM   16  H   UNL     1     -41.939  53.430 -52.123  1.00  0.00     0.163 HD
HETATM   17  O   UNL     1     -40.353  55.248 -50.090  1.00  0.00    -0.272 OA
BRANCH  15  18
HETATM   18  C   UNL     1     -40.195  52.658 -51.188  1.00  0.00     0.118 C 
HETATM   19  C   UNL     1     -40.026  51.736 -52.365  1.00  0.00    -0.029 A 
HETATM   20  C   UNL     1     -39.772  50.427 -51.938  1.00  0.00    -0.050 A 
HETATM   21  C   UNL     1     -40.042  52.046 -53.718  1.00  0.00     0.010 A 
HETATM   22  C   UNL     1     -39.548  49.404 -52.846  1.00  0.00     0.007 A 
HETATM   23  C   UNL     1     -39.728  50.350 -50.445  1.00  0.00     0.041 C 
HETATM   24  C   UNL     1     -39.586  49.708 -54.209  1.00  0.00     0.001 A 
HETATM   25  C   UNL     1     -39.829  51.019 -54.641  1.00  0.00     0.001 A 
HETATM   26  C   UNL     1     -40.451  51.643 -50.053  1.00  0.00     0.034 C 
ENDBRANCH  15  18
ENDBRANCH   1  14
TORSDOF 3
ENDMDL
MODEL 10
REMARK VINA RESULT:      -8.1      3.622      7.938
REMARK  3 active torsions:
REMARK  status: ('A' for Active; 'I' for Inactive)
REMARK    1  A    between atoms: N_4  and  C_5 
REMARK    2  A    between atoms: C_5  and  C_6 
REMARK       I    between atoms: C_6  and  N_7 
REMARK    3  A    between atoms: N_7  and  C_8 
ROOT
HETATM    1  C   UNL     1     -43.677  56.102 -53.724  1.00  0.00     0.257 C 
ENDROOT
BRANCH   1   2
HETATM    2  N   UNL     1     -42.716  55.135 -53.204  1.00  0.00    -0.225 N 
HETATM    3  N   UNL     1     -42.150  55.439 -51.988  1.00  0.00    -0.173 NA
HETATM    4  C   UNL     1     -41.216  54.674 -51.513  1.00  0.00     0.062 A 
HETATM    5  C   UNL     1     -40.613  55.056 -50.182  1.00  0.00     0.073 C 
HETATM    6  C   UNL     1     -40.719  53.472 -52.211  1.00  0.00     0.006 A 
HETATM    7  C   UNL     1     -41.262  53.194 -53.460  1.00  0.00     0.046 A 
HETATM    8  C   UNL     1     -39.739  52.627 -51.674  1.00  0.00     0.014 A 
HETATM    9  C   UNL     1     -42.290  54.090 -54.018  1.00  0.00     0.275 A 
HETATM   10  C   UNL     1     -40.836  52.072 -54.181  1.00  0.00     0.018 A 
HETATM   11  O   UNL     1     -42.732  53.883 -55.148  1.00  0.00    -0.266 OA
HETATM   12  C   UNL     1     -39.861  51.230 -53.646  1.00  0.00     0.001 A 
HETATM   13  C   UNL     1     -39.313  51.509 -52.394  1.00  0.00     0.001 A 
ENDBRANCH   1   2
BRANCH   1  14
HETATM   14  C   UNL     1     -43.180  56.768 -55.009  1.00  0.00     0.238 C 
HETATM   15  N   UNL     1     -43.912  56.434 -56.130  1.00  0.00    -0.351 N 
HETATM   16  H   UNL     1     -44.841  56.045 -55.972  1.00  0.00     0.163 HD
HETATM   17  O   UNL     1     -42.217  57.530 -55.041  1.00  0.00    -0.272 OA
BRANCH  15  18
HETATM   18  C   UNL     1     -43.615  56.991 -57.427  1.00  0.00     0.118 C 
HETATM   19  C   UNL     1     -44.843  57.460 -58.159  1.00  0.00    -0.029 A 
HETATM   20  C   UNL     1     -44.794  57.080 -59.506  1.00  0.00    -0.050 A 
HETATM   21  C   UNL     1     -45.902  58.216 -57.677  1.00  0.00     0.010 A 
HETATM   22  C   UNL     1     -45.803  57.431 -60.389  1.00  0.00     0.007 A 
HETATM   23  C   UNL     1     -43.529  56.342 -59.808  1.00  0.00     0.041 C 
HETATM   24  C   UNL     1     -46.882  58.172 -59.903  1.00  0.00     0.001 A 
HETATM   25  C   UNL     1     -46.930  58.564 -58.557  1.00  0.00     0.001 A 
HETATM   26  C   UNL     1     -43.080  55.921 -58.405  1.00  0.00     0.034 C 
ENDBRANCH  15  18
ENDBRANCH   1  14
TORSDOF 3
ENDMDL
