MODEL 1
REMARK VINA RESULT:      -8.1      0.000      0.000
REMARK  8 active torsions:
REMARK  status: ('A' for Active; 'I' for Inactive)
REMARK    1  A    between atoms: C_2  and  C_3 
REMARK    2  A    between atoms: C_3  and  N_4 
REMARK       I    between atoms: N_4  and  C_5 
REMARK    3  A    between atoms: C_5  and  C_6 
REMARK    4  A    between atoms: C_7  and  N_8 
REMARK    5  A    between atoms: N_11  and  C_12 
REMARK    6  A    between atoms: C_13  and  O_14 
REMARK    7  A    between atoms: C_24  and  N_25 
REMARK       I    between atoms: N_25  and  C_26 
REMARK       I    between atoms: C_26  and  N_27 
REMARK    8  A    between atoms: N_27  and  C_28 
ROOT
HETATM    1  C   UNL     1     -43.251  57.162 -56.546  1.00  0.00     0.060 A 
HETATM    2  C   UNL     1     -44.179  57.981 -55.869  1.00  0.00     0.046 A 
HETATM    3  C   UNL     1     -44.038  58.049 -54.470  1.00  0.00     0.032 A 
HETATM    4  C   UNL     1     -43.075  57.303 -53.772  1.00  0.00     0.032 A 
HETATM    5  C   UNL     1     -42.222  56.444 -54.453  1.00  0.00     0.037 A 
HETATM    6  C   UNL     1     -42.303  56.389 -55.843  1.00  0.00     0.049 A 
ENDROOT
BRANCH   2   7
HETATM    7  N   UNL     1     -45.219  58.643 -56.511  1.00  0.00    -0.378 N 
HETATM    8  C   UNL     1     -45.294  60.116 -56.426  1.00  0.00     0.138 C 
HETATM    9  C   UNL     1     -46.053  60.674 -57.657  1.00  0.00     0.115 C 
HETATM   10  N   UNL     1     -47.402  60.065 -57.770  1.00  0.00    -0.278 NA
HETATM   11  C   UNL     1     -47.327  58.579 -57.829  1.00  0.00     0.115 C 
HETATM   12  C   UNL     1     -46.552  58.013 -56.614  1.00  0.00     0.138 C 
BRANCH  10  13
HETATM   13  C   UNL     1     -48.274  60.575 -58.764  1.00  0.00     0.044 A 
HETATM   14  C   UNL     1     -49.606  60.950 -58.431  1.00  0.00     0.089 A 
HETATM   15  C   UNL     1     -50.475  61.423 -59.426  1.00  0.00     0.038 A 
HETATM   16  C   UNL     1     -50.048  61.534 -60.748  1.00  0.00     0.003 A 
HETATM   17  C   UNL     1     -48.750  61.182 -61.088  1.00  0.00     0.002 A 
HETATM   18  C   UNL     1     -47.874  60.711 -60.105  1.00  0.00     0.026 A 
BRANCH  14  19
HETATM   19  O   UNL     1     -49.956  60.843 -57.103  1.00  0.00    -0.354 OA
HETATM   20  C   UNL     1     -51.252  60.346 -56.801  1.00  0.00     0.210 C 
ENDBRANCH  14  19
ENDBRANCH  10  13
ENDBRANCH   2   7
BRANCH   1  21
HETATM   21  C   UNL     1     -43.259  56.958 -58.020  1.00  0.00     0.254 C 
HETATM   22  N   UNL     1     -44.196  56.032 -58.442  1.00  0.00    -0.353 N 
HETATM   23  H   UNL     1     -44.662  55.488 -57.725  1.00  0.00     0.163 HD
HETATM   24  O   UNL     1     -42.536  57.608 -58.760  1.00  0.00    -0.268 OA
BRANCH  22  25
HETATM   25  C   UNL     1     -44.531  55.716 -59.826  1.00  0.00     0.080 C 
HETATM   26  C   UNL     1     -44.847  54.237 -60.046  1.00  0.00     0.032 C 
BRANCH  25  27
HETATM   27  C   UNL     1     -45.552  56.680 -60.450  1.00  0.00     0.020 C 
HETATM   28  C   UNL     1     -46.984  56.182 -60.539  1.00  0.00     0.007 C 
ENDBRANCH  25  27
ENDBRANCH  22  25
ENDBRANCH   1  21
BRANCH   5  29
HETATM   29  N   UNL     1     -41.331  55.559 -53.819  1.00  0.00    -0.309 N 
HETATM   30  C   UNL     1     -41.497  54.198 -53.616  1.00  0.00     0.325 C 
HETATM   31  N   UNL     1     -40.276  53.622 -53.310  1.00  0.00    -0.307 N 
HETATM   32  O   UNL     1     -42.561  53.601 -53.705  1.00  0.00    -0.247 OA
HETATM   33  H   UNL     1     -39.466  54.118 -53.659  1.00  0.00     0.170 HD
HETATM   34  H   UNL     1     -40.530  55.966 -53.361  1.00  0.00     0.170 HD
BRANCH  31  35
HETATM   35  C   UNL     1     -40.032  52.289 -52.911  1.00  0.00     0.053 A 
HETATM   36  C   UNL     1     -39.919  52.000 -51.538  1.00  0.00     0.037 A 
HETATM   37 BR   UNL     1     -40.046  53.371 -50.224  1.00  0.00    -0.049 Br
HETATM   38  C   UNL     1     -39.693  50.694 -51.095  1.00  0.00     0.021 A 
HETATM   39  C   UNL     1     -39.592  49.657 -52.020  1.00  0.00     0.002 A 
HETATM   40  C   UNL     1     -39.716  49.928 -53.380  1.00  0.00     0.002 A 
HETATM   41  C   UNL     1     -39.936  51.236 -53.825  1.00  0.00     0.031 A 
ENDBRANCH  31  35
ENDBRANCH   5  29
TORSDOF 8
ENDMDL
MODEL 2
REMARK VINA RESULT:      -7.9      3.407     10.933
REMARK  8 active torsions:
REMARK  status: ('A' for Active; 'I' for Inactive)
REMARK    1  A    between atoms: C_2  and  C_3 
REMARK    2  A    between atoms: C_3  and  N_4 
REMARK       I    between atoms: N_4  and  C_5 
REMARK    3  A    between atoms: C_5  and  C_6 
REMARK    4  A    between atoms: C_7  and  N_8 
REMARK    5  A    between atoms: N_11  and  C_12 
REMARK    6  A    between atoms: C_13  and  O_14 
REMARK    7  A    between atoms: C_24  and  N_25 
REMARK       I    between atoms: N_25  and  C_26 
REMARK       I    between atoms: C_26  and  N_27 
REMARK    8  A    between atoms: N_27  and  C_28 
ROOT
HETATM    1  C   UNL     1     -43.358  57.510 -56.704  1.00  0.00     0.060 A 
HETATM    2  C   UNL     1     -43.009  56.152 -56.545  1.00  0.00     0.046 A 
HETATM    3  C   UNL     1     -43.235  55.322 -57.659  1.00  0.00     0.032 A 
HETATM    4  C   UNL     1     -43.828  55.792 -58.842  1.00  0.00     0.032 A 
HETATM    5  C   UNL     1     -44.232  57.116 -58.948  1.00  0.00     0.037 A 
HETATM    6  C   UNL     1     -43.981  57.976 -57.881  1.00  0.00     0.049 A 
ENDROOT
BRANCH   2   7
HETATM    7  N   UNL     1     -42.529  55.625 -55.352  1.00  0.00    -0.378 N 
HETATM    8  C   UNL     1     -41.078  55.398 -55.199  1.00  0.00     0.138 C 
HETATM    9  C   UNL     1     -40.695  55.448 -53.699  1.00  0.00     0.115 C 
HETATM   10  N   UNL     1     -41.486  54.464 -52.916  1.00  0.00    -0.278 NA
HETATM   11  C   UNL     1     -42.949  54.678 -53.092  1.00  0.00     0.115 C 
HETATM   12  C   UNL     1     -43.338  54.651 -54.589  1.00  0.00     0.138 C 
BRANCH  10  13
HETATM   13  C   UNL     1     -41.153  54.289 -51.550  1.00  0.00     0.044 A 
HETATM   14  C   UNL     1     -40.532  53.087 -51.108  1.00  0.00     0.089 A 
HETATM   15  C   UNL     1     -40.234  52.905 -49.749  1.00  0.00     0.038 A 
HETATM   16  C   UNL     1     -40.539  53.895 -48.816  1.00  0.00     0.003 A 
HETATM   17  C   UNL     1     -41.136  55.077 -49.232  1.00  0.00     0.002 A 
HETATM   18  C   UNL     1     -41.435  55.271 -50.583  1.00  0.00     0.026 A 
BRANCH  14  19
HETATM   19  O   UNL     1     -40.231  52.161 -52.083  1.00  0.00    -0.354 OA
HETATM   20  C   UNL     1     -39.484  51.017 -51.697  1.00  0.00     0.210 C 
ENDBRANCH  14  19
ENDBRANCH  10  13
ENDBRANCH   2   7
BRANCH   1  21
HETATM   21  C   UNL     1     -43.205  58.528 -55.629  1.00  0.00     0.254 C 
HETATM   22  N   UNL     1     -44.141  58.404 -54.618  1.00  0.00    -0.353 N 
HETATM   23  H   UNL     1     -44.905  57.759 -54.774  1.00  0.00     0.163 HD
HETATM   24  O   UNL     1     -42.291  59.339 -55.642  1.00  0.00    -0.268 OA
BRANCH  22  25
HETATM   25  C   UNL     1     -44.168  59.165 -53.374  1.00  0.00     0.080 C 
HETATM   26  C   UNL     1     -45.485  59.907 -53.151  1.00  0.00     0.032 C 
BRANCH  25  27
HETATM   27  C   UNL     1     -43.676  58.371 -52.153  1.00  0.00     0.020 C 
HETATM   28  C   UNL     1     -44.733  57.612 -51.370  1.00  0.00     0.007 C 
ENDBRANCH  25  27
ENDBRANCH  22  25
ENDBRANCH   1  21
BRANCH   5  29
HETATM   29  N   UNL     1     -44.960  57.629 -60.038  1.00  0.00    -0.309 N 
HETATM   30  C   UNL     1     -46.331  57.586 -60.230  1.00  0.00     0.325 C 
HETATM   31  N   UNL     1     -46.692  58.504 -61.201  1.00  0.00    -0.307 N 
HETATM   32  O   UNL     1     -47.102  56.855 -59.624  1.00  0.00    -0.247 OA
HETATM   33  H   UNL     1     -46.060  59.285 -61.313  1.00  0.00     0.170 HD
HETATM   34  H   UNL     1     -44.427  57.970 -60.824  1.00  0.00     0.170 HD
BRANCH  31  35
HETATM   35  C   UNL     1     -47.970  58.684 -61.779  1.00  0.00     0.053 A 
HETATM   36  C   UNL     1     -48.767  59.760 -61.343  1.00  0.00     0.037 A 
HETATM   37 BR   UNL     1     -48.176  60.940 -59.972  1.00  0.00    -0.049 Br
HETATM   38  C   UNL     1     -50.031  59.986 -61.896  1.00  0.00     0.021 A 
HETATM   39  C   UNL     1     -50.507  59.148 -62.901  1.00  0.00     0.002 A 
HETATM   40  C   UNL     1     -49.721  58.089 -63.350  1.00  0.00     0.002 A 
HETATM   41  C   UNL     1     -48.459  57.858 -62.793  1.00  0.00     0.031 A 
ENDBRANCH  31  35
ENDBRANCH   5  29
TORSDOF 8
ENDMDL
MODEL 3
REMARK VINA RESULT:      -7.4      3.466     11.027
REMARK  8 active torsions:
REMARK  status: ('A' for Active; 'I' for Inactive)
REMARK    1  A    between atoms: C_2  and  C_3 
REMARK    2  A    between atoms: C_3  and  N_4 
REMARK       I    between atoms: N_4  and  C_5 
REMARK    3  A    between atoms: C_5  and  C_6 
REMARK    4  A    between atoms: C_7  and  N_8 
REMARK    5  A    between atoms: N_11  and  C_12 
REMARK    6  A    between atoms: C_13  and  O_14 
REMARK    7  A    between atoms: C_24  and  N_25 
REMARK       I    between atoms: N_25  and  C_26 
REMARK       I    between atoms: C_26  and  N_27 
REMARK    8  A    between atoms: N_27  and  C_28 
ROOT
HETATM    1  C   UNL     1     -44.076  57.440 -57.113  1.00  0.00     0.060 A 
HETATM    2  C   UNL     1     -43.219  56.335 -57.301  1.00  0.00     0.046 A 
HETATM    3  C   UNL     1     -42.992  55.950 -58.635  1.00  0.00     0.032 A 
HETATM    4  C   UNL     1     -43.622  56.580 -59.720  1.00  0.00     0.032 A 
HETATM    5  C   UNL     1     -44.520  57.617 -59.506  1.00  0.00     0.037 A 
HETATM    6  C   UNL     1     -44.732  58.054 -58.200  1.00  0.00     0.049 A 
ENDROOT
BRANCH   2   7
HETATM    7  N   UNL     1     -42.668  55.612 -56.249  1.00  0.00    -0.378 N 
HETATM    8  C   UNL     1     -43.536  54.711 -55.465  1.00  0.00     0.138 C 
HETATM    9  C   UNL     1     -42.684  53.580 -54.835  1.00  0.00     0.115 C 
HETATM   10  N   UNL     1     -41.588  54.140 -54.005  1.00  0.00    -0.278 NA
HETATM   11  C   UNL     1     -40.729  55.069 -54.790  1.00  0.00     0.115 C 
HETATM   12  C   UNL     1     -41.574  56.191 -55.440  1.00  0.00     0.138 C 
BRANCH  10  13
HETATM   13  C   UNL     1     -40.805  53.233 -53.248  1.00  0.00     0.044 A 
HETATM   14  C   UNL     1     -40.576  53.461 -51.862  1.00  0.00     0.089 A 
HETATM   15  C   UNL     1     -39.772  52.578 -51.125  1.00  0.00     0.038 A 
HETATM   16  C   UNL     1     -39.192  51.467 -51.737  1.00  0.00     0.003 A 
HETATM   17  C   UNL     1     -39.413  51.225 -53.085  1.00  0.00     0.002 A 
HETATM   18  C   UNL     1     -40.213  52.097 -53.829  1.00  0.00     0.026 A 
BRANCH  14  19
HETATM   19  O   UNL     1     -41.200  54.559 -51.313  1.00  0.00    -0.354 OA
HETATM   20  C   UNL     1     -41.737  54.427 -50.005  1.00  0.00     0.210 C 
ENDBRANCH  14  19
ENDBRANCH  10  13
ENDBRANCH   2   7
BRANCH   1  21
HETATM   21  C   UNL     1     -44.442  57.977 -55.774  1.00  0.00     0.254 C 
HETATM   22  N   UNL     1     -43.655  59.042 -55.375  1.00  0.00    -0.353 N 
HETATM   23  H   UNL     1     -42.838  59.248 -55.937  1.00  0.00     0.163 HD
HETATM   24  O   UNL     1     -45.391  57.533 -55.145  1.00  0.00    -0.268 OA
BRANCH  22  25
HETATM   25  C   UNL     1     -43.851  59.856 -54.181  1.00  0.00     0.080 C 
HETATM   26  C   UNL     1     -45.165  60.636 -54.193  1.00  0.00     0.032 C 
BRANCH  25  27
HETATM   27  C   UNL     1     -43.575  59.105 -52.868  1.00  0.00     0.020 C 
HETATM   28  C   UNL     1     -44.751  58.949 -51.919  1.00  0.00     0.007 C 
ENDBRANCH  25  27
ENDBRANCH  22  25
ENDBRANCH   1  21
BRANCH   5  29
HETATM   29  N   UNL     1     -45.298  58.202 -60.521  1.00  0.00    -0.309 N 
HETATM   30  C   UNL     1     -46.630  57.953 -60.812  1.00  0.00     0.325 C 
HETATM   31  N   UNL     1     -47.130  58.970 -61.607  1.00  0.00    -0.307 N 
HETATM   32  O   UNL     1     -47.265  56.985 -60.415  1.00  0.00    -0.247 OA
HETATM   33  H   UNL     1     -46.655  59.859 -61.519  1.00  0.00     0.170 HD
HETATM   34  H   UNL     1     -44.817  58.788 -61.187  1.00  0.00     0.170 HD
BRANCH  31  35
HETATM   35  C   UNL     1     -48.400  59.031 -62.224  1.00  0.00     0.053 A 
HETATM   36  C   UNL     1     -49.417  59.788 -61.613  1.00  0.00     0.037 A 
HETATM   37 BR   UNL     1     -49.125  60.689 -59.962  1.00  0.00    -0.049 Br
HETATM   38  C   UNL     1     -50.684  59.890 -62.195  1.00  0.00     0.021 A 
HETATM   39  C   UNL     1     -50.945  59.247 -63.402  1.00  0.00     0.002 A 
HETATM   40  C   UNL     1     -49.942  58.507 -64.024  1.00  0.00     0.002 A 
HETATM   41  C   UNL     1     -48.676  58.399 -63.439  1.00  0.00     0.031 A 
ENDBRANCH  31  35
ENDBRANCH   5  29
TORSDOF 8
ENDMDL
MODEL 4
REMARK VINA RESULT:      -7.2      6.291      9.177
REMARK  8 active torsions:
REMARK  status: ('A' for Active; 'I' for Inactive)
REMARK    1  A    between atoms: C_2  and  C_3 
REMARK    2  A    between atoms: C_3  and  N_4 
REMARK       I    between atoms: N_4  and  C_5 
REMARK    3  A    between atoms: C_5  and  C_6 
REMARK    4  A    between atoms: C_7  and  N_8 
REMARK    5  A    between atoms: N_11  and  C_12 
REMARK    6  A    between atoms: C_13  and  O_14 
REMARK    7  A    between atoms: C_24  and  N_25 
REMARK       I    between atoms: N_25  and  C_26 
REMARK       I    between atoms: C_26  and  N_27 
REMARK    8  A    between atoms: N_27  and  C_28 
ROOT
HETATM    1  C   UNL     1     -43.776  59.389 -51.824  1.00  0.00     0.060 A 
HETATM    2  C   UNL     1     -44.772  59.599 -52.801  1.00  0.00     0.046 A 
HETATM    3  C   UNL     1     -45.929  60.273 -52.368  1.00  0.00     0.032 A 
HETATM    4  C   UNL     1     -46.121  60.663 -51.033  1.00  0.00     0.032 A 
HETATM    5  C   UNL     1     -45.159  60.378 -50.073  1.00  0.00     0.037 A 
HETATM    6  C   UNL     1     -43.981  59.754 -50.477  1.00  0.00     0.049 A 
ENDROOT
BRANCH   2   7
HETATM    7  N   UNL     1     -44.670  59.126 -54.104  1.00  0.00    -0.378 N 
HETATM    8  C   UNL     1     -45.017  60.024 -55.224  1.00  0.00     0.138 C 
HETATM    9  C   UNL     1     -44.257  59.586 -56.501  1.00  0.00     0.115 C 
HETATM   10  N   UNL     1     -44.544  58.168 -56.831  1.00  0.00    -0.278 NA
HETATM   11  C   UNL     1     -44.219  57.266 -55.692  1.00  0.00     0.115 C 
HETATM   12  C   UNL     1     -44.958  57.707 -54.405  1.00  0.00     0.138 C 
BRANCH  10  13
HETATM   13  C   UNL     1     -44.034  57.658 -58.051  1.00  0.00     0.044 A 
HETATM   14  C   UNL     1     -44.918  57.190 -59.063  1.00  0.00     0.089 A 
HETATM   15  C   UNL     1     -44.407  56.656 -60.256  1.00  0.00     0.038 A 
HETATM   16  C   UNL     1     -43.031  56.579 -60.467  1.00  0.00     0.003 A 
HETATM   17  C   UNL     1     -42.155  57.040 -59.494  1.00  0.00     0.002 A 
HETATM   18  C   UNL     1     -42.652  57.576 -58.303  1.00  0.00     0.026 A 
BRANCH  14  19
HETATM   19  O   UNL     1     -46.265  57.321 -58.805  1.00  0.00    -0.354 OA
HETATM   20  C   UNL     1     -46.985  58.301 -59.536  1.00  0.00     0.210 C 
ENDBRANCH  14  19
ENDBRANCH  10  13
ENDBRANCH   2   7
BRANCH   1  21
HETATM   21  C   UNL     1     -42.495  58.681 -52.096  1.00  0.00     0.254 C 
HETATM   22  N   UNL     1     -42.495  57.365 -51.672  1.00  0.00    -0.353 N 
HETATM   23  H   UNL     1     -43.275  57.063 -51.101  1.00  0.00     0.163 HD
HETATM   24  O   UNL     1     -41.579  59.225 -52.693  1.00  0.00    -0.268 OA
BRANCH  22  25
HETATM   25  C   UNL     1     -41.442  56.384 -51.913  1.00  0.00     0.080 C 
HETATM   26  C   UNL     1     -40.931  55.722 -50.634  1.00  0.00     0.032 C 
BRANCH  25  27
HETATM   27  C   UNL     1     -41.764  55.399 -53.048  1.00  0.00     0.020 C 
HETATM   28  C   UNL     1     -42.012  53.957 -52.641  1.00  0.00     0.007 C 
ENDBRANCH  25  27
ENDBRANCH  22  25
ENDBRANCH   1  21
BRANCH   5  29
HETATM   29  N   UNL     1     -45.336  60.604 -48.696  1.00  0.00    -0.309 N 
HETATM   30  C   UNL     1     -45.061  61.765 -47.991  1.00  0.00     0.325 C 
HETATM   31  N   UNL     1     -45.707  61.728 -46.767  1.00  0.00    -0.307 N 
HETATM   32  O   UNL     1     -44.363  62.683 -48.397  1.00  0.00    -0.247 OA
HETATM   33  H   UNL     1     -46.532  61.145 -46.732  1.00  0.00     0.170 HD
HETATM   34  H   UNL     1     -45.586  59.808 -48.129  1.00  0.00     0.170 HD
BRANCH  31  35
HETATM   35  C   UNL     1     -45.585  62.652 -45.704  1.00  0.00     0.053 A 
HETATM   36  C   UNL     1     -46.468  63.748 -45.652  1.00  0.00     0.037 A 
HETATM   37 BR   UNL     1     -47.784  64.025 -46.998  1.00  0.00    -0.049 Br
HETATM   38  C   UNL     1     -46.394  64.678 -44.612  1.00  0.00     0.021 A 
HETATM   39  C   UNL     1     -45.446  64.518 -43.604  1.00  0.00     0.002 A 
HETATM   40  C   UNL     1     -44.577  63.431 -43.638  1.00  0.00     0.002 A 
HETATM   41  C   UNL     1     -44.645  62.502 -44.682  1.00  0.00     0.031 A 
ENDBRANCH  31  35
ENDBRANCH   5  29
TORSDOF 8
ENDMDL
MODEL 5
REMARK VINA RESULT:      -7.1      2.336      4.100
REMARK  8 active torsions:
REMARK  status: ('A' for Active; 'I' for Inactive)
REMARK    1  A    between atoms: C_2  and  C_3 
REMARK    2  A    between atoms: C_3  and  N_4 
REMARK       I    between atoms: N_4  and  C_5 
REMARK    3  A    between atoms: C_5  and  C_6 
REMARK    4  A    between atoms: C_7  and  N_8 
REMARK    5  A    between atoms: N_11  and  C_12 
REMARK    6  A    between atoms: C_13  and  O_14 
REMARK    7  A    between atoms: C_24  and  N_25 
REMARK       I    between atoms: N_25  and  C_26 
REMARK       I    between atoms: C_26  and  N_27 
REMARK    8  A    between atoms: N_27  and  C_28 
ROOT
HETATM    1  C   UNL     1     -42.636  57.807 -56.465  1.00  0.00     0.060 A 
HETATM    2  C   UNL     1     -43.360  57.261 -57.547  1.00  0.00     0.046 A 
HETATM    3  C   UNL     1     -43.360  55.858 -57.644  1.00  0.00     0.032 A 
HETATM    4  C   UNL     1     -42.637  55.040 -56.761  1.00  0.00     0.032 A 
HETATM    5  C   UNL     1     -41.870  55.603 -55.750  1.00  0.00     0.037 A 
HETATM    6  C   UNL     1     -41.886  56.987 -55.595  1.00  0.00     0.049 A 
ENDROOT
BRANCH   2   7
HETATM    7  N   UNL     1     -43.992  58.041 -58.508  1.00  0.00    -0.378 N 
HETATM    8  C   UNL     1     -45.416  58.390 -58.329  1.00  0.00     0.138 C 
HETATM    9  C   UNL     1     -45.731  59.708 -59.079  1.00  0.00     0.115 C 
HETATM   10  N   UNL     1     -45.373  59.600 -60.516  1.00  0.00    -0.278 NA
HETATM   11  C   UNL     1     -43.944  59.223 -60.695  1.00  0.00     0.115 C 
HETATM   12  C   UNL     1     -43.614  57.917 -59.932  1.00  0.00     0.138 C 
BRANCH  10  13
HETATM   13  C   UNL     1     -45.731  60.675 -61.367  1.00  0.00     0.044 A 
HETATM   14  C   UNL     1     -46.932  60.624 -62.128  1.00  0.00     0.089 A 
HETATM   15  C   UNL     1     -47.265  61.677 -62.994  1.00  0.00     0.038 A 
HETATM   16  C   UNL     1     -46.429  62.785 -63.119  1.00  0.00     0.003 A 
HETATM   17  C   UNL     1     -45.258  62.855 -62.377  1.00  0.00     0.002 A 
HETATM   18  C   UNL     1     -44.917  61.814 -61.509  1.00  0.00     0.026 A 
BRANCH  14  19
HETATM   19  O   UNL     1     -47.728  59.516 -61.937  1.00  0.00    -0.354 OA
HETATM   20  C   UNL     1     -49.113  59.729 -61.712  1.00  0.00     0.210 C 
ENDBRANCH  14  19
ENDBRANCH  10  13
ENDBRANCH   2   7
BRANCH   1  21
HETATM   21  C   UNL     1     -42.513  59.269 -56.214  1.00  0.00     0.254 C 
HETATM   22  N   UNL     1     -43.364  59.730 -55.226  1.00  0.00    -0.353 N 
HETATM   23  H   UNL     1     -44.071  59.088 -54.889  1.00  0.00     0.163 HD
HETATM   24  O   UNL     1     -41.685  59.950 -56.800  1.00  0.00    -0.268 OA
BRANCH  22  25
HETATM   25  C   UNL     1     -43.384  61.078 -54.668  1.00  0.00     0.080 C 
HETATM   26  C   UNL     1     -44.765  61.729 -54.716  1.00  0.00     0.032 C 
BRANCH  25  27
HETATM   27  C   UNL     1     -42.678  61.194 -53.308  1.00  0.00     0.020 C 
HETATM   28  C   UNL     1     -42.217  59.894 -52.673  1.00  0.00     0.007 C 
ENDBRANCH  25  27
ENDBRANCH  22  25
ENDBRANCH   1  21
BRANCH   5  29
HETATM   29  N   UNL     1     -41.008  54.867 -54.917  1.00  0.00    -0.309 N 
HETATM   30  C   UNL     1     -41.271  53.662 -54.286  1.00  0.00     0.325 C 
HETATM   31  N   UNL     1     -40.082  53.080 -53.881  1.00  0.00    -0.307 N 
HETATM   32  O   UNL     1     -42.386  53.185 -54.124  1.00  0.00    -0.247 OA
HETATM   33  H   UNL     1     -39.265  53.354 -54.412  1.00  0.00     0.170 HD
HETATM   34  H   UNL     1     -40.138  55.307 -54.656  1.00  0.00     0.170 HD
BRANCH  31  35
HETATM   35  C   UNL     1     -39.920  51.917 -53.095  1.00  0.00     0.053 A 
HETATM   36  C   UNL     1     -39.955  52.035 -51.692  1.00  0.00     0.037 A 
HETATM   37 BR   UNL     1     -40.174  53.725 -50.845  1.00  0.00    -0.049 Br
HETATM   38  C   UNL     1     -39.814  50.910 -50.874  1.00  0.00     0.021 A 
HETATM   39  C   UNL     1     -39.649  49.652 -51.449  1.00  0.00     0.002 A 
HETATM   40  C   UNL     1     -39.627  49.522 -52.835  1.00  0.00     0.002 A 
HETATM   41  C   UNL     1     -39.762  50.647 -53.654  1.00  0.00     0.031 A 
ENDBRANCH  31  35
ENDBRANCH   5  29
TORSDOF 8
ENDMDL
MODEL 6
REMARK VINA RESULT:      -6.9      3.615     10.757
REMARK  8 active torsions:
REMARK  status: ('A' for Active; 'I' for Inactive)
REMARK    1  A    between atoms: C_2  and  C_3 
REMARK    2  A    between atoms: C_3  and  N_4 
REMARK       I    between atoms: N_4  and  C_5 
REMARK    3  A    between atoms: C_5  and  C_6 
REMARK    4  A    between atoms: C_7  and  N_8 
REMARK    5  A    between atoms: N_11  and  C_12 
REMARK    6  A    between atoms: C_13  and  O_14 
REMARK    7  A    between atoms: C_24  and  N_25 
REMARK       I    between atoms: N_25  and  C_26 
REMARK       I    between atoms: C_26  and  N_27 
REMARK    8  A    between atoms: N_27  and  C_28 
ROOT
HETATM    1  C   UNL     1     -43.198  57.494 -56.922  1.00  0.00     0.060 A 
HETATM    2  C   UNL     1     -42.997  56.117 -56.689  1.00  0.00     0.046 A 
HETATM    3  C   UNL     1     -43.385  55.252 -57.729  1.00  0.00     0.032 A 
HETATM    4  C   UNL     1     -43.993  55.713 -58.907  1.00  0.00     0.032 A 
HETATM    5  C   UNL     1     -44.250  57.067 -59.081  1.00  0.00     0.037 A 
HETATM    6  C   UNL     1     -43.836  57.956 -58.092  1.00  0.00     0.049 A 
ENDROOT
BRANCH   2   7
HETATM    7  N   UNL     1     -42.505  55.612 -55.491  1.00  0.00    -0.378 N 
HETATM    8  C   UNL     1     -41.044  55.529 -55.291  1.00  0.00     0.138 C 
HETATM    9  C   UNL     1     -40.719  55.581 -53.777  1.00  0.00     0.115 C 
HETATM   10  N   UNL     1     -41.431  54.503 -53.044  1.00  0.00    -0.278 NA
HETATM   11  C   UNL     1     -42.901  54.572 -53.267  1.00  0.00     0.115 C 
HETATM   12  C   UNL     1     -43.236  54.542 -54.778  1.00  0.00     0.138 C 
BRANCH  10  13
HETATM   13  C   UNL     1     -41.127  54.329 -51.671  1.00  0.00     0.044 A 
HETATM   14  C   UNL     1     -41.226  55.423 -50.766  1.00  0.00     0.089 A 
HETATM   15  C   UNL     1     -40.892  55.253 -49.413  1.00  0.00     0.038 A 
HETATM   16  C   UNL     1     -40.463  54.014 -48.938  1.00  0.00     0.003 A 
HETATM   17  C   UNL     1     -40.371  52.935 -49.805  1.00  0.00     0.002 A 
HETATM   18  C   UNL     1     -40.703  53.091 -51.154  1.00  0.00     0.026 A 
BRANCH  14  19
HETATM   19  O   UNL     1     -41.682  56.611 -51.292  1.00  0.00    -0.354 OA
HETATM   20  C   UNL     1     -41.284  57.813 -50.650  1.00  0.00     0.210 C 
ENDBRANCH  14  19
ENDBRANCH  10  13
ENDBRANCH   2   7
BRANCH   1  21
HETATM   21  C   UNL     1     -42.862  58.552 -55.929  1.00  0.00     0.254 C 
HETATM   22  N   UNL     1     -43.906  58.851 -55.072  1.00  0.00    -0.353 N 
HETATM   23  H   UNL     1     -44.810  58.451 -55.289  1.00  0.00     0.163 HD
HETATM   24  O   UNL     1     -41.744  59.040 -55.869  1.00  0.00    -0.268 OA
BRANCH  22  25
HETATM   25  C   UNL     1     -43.842  59.742 -53.919  1.00  0.00     0.080 C 
HETATM   26  C   UNL     1     -44.423  61.128 -54.197  1.00  0.00     0.032 C 
BRANCH  25  27
HETATM   27  C   UNL     1     -44.339  59.101 -52.614  1.00  0.00     0.020 C 
HETATM   28  C   UNL     1     -44.743  57.638 -52.691  1.00  0.00     0.007 C 
ENDBRANCH  25  27
ENDBRANCH  22  25
ENDBRANCH   1  21
BRANCH   5  29
HETATM   29  N   UNL     1     -44.982  57.593 -60.162  1.00  0.00    -0.309 N 
HETATM   30  C   UNL     1     -46.231  58.192 -60.122  1.00  0.00     0.325 C 
HETATM   31  N   UNL     1     -46.442  58.903 -61.291  1.00  0.00    -0.307 N 
HETATM   32  O   UNL     1     -47.018  58.110 -59.189  1.00  0.00    -0.247 OA
HETATM   33  H   UNL     1     -45.604  59.213 -61.764  1.00  0.00     0.170 HD
HETATM   34  H   UNL     1     -44.617  57.423 -61.087  1.00  0.00     0.170 HD
BRANCH  31  35
HETATM   35  C   UNL     1     -47.631  59.548 -61.700  1.00  0.00     0.053 A 
HETATM   36  C   UNL     1     -48.665  58.775 -62.262  1.00  0.00     0.037 A 
HETATM   37 BR   UNL     1     -48.473  56.898 -62.515  1.00  0.00    -0.049 Br
HETATM   38  C   UNL     1     -49.864  59.367 -62.667  1.00  0.00     0.021 A 
HETATM   39  C   UNL     1     -50.050  60.737 -62.503  1.00  0.00     0.002 A 
HETATM   40  C   UNL     1     -49.040  61.510 -61.935  1.00  0.00     0.002 A 
HETATM   41  C   UNL     1     -47.837  60.919 -61.535  1.00  0.00     0.031 A 
ENDBRANCH  31  35
ENDBRANCH   5  29
TORSDOF 8
ENDMDL
MODEL 7
REMARK VINA RESULT:      -6.8      2.087      3.176
REMARK  8 active torsions:
REMARK  status: ('A' for Active; 'I' for Inactive)
REMARK    1  A    between atoms: C_2  and  C_3 
REMARK    2  A    between atoms: C_3  and  N_4 
REMARK       I    between atoms: N_4  and  C_5 
REMARK    3  A    between atoms: C_5  and  C_6 
REMARK    4  A    between atoms: C_7  and  N_8 
REMARK    5  A    between atoms: N_11  and  C_12 
REMARK    6  A    between atoms: C_13  and  O_14 
REMARK    7  A    between atoms: C_24  and  N_25 
REMARK       I    between atoms: N_25  and  C_26 
REMARK       I    between atoms: C_26  and  N_27 
REMARK    8  A    between atoms: N_27  and  C_28 
ROOT
HETATM    1  C   UNL     1     -43.220  57.998 -56.582  1.00  0.00     0.060 A 
HETATM    2  C   UNL     1     -44.571  58.182 -56.216  1.00  0.00     0.046 A 
HETATM    3  C   UNL     1     -44.958  57.618 -54.986  1.00  0.00     0.032 A 
HETATM    4  C   UNL     1     -44.081  56.864 -54.191  1.00  0.00     0.032 A 
HETATM    5  C   UNL     1     -42.777  56.633 -54.609  1.00  0.00     0.037 A 
HETATM    6  C   UNL     1     -42.346  57.215 -55.798  1.00  0.00     0.049 A 
ENDROOT
BRANCH   2   7
HETATM    7  N   UNL     1     -45.499  58.821 -57.029  1.00  0.00    -0.378 N 
HETATM    8  C   UNL     1     -45.783  58.267 -58.368  1.00  0.00     0.138 C 
HETATM    9  C   UNL     1     -47.209  58.678 -58.813  1.00  0.00     0.115 C 
HETATM   10  N   UNL     1     -47.368  60.154 -58.788  1.00  0.00    -0.278 NA
HETATM   11  C   UNL     1     -47.056  60.714 -57.445  1.00  0.00     0.115 C 
HETATM   12  C   UNL     1     -45.641  60.292 -56.982  1.00  0.00     0.138 C 
BRANCH  10  13
HETATM   13  C   UNL     1     -48.573  60.696 -59.303  1.00  0.00     0.044 A 
HETATM   14  C   UNL     1     -48.634  61.173 -60.642  1.00  0.00     0.089 A 
HETATM   15  C   UNL     1     -49.819  61.739 -61.137  1.00  0.00     0.038 A 
HETATM   16  C   UNL     1     -50.950  61.839 -60.327  1.00  0.00     0.003 A 
HETATM   17  C   UNL     1     -50.910  61.370 -59.022  1.00  0.00     0.002 A 
HETATM   18  C   UNL     1     -49.736  60.802 -58.519  1.00  0.00     0.026 A 
BRANCH  14  19
HETATM   19  O   UNL     1     -47.493  61.019 -61.398  1.00  0.00    -0.354 OA
HETATM   20  C   UNL     1     -46.809  62.194 -61.806  1.00  0.00     0.210 C 
ENDBRANCH  14  19
ENDBRANCH  10  13
ENDBRANCH   2   7
BRANCH   1  21
HETATM   21  C   UNL     1     -42.638  58.509 -57.853  1.00  0.00     0.254 C 
HETATM   22  N   UNL     1     -42.352  59.862 -57.821  1.00  0.00    -0.353 N 
HETATM   23  H   UNL     1     -42.694  60.387 -57.026  1.00  0.00     0.163 HD
HETATM   24  O   UNL     1     -42.393  57.763 -58.789  1.00  0.00    -0.268 OA
BRANCH  22  25
HETATM   25  C   UNL     1     -41.659  60.619 -58.858  1.00  0.00     0.080 C 
HETATM   26  C   UNL     1     -42.562  60.999 -60.030  1.00  0.00     0.032 C 
BRANCH  25  27
HETATM   27  C   UNL     1     -40.811  61.779 -58.313  1.00  0.00     0.020 C 
HETATM   28  C   UNL     1     -39.993  62.554 -59.331  1.00  0.00     0.007 C 
ENDBRANCH  25  27
ENDBRANCH  22  25
ENDBRANCH   1  21
BRANCH   5  29
HETATM   29  N   UNL     1     -41.882  55.773 -53.945  1.00  0.00    -0.309 N 
HETATM   30  C   UNL     1     -41.855  54.388 -53.990  1.00  0.00     0.325 C 
HETATM   31  N   UNL     1     -40.631  53.934 -53.529  1.00  0.00    -0.307 N 
HETATM   32  O   UNL     1     -42.770  53.681 -54.388  1.00  0.00    -0.247 OA
HETATM   33  H   UNL     1     -39.865  54.587 -53.622  1.00  0.00     0.170 HD
HETATM   34  H   UNL     1     -41.257  56.193 -53.274  1.00  0.00     0.170 HD
BRANCH  31  35
HETATM   35  C   UNL     1     -40.246  52.594 -53.295  1.00  0.00     0.053 A 
HETATM   36  C   UNL     1     -39.936  52.195 -51.981  1.00  0.00     0.037 A 
HETATM   37 BR   UNL     1     -39.985  53.431 -50.533  1.00  0.00    -0.049 Br
HETATM   38  C   UNL     1     -39.565  50.878 -51.699  1.00  0.00     0.021 A 
HETATM   39  C   UNL     1     -39.513  49.939 -52.726  1.00  0.00     0.002 A 
HETATM   40  C   UNL     1     -39.832  50.318 -54.028  1.00  0.00     0.002 A 
HETATM   41  C   UNL     1     -40.197  51.638 -54.312  1.00  0.00     0.031 A 
ENDBRANCH  31  35
ENDBRANCH   5  29
TORSDOF 8
ENDMDL
MODEL 8
REMARK VINA RESULT:      -6.8      1.303      2.081
REMARK  8 active torsions:
REMARK  status: ('A' for Active; 'I' for Inactive)
REMARK    1  A    between atoms: C_2  and  C_3 
REMARK    2  A    between atoms: C_3  and  N_4 
REMARK       I    between atoms: N_4  and  C_5 
REMARK    3  A    between atoms: C_5  and  C_6 
REMARK    4  A    between atoms: C_7  and  N_8 
REMARK    5  A    between atoms: N_11  and  C_12 
REMARK    6  A    between atoms: C_13  and  O_14 
REMARK    7  A    between atoms: C_24  and  N_25 
REMARK       I    between atoms: N_25  and  C_26 
REMARK       I    between atoms: C_26  and  N_27 
REMARK    8  A    between atoms: N_27  and  C_28 
ROOT
HETATM    1  C   UNL     1     -43.477  58.012 -56.186  1.00  0.00     0.060 A 
HETATM    2  C   UNL     1     -44.691  58.455 -55.618  1.00  0.00     0.046 A 
HETATM    3  C   UNL     1     -44.896  58.126 -54.265  1.00  0.00     0.032 A 
HETATM    4  C   UNL     1     -43.984  57.351 -53.530  1.00  0.00     0.032 A 
HETATM    5  C   UNL     1     -42.832  56.863 -54.133  1.00  0.00     0.037 A 
HETATM    6  C   UNL     1     -42.575  57.210 -55.457  1.00  0.00     0.049 A 
ENDROOT
BRANCH   2   7
HETATM    7  N   UNL     1     -45.670  59.123 -56.343  1.00  0.00    -0.378 N 
HETATM    8  C   UNL     1     -46.305  58.443 -57.491  1.00  0.00     0.138 C 
HETATM    9  C   UNL     1     -47.721  59.026 -57.727  1.00  0.00     0.115 C 
HETATM   10  N   UNL     1     -47.663  60.495 -57.929  1.00  0.00    -0.278 NA
HETATM   11  C   UNL     1     -47.000  61.178 -56.784  1.00  0.00     0.115 C 
HETATM   12  C   UNL     1     -45.592  60.588 -56.526  1.00  0.00     0.138 C 
BRANCH  10  13
HETATM   13  C   UNL     1     -48.861  61.157 -58.297  1.00  0.00     0.044 A 
HETATM   14  C   UNL     1     -48.852  62.149 -59.318  1.00  0.00     0.089 A 
HETATM   15  C   UNL     1     -50.035  62.825 -59.655  1.00  0.00     0.038 A 
HETATM   16  C   UNL     1     -51.231  62.534 -59.001  1.00  0.00     0.003 A 
HETATM   17  C   UNL     1     -51.259  61.563 -58.010  1.00  0.00     0.002 A 
HETATM   18  C   UNL     1     -50.088  60.881 -57.666  1.00  0.00     0.026 A 
BRANCH  14  19
HETATM   19  O   UNL     1     -47.645  62.370 -59.944  1.00  0.00    -0.354 OA
HETATM   20  C   UNL     1     -47.667  63.008 -61.212  1.00  0.00     0.210 C 
ENDBRANCH  14  19
ENDBRANCH  10  13
ENDBRANCH   2   7
BRANCH   1  21
HETATM   21  C   UNL     1     -43.098  58.254 -57.605  1.00  0.00     0.254 C 
HETATM   22  N   UNL     1     -43.313  57.161 -58.424  1.00  0.00    -0.353 N 
HETATM   23  H   UNL     1     -43.550  56.286 -57.973  1.00  0.00     0.163 HD
HETATM   24  O   UNL     1     -42.699  59.345 -57.983  1.00  0.00    -0.268 OA
BRANCH  22  25
HETATM   25  C   UNL     1     -43.163  57.131 -59.875  1.00  0.00     0.080 C 
HETATM   26  C   UNL     1     -41.706  57.162 -60.331  1.00  0.00     0.032 C 
BRANCH  25  27
HETATM   27  C   UNL     1     -44.016  56.052 -60.561  1.00  0.00     0.020 C 
HETATM   28  C   UNL     1     -45.432  55.877 -60.041  1.00  0.00     0.007 C 
ENDBRANCH  25  27
ENDBRANCH  22  25
ENDBRANCH   1  21
BRANCH   5  29
HETATM   29  N   UNL     1     -41.944  55.965 -53.512  1.00  0.00    -0.309 N 
HETATM   30  C   UNL     1     -41.898  54.588 -53.658  1.00  0.00     0.325 C 
HETATM   31  N   UNL     1     -40.681  54.113 -53.201  1.00  0.00    -0.307 N 
HETATM   32  O   UNL     1     -42.795  53.903 -54.131  1.00  0.00    -0.247 OA
HETATM   33  H   UNL     1     -39.921  54.779 -53.226  1.00  0.00     0.170 HD
HETATM   34  H   UNL     1     -41.340  56.340 -52.796  1.00  0.00     0.170 HD
BRANCH  31  35
HETATM   35  C   UNL     1     -40.286  52.763 -53.057  1.00  0.00     0.053 A 
HETATM   36  C   UNL     1     -40.005  52.271 -51.768  1.00  0.00     0.037 A 
HETATM   37 BR   UNL     1     -40.108  53.394 -50.235  1.00  0.00    -0.049 Br
HETATM   38  C   UNL     1     -39.626  50.940 -51.576  1.00  0.00     0.021 A 
HETATM   39  C   UNL     1     -39.536  50.081 -52.668  1.00  0.00     0.002 A 
HETATM   40  C   UNL     1     -39.825  50.553 -53.946  1.00  0.00     0.002 A 
HETATM   41  C   UNL     1     -40.198  51.886 -54.141  1.00  0.00     0.031 A 
ENDBRANCH  31  35
ENDBRANCH   5  29
TORSDOF 8
ENDMDL
MODEL 9
REMARK VINA RESULT:      -6.6      2.083      2.752
REMARK  8 active torsions:
REMARK  status: ('A' for Active; 'I' for Inactive)
REMARK    1  A    between atoms: C_2  and  C_3 
REMARK    2  A    between atoms: C_3  and  N_4 
REMARK       I    between atoms: N_4  and  C_5 
REMARK    3  A    between atoms: C_5  and  C_6 
REMARK    4  A    between atoms: C_7  and  N_8 
REMARK    5  A    between atoms: N_11  and  C_12 
REMARK    6  A    between atoms: C_13  and  O_14 
REMARK    7  A    between atoms: C_24  and  N_25 
REMARK       I    between atoms: N_25  and  C_26 
REMARK       I    between atoms: C_26  and  N_27 
REMARK    8  A    between atoms: N_27  and  C_28 
ROOT
HETATM    1  C   UNL     1     -43.719  58.587 -56.579  1.00  0.00     0.060 A 
HETATM    2  C   UNL     1     -44.990  59.144 -56.324  1.00  0.00     0.046 A 
HETATM    3  C   UNL     1     -45.300  59.383 -54.972  1.00  0.00     0.032 A 
HETATM    4  C   UNL     1     -44.430  59.036 -53.926  1.00  0.00     0.032 A 
HETATM    5  C   UNL     1     -43.216  58.419 -54.198  1.00  0.00     0.037 A 
HETATM    6  C   UNL     1     -42.858  58.211 -55.527  1.00  0.00     0.049 A 
ENDROOT
BRANCH   2   7
HETATM    7  N   UNL     1     -45.925  59.394 -57.322  1.00  0.00    -0.378 N 
HETATM    8  C   UNL     1     -46.425  60.771 -57.510  1.00  0.00     0.138 C 
HETATM    9  C   UNL     1     -46.895  60.962 -58.974  1.00  0.00     0.115 C 
HETATM   10  N   UNL     1     -47.923  59.954 -59.337  1.00  0.00    -0.278 NA
HETATM   11  C   UNL     1     -47.427  58.567 -59.123  1.00  0.00     0.115 C 
HETATM   12  C   UNL     1     -46.935  58.372 -57.668  1.00  0.00     0.138 C 
BRANCH  10  13
HETATM   13  C   UNL     1     -48.556  60.084 -60.599  1.00  0.00     0.044 A 
HETATM   14  C   UNL     1     -49.896  60.554 -60.689  1.00  0.00     0.089 A 
HETATM   15  C   UNL     1     -50.529  60.649 -61.938  1.00  0.00     0.038 A 
HETATM   16  C   UNL     1     -49.856  60.288 -63.104  1.00  0.00     0.003 A 
HETATM   17  C   UNL     1     -48.546  59.837 -63.035  1.00  0.00     0.002 A 
HETATM   18  C   UNL     1     -47.904  59.740 -61.797  1.00  0.00     0.026 A 
BRANCH  14  19
HETATM   19  O   UNL     1     -50.495  60.921 -59.503  1.00  0.00    -0.354 OA
HETATM   20  C   UNL     1     -51.907  61.065 -59.495  1.00  0.00     0.210 C 
ENDBRANCH  14  19
ENDBRANCH  10  13
ENDBRANCH   2   7
BRANCH   1  21
HETATM   21  C   UNL     1     -43.228  58.252 -57.944  1.00  0.00     0.254 C 
HETATM   22  N   UNL     1     -43.599  56.988 -58.366  1.00  0.00    -0.353 N 
HETATM   23  H   UNL     1     -44.019  56.376 -57.677  1.00  0.00     0.163 HD
HETATM   24  O   UNL     1     -42.613  59.064 -58.619  1.00  0.00    -0.268 OA
BRANCH  22  25
HETATM   25  C   UNL     1     -43.383  56.428 -59.696  1.00  0.00     0.080 C 
HETATM   26  C   UNL     1     -41.913  56.419 -60.113  1.00  0.00     0.032 C 
BRANCH  25  27
HETATM   27  C   UNL     1     -44.114  55.096 -59.931  1.00  0.00     0.020 C 
HETATM   28  C   UNL     1     -45.085  55.056 -61.098  1.00  0.00     0.007 C 
ENDBRANCH  25  27
ENDBRANCH  22  25
ENDBRANCH   1  21
BRANCH   5  29
HETATM   29  N   UNL     1     -42.356  57.911 -53.206  1.00  0.00    -0.309 N 
HETATM   30  C   UNL     1     -42.516  56.751 -52.465  1.00  0.00     0.325 C 
HETATM   31  N   UNL     1     -41.309  56.402 -51.883  1.00  0.00    -0.307 N 
HETATM   32  O   UNL     1     -43.563  56.129 -52.355  1.00  0.00    -0.247 OA
HETATM   33  H   UNL     1     -40.486  56.741 -52.362  1.00  0.00     0.170 HD
HETATM   34  H   UNL     1     -41.592  58.503 -52.916  1.00  0.00     0.170 HD
BRANCH  31  35
HETATM   35  C   UNL     1     -41.074  55.364 -50.953  1.00  0.00     0.053 A 
HETATM   36  C   UNL     1     -40.714  54.091 -51.433  1.00  0.00     0.037 A 
HETATM   37 BR   UNL     1     -40.580  53.736 -53.298  1.00  0.00    -0.049 Br
HETATM   38  C   UNL     1     -40.457  53.038 -50.550  1.00  0.00     0.021 A 
HETATM   39  C   UNL     1     -40.543  53.249 -49.176  1.00  0.00     0.002 A 
HETATM   40  C   UNL     1     -40.885  54.509 -48.690  1.00  0.00     0.002 A 
HETATM   41  C   UNL     1     -41.149  55.561 -49.572  1.00  0.00     0.031 A 
ENDBRANCH  31  35
ENDBRANCH   5  29
TORSDOF 8
ENDMDL
MODEL 10
REMARK VINA RESULT:      -6.5      1.585      2.048
REMARK  8 active torsions:
REMARK  status: ('A' for Active; 'I' for Inactive)
REMARK    1  A    between atoms: C_2  and  C_3 
REMARK    2  A    between atoms: C_3  and  N_4 
REMARK       I    between atoms: N_4  and  C_5 
REMARK    3  A    between atoms: C_5  and  C_6 
REMARK    4  A    between atoms: C_7  and  N_8 
REMARK    5  A    between atoms: N_11  and  C_12 
REMARK    6  A    between atoms: C_13  and  O_14 
REMARK    7  A    between atoms: C_24  and  N_25 
REMARK       I    between atoms: N_25  and  C_26 
REMARK       I    between atoms: C_26  and  N_27 
REMARK    8  A    between atoms: N_27  and  C_28 
ROOT
HETATM    1  C   UNL     1     -43.209  57.210 -56.207  1.00  0.00     0.060 A 
HETATM    2  C   UNL     1     -44.246  57.929 -55.576  1.00  0.00     0.046 A 
HETATM    3  C   UNL     1     -44.217  57.949 -54.169  1.00  0.00     0.032 A 
HETATM    4  C   UNL     1     -43.255  57.248 -53.425  1.00  0.00     0.032 A 
HETATM    5  C   UNL     1     -42.288  56.485 -54.067  1.00  0.00     0.037 A 
HETATM    6  C   UNL     1     -42.260  56.482 -55.459  1.00  0.00     0.049 A 
ENDROOT
BRANCH   2   7
HETATM    7  N   UNL     1     -45.282  58.538 -56.274  1.00  0.00    -0.378 N 
HETATM    8  C   UNL     1     -45.525  59.983 -56.084  1.00  0.00     0.138 C 
HETATM    9  C   UNL     1     -46.213  60.568 -57.343  1.00  0.00     0.115 C 
HETATM   10  N   UNL     1     -47.470  59.840 -57.648  1.00  0.00    -0.278 NA
HETATM   11  C   UNL     1     -47.229  58.380 -57.813  1.00  0.00     0.115 C 
HETATM   12  C   UNL     1     -46.522  57.789 -56.569  1.00  0.00     0.138 C 
BRANCH  10  13
HETATM   13  C   UNL     1     -48.289  60.346 -58.688  1.00  0.00     0.044 A 
HETATM   14  C   UNL     1     -49.631  60.739 -58.423  1.00  0.00     0.089 A 
HETATM   15  C   UNL     1     -50.448  61.209 -59.463  1.00  0.00     0.038 A 
HETATM   16  C   UNL     1     -49.958  61.298 -60.765  1.00  0.00     0.003 A 
HETATM   17  C   UNL     1     -48.649  60.927 -61.039  1.00  0.00     0.002 A 
HETATM   18  C   UNL     1     -47.825  60.460 -60.011  1.00  0.00     0.026 A 
BRANCH  14  19
HETATM   19  O   UNL     1     -50.044  60.654 -57.112  1.00  0.00    -0.354 OA
HETATM   20  C   UNL     1     -50.703  61.780 -56.553  1.00  0.00     0.210 C 
ENDBRANCH  14  19
ENDBRANCH  10  13
ENDBRANCH   2   7
BRANCH   1  21
HETATM   21  C   UNL     1     -43.089  57.068 -57.684  1.00  0.00     0.254 C 
HETATM   22  N   UNL     1     -42.092  57.854 -58.232  1.00  0.00    -0.353 N 
HETATM   23  H   UNL     1     -41.659  58.540 -57.625  1.00  0.00     0.163 HD
HETATM   24  O   UNL     1     -43.780  56.277 -58.308  1.00  0.00    -0.268 OA
BRANCH  22  25
HETATM   25  C   UNL     1     -41.649  57.836 -59.621  1.00  0.00     0.080 C 
HETATM   26  C   UNL     1     -41.645  56.437 -60.234  1.00  0.00     0.032 C 
BRANCH  25  27
HETATM   27  C   UNL     1     -42.319  58.907 -60.497  1.00  0.00     0.020 C 
HETATM   28  C   UNL     1     -41.998  60.353 -60.161  1.00  0.00     0.007 C 
ENDBRANCH  25  27
ENDBRANCH  22  25
ENDBRANCH   1  21
BRANCH   5  29
HETATM   29  N   UNL     1     -41.382  55.642 -53.396  1.00  0.00    -0.309 N 
HETATM   30  C   UNL     1     -41.649  54.417 -52.807  1.00  0.00     0.325 C 
HETATM   31  N   UNL     1     -40.462  53.737 -52.593  1.00  0.00    -0.307 N 
HETATM   32  O   UNL     1     -42.765  54.000 -52.531  1.00  0.00    -0.247 OA
HETATM   33  H   UNL     1     -39.701  53.994 -53.207  1.00  0.00     0.170 HD
HETATM   34  H   UNL     1     -40.458  56.009 -53.223  1.00  0.00     0.170 HD
BRANCH  31  35
HETATM   35  C   UNL     1     -40.285  52.517 -51.903  1.00  0.00     0.053 A 
HETATM   36  C   UNL     1     -39.862  51.383 -52.623  1.00  0.00     0.037 A 
HETATM   37 BR   UNL     1     -39.566  51.457 -54.501  1.00  0.00    -0.049 Br
HETATM   38  C   UNL     1     -39.659  50.159 -51.980  1.00  0.00     0.021 A 
HETATM   39  C   UNL     1     -39.864  50.056 -50.606  1.00  0.00     0.002 A 
HETATM   40  C   UNL     1     -40.269  51.174 -49.881  1.00  0.00     0.002 A 
HETATM   41  C   UNL     1     -40.479  52.398 -50.524  1.00  0.00     0.031 A 
ENDBRANCH  31  35
ENDBRANCH   5  29
TORSDOF 8
ENDMDL
