MODEL 1
REMARK VINA RESULT:      -8.7      0.000      0.000
REMARK  3 active torsions:
REMARK  status: ('A' for Active; 'I' for Inactive)
REMARK    1  A    between atoms: C_2  and  N_3 
REMARK       I    between atoms: N_3  and  C_4 
REMARK    2  A    between atoms: C_4  and  C_5 
REMARK    3  A    between atoms: C_22  and  C_23 
REMARK       I    between atoms: C_23  and  N_24 
ROOT
HETATM    1  C   UNL     1     -41.068  53.970 -52.147  1.00  0.00     0.109 A 
HETATM    2  C   UNL     1     -41.602  53.626 -53.394  1.00  0.00     0.136 A 
HETATM    3  F   UNL     1     -42.529  54.396 -53.982  1.00  0.00    -0.205 F 
HETATM    4  C   UNL     1     -41.199  52.476 -54.077  1.00  0.00     0.066 A 
HETATM    5  C   UNL     1     -40.239  51.635 -53.517  1.00  0.00     0.050 A 
HETATM    6  C   UNL     1     -39.823  50.450 -54.208  1.00  0.00     0.099 C 
HETATM    7  N   UNL     1     -39.491  49.491 -54.770  1.00  0.00    -0.191 NA
HETATM    8  C   UNL     1     -39.690  51.957 -52.276  1.00  0.00     0.066 A 
HETATM    9  C   UNL     1     -40.103  53.112 -51.605  1.00  0.00     0.136 A 
HETATM   10  F   UNL     1     -39.538  53.350 -50.415  1.00  0.00    -0.205 F 
ENDROOT
BRANCH   1  11
HETATM   11  C   UNL     1     -41.493  55.189 -51.393  1.00  0.00     0.262 C 
HETATM   12  N   UNL     1     -41.138  56.411 -51.943  1.00  0.00    -0.323 N 
HETATM   13  H   UNL     1     -40.583  56.399 -52.792  1.00  0.00     0.169 HD
HETATM   14  O   UNL     1     -42.118  55.046 -50.349  1.00  0.00    -0.267 OA
BRANCH  12  15
HETATM   15  C   UNL     1     -41.456  57.702 -51.464  1.00  0.00     0.036 A 
HETATM   16  C   UNL     1     -40.521  58.597 -50.941  1.00  0.00     0.032 A 
HETATM   17  C   UNL     1     -40.895  59.862 -50.464  1.00  0.00     0.034 A 
HETATM   18  C   UNL     1     -42.249  60.197 -50.532  1.00  0.00     0.063 A 
HETATM   19  C   UNL     1     -43.212  59.340 -51.045  1.00  0.00     0.030 A 
HETATM   20  N   UNL     1     -42.927  61.323 -50.157  1.00  0.00    -0.277 N 
HETATM   21  C   UNL     1     -42.811  58.074 -51.518  1.00  0.00     0.046 A 
HETATM   22  C   UNL     1     -44.441  60.056 -50.934  1.00  0.00     0.156 A 
HETATM   23  N   UNL     1     -44.251  61.277 -50.385  1.00  0.00    -0.168 NA
HETATM   24  H   UNL     1     -42.539  62.161 -49.738  1.00  0.00     0.189 HD
BRANCH  22  25
HETATM   25  C   UNL     1     -45.775  59.595 -51.340  1.00  0.00     0.270 C 
HETATM   26  N   UNL     1     -46.187  60.074 -52.553  1.00  0.00    -0.365 N 
HETATM   27  H   UNL     1     -45.567  60.688 -53.068  1.00  0.00     0.159 HD
HETATM   28  H   UNL     1     -47.089  59.811 -52.918  1.00  0.00     0.159 HD
HETATM   29  O   UNL     1     -46.483  58.846 -50.674  1.00  0.00    -0.266 OA
ENDBRANCH  22  25
ENDBRANCH  12  15
ENDBRANCH   1  11
TORSDOF 3
ENDMDL
MODEL 2
REMARK VINA RESULT:      -8.6      0.111      1.659
REMARK  3 active torsions:
REMARK  status: ('A' for Active; 'I' for Inactive)
REMARK    1  A    between atoms: C_2  and  N_3 
REMARK       I    between atoms: N_3  and  C_4 
REMARK    2  A    between atoms: C_4  and  C_5 
REMARK    3  A    between atoms: C_22  and  C_23 
REMARK       I    between atoms: C_23  and  N_24 
ROOT
HETATM    1  C   UNL     1     -41.106  54.012 -52.036  1.00  0.00     0.109 A 
HETATM    2  C   UNL     1     -40.130  53.143 -51.538  1.00  0.00     0.136 A 
HETATM    3  F   UNL     1     -39.539  53.375 -50.356  1.00  0.00    -0.205 F 
HETATM    4  C   UNL     1     -39.728  52.004 -52.240  1.00  0.00     0.066 A 
HETATM    5  C   UNL     1     -40.304  51.708 -53.475  1.00  0.00     0.050 A 
HETATM    6  C   UNL     1     -39.895  50.546 -54.206  1.00  0.00     0.099 C 
HETATM    7  N   UNL     1     -39.559  49.604 -54.794  1.00  0.00    -0.191 NA
HETATM    8  C   UNL     1     -41.282  52.559 -53.992  1.00  0.00     0.066 A 
HETATM    9  C   UNL     1     -41.673  53.694 -53.276  1.00  0.00     0.136 A 
HETATM   10  F   UNL     1     -42.610  54.467 -53.841  1.00  0.00    -0.205 F 
ENDROOT
BRANCH   1  11
HETATM   11  C   UNL     1     -41.543  55.242 -51.307  1.00  0.00     0.262 C 
HETATM   12  N   UNL     1     -41.178  56.456 -51.869  1.00  0.00    -0.323 N 
HETATM   13  H   UNL     1     -40.607  56.432 -52.707  1.00  0.00     0.169 HD
HETATM   14  O   UNL     1     -42.188  55.114 -50.274  1.00  0.00    -0.267 OA
BRANCH  12  15
HETATM   15  C   UNL     1     -41.504  57.754 -51.414  1.00  0.00     0.036 A 
HETATM   16  C   UNL     1     -40.573  58.667 -50.916  1.00  0.00     0.032 A 
HETATM   17  C   UNL     1     -40.955  59.939 -50.462  1.00  0.00     0.034 A 
HETATM   18  C   UNL     1     -42.312  60.260 -50.528  1.00  0.00     0.063 A 
HETATM   19  C   UNL     1     -43.271  59.385 -51.017  1.00  0.00     0.030 A 
HETATM   20  N   UNL     1     -42.998  61.388 -50.173  1.00  0.00    -0.277 N 
HETATM   21  C   UNL     1     -42.863  58.113 -51.467  1.00  0.00     0.046 A 
HETATM   22  C   UNL     1     -44.505  60.092 -50.913  1.00  0.00     0.156 A 
HETATM   23  N   UNL     1     -44.323  61.326 -50.390  1.00  0.00    -0.168 NA
HETATM   24  H   UNL     1     -42.615  62.238 -49.774  1.00  0.00     0.189 HD
BRANCH  22  25
HETATM   25  C   UNL     1     -45.839  59.612 -51.301  1.00  0.00     0.270 C 
HETATM   26  N   UNL     1     -46.325  60.177 -52.448  1.00  0.00    -0.365 N 
HETATM   27  H   UNL     1     -45.754  60.859 -52.932  1.00  0.00     0.159 HD
HETATM   28  H   UNL     1     -47.232  59.908 -52.796  1.00  0.00     0.159 HD
HETATM   29  O   UNL     1     -46.485  58.779 -50.674  1.00  0.00    -0.266 OA
ENDBRANCH  22  25
ENDBRANCH  12  15
ENDBRANCH   1  11
TORSDOF 3
ENDMDL
MODEL 3
REMARK VINA RESULT:      -8.5      4.771      5.778
REMARK  3 active torsions:
REMARK  status: ('A' for Active; 'I' for Inactive)
REMARK    1  A    between atoms: C_2  and  N_3 
REMARK       I    between atoms: N_3  and  C_4 
REMARK    2  A    between atoms: C_4  and  C_5 
REMARK    3  A    between atoms: C_22  and  C_23 
REMARK       I    between atoms: C_23  and  N_24 
ROOT
HETATM    1  C   UNL     1     -40.760  53.976 -53.317  1.00  0.00     0.109 A 
HETATM    2  C   UNL     1     -40.242  52.873 -54.003  1.00  0.00     0.136 A 
HETATM    3  F   UNL     1     -40.136  52.881 -55.341  1.00  0.00    -0.205 F 
HETATM    4  C   UNL     1     -39.817  51.722 -53.336  1.00  0.00     0.066 A 
HETATM    5  C   UNL     1     -39.902  51.651 -51.946  1.00  0.00     0.050 A 
HETATM    6  C   UNL     1     -39.473  50.472 -51.253  1.00  0.00     0.099 C 
HETATM    7  N   UNL     1     -39.127  49.515 -50.697  1.00  0.00    -0.191 NA
HETATM    8  C   UNL     1     -40.413  52.739 -51.239  1.00  0.00     0.066 A 
HETATM    9  C   UNL     1     -40.834  53.884 -51.921  1.00  0.00     0.136 A 
HETATM   10  F   UNL     1     -41.320  54.885 -51.175  1.00  0.00    -0.205 F 
ENDROOT
BRANCH   1  11
HETATM   11  C   UNL     1     -41.231  55.214 -54.011  1.00  0.00     0.262 C 
HETATM   12  N   UNL     1     -42.423  55.114 -54.711  1.00  0.00    -0.323 N 
HETATM   13  H   UNL     1     -42.873  54.205 -54.743  1.00  0.00     0.169 HD
HETATM   14  O   UNL     1     -40.553  56.230 -53.925  1.00  0.00    -0.267 OA
BRANCH  12  15
HETATM   15  C   UNL     1     -43.109  56.136 -55.405  1.00  0.00     0.036 A 
HETATM   16  C   UNL     1     -43.938  57.079 -54.793  1.00  0.00     0.032 A 
HETATM   17  C   UNL     1     -44.609  58.064 -55.534  1.00  0.00     0.034 A 
HETATM   18  C   UNL     1     -44.415  58.067 -56.917  1.00  0.00     0.063 A 
HETATM   19  C   UNL     1     -43.600  57.152 -57.566  1.00  0.00     0.030 A 
HETATM   20  N   UNL     1     -44.913  58.873 -57.903  1.00  0.00    -0.277 N 
HETATM   21  C   UNL     1     -42.936  56.171 -56.800  1.00  0.00     0.046 A 
HETATM   22  C   UNL     1     -43.676  57.501 -58.946  1.00  0.00     0.156 A 
HETATM   23  N   UNL     1     -44.490  58.563 -59.140  1.00  0.00    -0.168 NA
HETATM   24  H   UNL     1     -45.549  59.654 -57.792  1.00  0.00     0.189 HD
BRANCH  22  25
HETATM   25  C   UNL     1     -42.992  56.842 -60.068  1.00  0.00     0.270 C 
HETATM   26  N   UNL     1     -41.671  57.175 -60.190  1.00  0.00    -0.365 N 
HETATM   27  H   UNL     1     -41.271  57.825 -59.525  1.00  0.00     0.159 HD
HETATM   28  H   UNL     1     -41.117  56.771 -60.928  1.00  0.00     0.159 HD
HETATM   29  O   UNL     1     -43.529  56.058 -60.843  1.00  0.00    -0.266 OA
ENDBRANCH  22  25
ENDBRANCH  12  15
ENDBRANCH   1  11
TORSDOF 3
ENDMDL
MODEL 4
REMARK VINA RESULT:      -8.5      4.761      5.881
REMARK  3 active torsions:
REMARK  status: ('A' for Active; 'I' for Inactive)
REMARK    1  A    between atoms: C_2  and  N_3 
REMARK       I    between atoms: N_3  and  C_4 
REMARK    2  A    between atoms: C_4  and  C_5 
REMARK    3  A    between atoms: C_22  and  C_23 
REMARK       I    between atoms: C_23  and  N_24 
ROOT
HETATM    1  C   UNL     1     -40.695  53.880 -53.412  1.00  0.00     0.109 A 
HETATM    2  C   UNL     1     -40.708  53.845 -52.014  1.00  0.00     0.136 A 
HETATM    3  F   UNL     1     -41.109  54.909 -51.301  1.00  0.00    -0.205 F 
HETATM    4  C   UNL     1     -40.306  52.713 -51.300  1.00  0.00     0.066 A 
HETATM    5  C   UNL     1     -39.878  51.576 -51.983  1.00  0.00     0.050 A 
HETATM    6  C   UNL     1     -39.459  50.411 -51.260  1.00  0.00     0.099 C 
HETATM    7  N   UNL     1     -39.120  49.472 -50.670  1.00  0.00    -0.191 NA
HETATM    8  C   UNL     1     -39.858  51.585 -53.378  1.00  0.00     0.066 A 
HETATM    9  C   UNL     1     -40.263  52.726 -54.077  1.00  0.00     0.136 A 
HETATM   10  F   UNL     1     -40.208  52.663 -55.414  1.00  0.00    -0.205 F 
ENDROOT
BRANCH   1  11
HETATM   11  C   UNL     1     -41.109  55.085 -54.196  1.00  0.00     0.262 C 
HETATM   12  N   UNL     1     -42.420  55.109 -54.645  1.00  0.00    -0.323 N 
HETATM   13  H   UNL     1     -42.997  54.298 -54.451  1.00  0.00     0.169 HD
HETATM   14  O   UNL     1     -40.283  55.968 -54.395  1.00  0.00    -0.267 OA
BRANCH  12  15
HETATM   15  C   UNL     1     -43.073  56.141 -55.356  1.00  0.00     0.036 A 
HETATM   16  C   UNL     1     -43.875  57.117 -54.761  1.00  0.00     0.032 A 
HETATM   17  C   UNL     1     -44.514  58.110 -55.519  1.00  0.00     0.034 A 
HETATM   18  C   UNL     1     -44.316  58.087 -56.901  1.00  0.00     0.063 A 
HETATM   19  C   UNL     1     -43.526  57.138 -57.533  1.00  0.00     0.030 A 
HETATM   20  N   UNL     1     -44.787  58.893 -57.900  1.00  0.00    -0.277 N 
HETATM   21  C   UNL     1     -42.895  56.150 -56.751  1.00  0.00     0.046 A 
HETATM   22  C   UNL     1     -43.587  57.470 -58.919  1.00  0.00     0.156 A 
HETATM   23  N   UNL     1     -44.369  58.552 -59.132  1.00  0.00    -0.168 NA
HETATM   24  H   UNL     1     -45.400  59.694 -57.804  1.00  0.00     0.189 HD
BRANCH  22  25
HETATM   25  C   UNL     1     -42.920  56.774 -60.028  1.00  0.00     0.270 C 
HETATM   26  N   UNL     1     -41.592  57.074 -60.158  1.00  0.00    -0.365 N 
HETATM   27  H   UNL     1     -41.176  57.727 -59.505  1.00  0.00     0.159 HD
HETATM   28  H   UNL     1     -41.047  56.643 -60.888  1.00  0.00     0.159 HD
HETATM   29  O   UNL     1     -43.475  55.988 -60.789  1.00  0.00    -0.266 OA
ENDBRANCH  22  25
ENDBRANCH  12  15
ENDBRANCH   1  11
TORSDOF 3
ENDMDL
MODEL 5
REMARK VINA RESULT:      -8.3     16.223     19.534
REMARK  3 active torsions:
REMARK  status: ('A' for Active; 'I' for Inactive)
REMARK    1  A    between atoms: C_2  and  N_3 
REMARK       I    between atoms: N_3  and  C_4 
REMARK    2  A    between atoms: C_4  and  C_5 
REMARK    3  A    between atoms: C_22  and  C_23 
REMARK       I    between atoms: C_23  and  N_24 
ROOT
HETATM    1  C   UNL     1     -36.608  41.419 -57.176  1.00  0.00     0.109 A 
HETATM    2  C   UNL     1     -35.313  41.790 -56.800  1.00  0.00     0.136 A 
HETATM    3  F   UNL     1     -34.336  41.902 -57.713  1.00  0.00    -0.205 F 
HETATM    4  C   UNL     1     -34.979  42.057 -55.470  1.00  0.00     0.066 A 
HETATM    5  C   UNL     1     -35.950  41.956 -54.475  1.00  0.00     0.050 A 
HETATM    6  C   UNL     1     -35.615  42.223 -53.107  1.00  0.00     0.099 C 
HETATM    7  N   UNL     1     -35.339  42.438 -52.001  1.00  0.00    -0.191 NA
HETATM    8  C   UNL     1     -37.249  41.590 -54.825  1.00  0.00     0.066 A 
HETATM    9  C   UNL     1     -37.568  41.326 -56.160  1.00  0.00     0.136 A 
HETATM   10  F   UNL     1     -38.834  40.972 -56.417  1.00  0.00    -0.205 F 
ENDROOT
BRANCH   1  11
HETATM   11  C   UNL     1     -36.986  41.117 -58.591  1.00  0.00     0.262 C 
HETATM   12  N   UNL     1     -37.049  39.777 -58.942  1.00  0.00    -0.323 N 
HETATM   13  H   UNL     1     -36.796  39.095 -58.235  1.00  0.00     0.169 HD
HETATM   14  O   UNL     1     -37.216  42.051 -59.350  1.00  0.00    -0.267 OA
BRANCH  12  15
HETATM   15  C   UNL     1     -37.427  39.224 -60.186  1.00  0.00     0.036 A 
HETATM   16  C   UNL     1     -36.557  39.055 -61.265  1.00  0.00     0.032 A 
HETATM   17  C   UNL     1     -36.991  38.514 -62.486  1.00  0.00     0.034 A 
HETATM   18  C   UNL     1     -38.335  38.149 -62.582  1.00  0.00     0.063 A 
HETATM   19  C   UNL     1     -39.233  38.298 -61.535  1.00  0.00     0.030 A 
HETATM   20  N   UNL     1     -39.059  37.608 -63.607  1.00  0.00    -0.277 N 
HETATM   21  C   UNL     1     -38.774  38.843 -60.319  1.00  0.00     0.046 A 
HETATM   22  C   UNL     1     -40.475  37.810 -62.040  1.00  0.00     0.156 A 
HETATM   23  N   UNL     1     -40.354  37.389 -63.319  1.00  0.00    -0.168 NA
HETATM   24  H   UNL     1     -38.724  37.366 -64.533  1.00  0.00     0.189 HD
BRANCH  22  25
HETATM   25  C   UNL     1     -41.757  37.742 -61.327  1.00  0.00     0.270 C 
HETATM   26  N   UNL     1     -42.726  38.560 -61.840  1.00  0.00    -0.365 N 
HETATM   27  H   UNL     1     -42.501  39.132 -62.646  1.00  0.00     0.159 HD
HETATM   28  H   UNL     1     -43.642  38.581 -61.421  1.00  0.00     0.159 HD
HETATM   29  O   UNL     1     -41.975  37.026 -60.355  1.00  0.00    -0.266 OA
ENDBRANCH  22  25
ENDBRANCH  12  15
ENDBRANCH   1  11
TORSDOF 3
ENDMDL
MODEL 6
REMARK VINA RESULT:      -8.2      2.240      3.011
REMARK  3 active torsions:
REMARK  status: ('A' for Active; 'I' for Inactive)
REMARK    1  A    between atoms: C_2  and  N_3 
REMARK       I    between atoms: N_3  and  C_4 
REMARK    2  A    between atoms: C_4  and  C_5 
REMARK    3  A    between atoms: C_22  and  C_23 
REMARK       I    between atoms: C_23  and  N_24 
ROOT
HETATM    1  C   UNL     1     -41.063  54.174 -53.615  1.00  0.00     0.109 A 
HETATM    2  C   UNL     1     -40.534  53.428 -54.673  1.00  0.00     0.136 A 
HETATM    3  F   UNL     1     -40.471  53.938 -55.912  1.00  0.00    -0.205 F 
HETATM    4  C   UNL     1     -40.053  52.129 -54.491  1.00  0.00     0.066 A 
HETATM    5  C   UNL     1     -40.092  51.543 -53.227  1.00  0.00     0.050 A 
HETATM    6  C   UNL     1     -39.606  50.209 -53.031  1.00  0.00     0.099 C 
HETATM    7  N   UNL     1     -39.213  49.128 -52.879  1.00  0.00    -0.191 NA
HETATM    8  C   UNL     1     -40.613  52.268 -52.155  1.00  0.00     0.066 A 
HETATM    9  C   UNL     1     -41.090  53.567 -52.353  1.00  0.00     0.136 A 
HETATM   10  F   UNL     1     -41.583  54.197 -51.278  1.00  0.00    -0.205 F 
ENDROOT
BRANCH   1  11
HETATM   11  C   UNL     1     -41.594  55.562 -53.788  1.00  0.00     0.262 C 
HETATM   12  N   UNL     1     -42.961  55.681 -53.980  1.00  0.00    -0.323 N 
HETATM   13  H   UNL     1     -43.504  54.825 -54.032  1.00  0.00     0.169 HD
HETATM   14  O   UNL     1     -40.808  56.500 -53.752  1.00  0.00    -0.267 OA
BRANCH  12  15
HETATM   15  C   UNL     1     -43.717  56.867 -54.117  1.00  0.00     0.036 A 
HETATM   16  C   UNL     1     -44.076  57.431 -55.342  1.00  0.00     0.032 A 
HETATM   17  C   UNL     1     -44.815  58.622 -55.420  1.00  0.00     0.034 A 
HETATM   18  C   UNL     1     -45.182  59.226 -54.216  1.00  0.00     0.063 A 
HETATM   19  C   UNL     1     -44.850  58.699 -52.976  1.00  0.00     0.030 A 
HETATM   20  N   UNL     1     -45.886  60.367 -53.949  1.00  0.00    -0.277 N 
HETATM   21  C   UNL     1     -44.106  57.503 -52.924  1.00  0.00     0.046 A 
HETATM   22  C   UNL     1     -45.408  59.606 -52.027  1.00  0.00     0.156 A 
HETATM   23  N   UNL     1     -46.044  60.630 -52.640  1.00  0.00    -0.168 NA
HETATM   24  H   UNL     1     -46.285  61.012 -54.621  1.00  0.00     0.189 HD
BRANCH  22  25
HETATM   25  C   UNL     1     -45.344  59.508 -50.563  1.00  0.00     0.270 C 
HETATM   26  N   UNL     1     -44.153  59.916 -50.027  1.00  0.00    -0.365 N 
HETATM   27  H   UNL     1     -43.428  60.245 -50.653  1.00  0.00     0.159 HD
HETATM   28  H   UNL     1     -44.014  59.889 -49.030  1.00  0.00     0.159 HD
HETATM   29  O   UNL     1     -46.258  59.103 -49.852  1.00  0.00    -0.266 OA
ENDBRANCH  22  25
ENDBRANCH  12  15
ENDBRANCH   1  11
TORSDOF 3
ENDMDL
MODEL 7
REMARK VINA RESULT:      -8.1      4.632      7.596
REMARK  3 active torsions:
REMARK  status: ('A' for Active; 'I' for Inactive)
REMARK    1  A    between atoms: C_2  and  N_3 
REMARK       I    between atoms: N_3  and  C_4 
REMARK    2  A    between atoms: C_4  and  C_5 
REMARK    3  A    between atoms: C_22  and  C_23 
REMARK       I    between atoms: C_23  and  N_24 
ROOT
HETATM    1  C   UNL     1     -42.794  56.274 -57.003  1.00  0.00     0.109 A 
HETATM    2  C   UNL     1     -42.444  57.623 -56.885  1.00  0.00     0.136 A 
HETATM    3  F   UNL     1     -41.929  58.103 -55.743  1.00  0.00    -0.205 F 
HETATM    4  C   UNL     1     -42.613  58.525 -57.938  1.00  0.00     0.066 A 
HETATM    5  C   UNL     1     -43.144  58.087 -59.151  1.00  0.00     0.050 A 
HETATM    6  C   UNL     1     -43.327  59.005 -60.236  1.00  0.00     0.099 C 
HETATM    7  N   UNL     1     -43.474  59.753 -61.110  1.00  0.00    -0.191 NA
HETATM    8  C   UNL     1     -43.499  56.746 -59.294  1.00  0.00     0.066 A 
HETATM    9  C   UNL     1     -43.323  55.856 -58.231  1.00  0.00     0.136 A 
HETATM   10  F   UNL     1     -43.695  54.586 -58.441  1.00  0.00    -0.205 F 
ENDROOT
BRANCH   1  11
HETATM   11  C   UNL     1     -42.632  55.294 -55.886  1.00  0.00     0.262 C 
HETATM   12  N   UNL     1     -41.333  54.934 -55.563  1.00  0.00    -0.323 N 
HETATM   13  H   UNL     1     -40.585  55.322 -56.127  1.00  0.00     0.169 HD
HETATM   14  O   UNL     1     -43.636  54.870 -55.326  1.00  0.00    -0.267 OA
BRANCH  12  15
HETATM   15  C   UNL     1     -40.905  54.074 -54.526  1.00  0.00     0.036 A 
HETATM   16  C   UNL     1     -40.306  52.831 -54.735  1.00  0.00     0.032 A 
HETATM   17  C   UNL     1     -39.915  52.010 -53.666  1.00  0.00     0.034 A 
HETATM   18  C   UNL     1     -40.147  52.487 -52.375  1.00  0.00     0.063 A 
HETATM   19  C   UNL     1     -40.736  53.717 -52.120  1.00  0.00     0.030 A 
HETATM   20  N   UNL     1     -39.892  51.945 -51.146  1.00  0.00    -0.277 N 
HETATM   21  C   UNL     1     -41.121  54.523 -53.211  1.00  0.00     0.046 A 
HETATM   22  C   UNL     1     -40.785  53.817 -50.699  1.00  0.00     0.156 A 
HETATM   23  N   UNL     1     -40.263  52.718 -50.110  1.00  0.00    -0.168 NA
HETATM   24  H   UNL     1     -39.466  51.047 -50.949  1.00  0.00     0.189 HD
BRANCH  22  25
HETATM   25  C   UNL     1     -41.319  54.933 -49.906  1.00  0.00     0.270 C 
HETATM   26  N   UNL     1     -41.024  54.863 -48.572  1.00  0.00    -0.365 N 
HETATM   27  H   UNL     1     -40.478  54.078 -48.237  1.00  0.00     0.159 HD
HETATM   28  H   UNL     1     -41.344  55.585 -47.947  1.00  0.00     0.159 HD
HETATM   29  O   UNL     1     -41.974  55.862 -50.367  1.00  0.00    -0.266 OA
ENDBRANCH  22  25
ENDBRANCH  12  15
ENDBRANCH   1  11
TORSDOF 3
ENDMDL
MODEL 8
REMARK VINA RESULT:      -8.0      4.755      8.331
REMARK  3 active torsions:
REMARK  status: ('A' for Active; 'I' for Inactive)
REMARK    1  A    between atoms: C_2  and  N_3 
REMARK       I    between atoms: N_3  and  C_4 
REMARK    2  A    between atoms: C_4  and  C_5 
REMARK    3  A    between atoms: C_22  and  C_23 
REMARK       I    between atoms: C_23  and  N_24 
ROOT
HETATM    1  C   UNL     1     -42.687  56.691 -56.731  1.00  0.00     0.109 A 
HETATM    2  C   UNL     1     -43.104  56.171 -57.961  1.00  0.00     0.136 A 
HETATM    3  F   UNL     1     -43.470  54.886 -58.077  1.00  0.00    -0.205 F 
HETATM    4  C   UNL     1     -43.157  56.957 -59.114  1.00  0.00     0.066 A 
HETATM    5  C   UNL     1     -42.788  58.301 -59.058  1.00  0.00     0.050 A 
HETATM    6  C   UNL     1     -42.834  59.114 -60.238  1.00  0.00     0.099 C 
HETATM    7  N   UNL     1     -42.871  59.768 -61.195  1.00  0.00    -0.191 NA
HETATM    8  C   UNL     1     -42.371  58.843 -57.843  1.00  0.00     0.066 A 
HETATM    9  C   UNL     1     -42.324  58.043 -56.697  1.00  0.00     0.136 A 
HETATM   10  F   UNL     1     -41.905  58.633 -55.569  1.00  0.00    -0.205 F 
ENDROOT
BRANCH   1  11
HETATM   11  C   UNL     1     -42.611  55.866 -55.486  1.00  0.00     0.262 C 
HETATM   12  N   UNL     1     -41.369  55.340 -55.167  1.00  0.00    -0.323 N 
HETATM   13  H   UNL     1     -40.608  55.512 -55.815  1.00  0.00     0.169 HD
HETATM   14  O   UNL     1     -43.631  55.702 -54.827  1.00  0.00    -0.267 OA
BRANCH  12  15
HETATM   15  C   UNL     1     -41.017  54.576 -54.032  1.00  0.00     0.036 A 
HETATM   16  C   UNL     1     -40.972  55.081 -52.731  1.00  0.00     0.032 A 
HETATM   17  C   UNL     1     -40.598  54.280 -51.640  1.00  0.00     0.034 A 
HETATM   18  C   UNL     1     -40.272  52.949 -51.907  1.00  0.00     0.063 A 
HETATM   19  C   UNL     1     -40.305  52.405 -53.183  1.00  0.00     0.030 A 
HETATM   20  N   UNL     1     -39.875  51.929 -51.088  1.00  0.00    -0.277 N 
HETATM   21  C   UNL     1     -40.683  53.230 -54.262  1.00  0.00     0.046 A 
HETATM   22  C   UNL     1     -39.912  51.044 -53.016  1.00  0.00     0.156 A 
HETATM   23  N   UNL     1     -39.648  50.764 -51.720  1.00  0.00    -0.168 NA
HETATM   24  H   UNL     1     -39.739  51.966 -50.084  1.00  0.00     0.189 HD
BRANCH  22  25
HETATM   25  C   UNL     1     -39.785  50.023 -54.064  1.00  0.00     0.270 C 
HETATM   26  N   UNL     1     -40.938  49.790 -54.761  1.00  0.00    -0.365 N 
HETATM   27  H   UNL     1     -41.767  50.319 -54.517  1.00  0.00     0.159 HD
HETATM   28  H   UNL     1     -40.949  49.108 -55.503  1.00  0.00     0.159 HD
HETATM   29  O   UNL     1     -38.750  49.414 -54.318  1.00  0.00    -0.266 OA
ENDBRANCH  22  25
ENDBRANCH  12  15
ENDBRANCH   1  11
TORSDOF 3
ENDMDL
MODEL 9
REMARK VINA RESULT:      -8.0      5.872      7.855
REMARK  3 active torsions:
REMARK  status: ('A' for Active; 'I' for Inactive)
REMARK    1  A    between atoms: C_2  and  N_3 
REMARK       I    between atoms: N_3  and  C_4 
REMARK    2  A    between atoms: C_4  and  C_5 
REMARK    3  A    between atoms: C_22  and  C_23 
REMARK       I    between atoms: C_23  and  N_24 
ROOT
HETATM    1  C   UNL     1     -44.496  56.347 -58.665  1.00  0.00     0.109 A 
HETATM    2  C   UNL     1     -44.543  55.428 -59.719  1.00  0.00     0.136 A 
HETATM    3  F   UNL     1     -43.620  54.460 -59.830  1.00  0.00    -0.205 F 
HETATM    4  C   UNL     1     -45.541  55.475 -60.695  1.00  0.00     0.066 A 
HETATM    5  C   UNL     1     -46.528  56.458 -60.635  1.00  0.00     0.050 A 
HETATM    6  C   UNL     1     -47.553  56.517 -61.635  1.00  0.00     0.099 C 
HETATM    7  N   UNL     1     -48.379  56.562 -62.448  1.00  0.00    -0.191 NA
HETATM    8  C   UNL     1     -46.504  57.384 -59.593  1.00  0.00     0.066 A 
HETATM    9  C   UNL     1     -45.498  57.324 -58.623  1.00  0.00     0.136 A 
HETATM   10  F   UNL     1     -45.537  58.253 -57.659  1.00  0.00    -0.205 F 
ENDROOT
BRANCH   1  11
HETATM   11  C   UNL     1     -43.431  56.323 -57.616  1.00  0.00     0.262 C 
HETATM   12  N   UNL     1     -43.559  55.361 -56.626  1.00  0.00    -0.323 N 
HETATM   13  H   UNL     1     -44.382  54.768 -56.654  1.00  0.00     0.169 HD
HETATM   14  O   UNL     1     -42.519  57.139 -57.685  1.00  0.00    -0.267 OA
BRANCH  12  15
HETATM   15  C   UNL     1     -42.674  55.093 -55.558  1.00  0.00     0.036 A 
HETATM   16  C   UNL     1     -41.358  54.656 -55.721  1.00  0.00     0.032 A 
HETATM   17  C   UNL     1     -40.526  54.389 -54.623  1.00  0.00     0.034 A 
HETATM   18  C   UNL     1     -41.068  54.578 -53.350  1.00  0.00     0.063 A 
HETATM   19  C   UNL     1     -42.369  55.012 -53.141  1.00  0.00     0.030 A 
HETATM   20  N   UNL     1     -40.537  54.409 -52.102  1.00  0.00    -0.277 N 
HETATM   21  C   UNL     1     -43.185  55.274 -54.261  1.00  0.00     0.046 A 
HETATM   22  C   UNL     1     -42.516  55.074 -51.724  1.00  0.00     0.156 A 
HETATM   23  N   UNL     1     -41.379  54.699 -51.095  1.00  0.00    -0.168 NA
HETATM   24  H   UNL     1     -39.600  54.096 -51.871  1.00  0.00     0.189 HD
BRANCH  22  25
HETATM   25  C   UNL     1     -43.711  55.480 -50.973  1.00  0.00     0.270 C 
HETATM   26  N   UNL     1     -44.418  54.437 -50.440  1.00  0.00    -0.365 N 
HETATM   27  H   UNL     1     -44.080  53.495 -50.593  1.00  0.00     0.159 HD
HETATM   28  H   UNL     1     -45.252  54.616 -49.904  1.00  0.00     0.159 HD
HETATM   29  O   UNL     1     -44.072  56.643 -50.817  1.00  0.00    -0.266 OA
ENDBRANCH  22  25
ENDBRANCH  12  15
ENDBRANCH   1  11
TORSDOF 3
ENDMDL
MODEL 10
REMARK VINA RESULT:      -7.8      2.420      2.873
REMARK  3 active torsions:
REMARK  status: ('A' for Active; 'I' for Inactive)
REMARK    1  A    between atoms: C_2  and  N_3 
REMARK       I    between atoms: N_3  and  C_4 
REMARK    2  A    between atoms: C_4  and  C_5 
REMARK    3  A    between atoms: C_22  and  C_23 
REMARK       I    between atoms: C_23  and  N_24 
ROOT
HETATM    1  C   UNL     1     -41.246  54.397 -53.143  1.00  0.00     0.109 A 
HETATM    2  C   UNL     1     -41.389  53.756 -54.378  1.00  0.00     0.136 A 
HETATM    3  F   UNL     1     -42.023  54.357 -55.397  1.00  0.00    -0.205 F 
HETATM    4  C   UNL     1     -40.885  52.474 -54.607  1.00  0.00     0.066 A 
HETATM    5  C   UNL     1     -40.217  51.797 -53.588  1.00  0.00     0.050 A 
HETATM    6  C   UNL     1     -39.701  50.478 -53.811  1.00  0.00     0.099 C 
HETATM    7  N   UNL     1     -39.286  49.411 -53.996  1.00  0.00    -0.191 NA
HETATM    8  C   UNL     1     -40.060  52.415 -52.348  1.00  0.00     0.066 A 
HETATM    9  C   UNL     1     -40.570  53.699 -52.135  1.00  0.00     0.136 A 
HETATM   10  F   UNL     1     -40.387  54.224 -50.916  1.00  0.00    -0.205 F 
ENDROOT
BRANCH   1  11
HETATM   11  C   UNL     1     -41.788  55.764 -52.872  1.00  0.00     0.262 C 
HETATM   12  N   UNL     1     -43.164  55.870 -52.747  1.00  0.00    -0.323 N 
HETATM   13  H   UNL     1     -43.714  55.029 -52.887  1.00  0.00     0.169 HD
HETATM   14  O   UNL     1     -41.002  56.699 -52.778  1.00  0.00    -0.267 OA
BRANCH  12  15
HETATM   15  C   UNL     1     -43.920  57.025 -52.443  1.00  0.00     0.036 A 
HETATM   16  C   UNL     1     -44.422  57.322 -51.174  1.00  0.00     0.032 A 
HETATM   17  C   UNL     1     -45.182  58.477 -50.932  1.00  0.00     0.034 A 
HETATM   18  C   UNL     1     -45.419  59.325 -52.015  1.00  0.00     0.063 A 
HETATM   19  C   UNL     1     -44.938  59.071 -53.292  1.00  0.00     0.030 A 
HETATM   20  N   UNL     1     -46.107  60.502 -52.115  1.00  0.00    -0.277 N 
HETATM   21  C   UNL     1     -44.177  57.904 -53.510  1.00  0.00     0.046 A 
HETATM   22  C   UNL     1     -45.395  60.165 -54.085  1.00  0.00     0.156 A 
HETATM   23  N   UNL     1     -46.115  61.039 -53.347  1.00  0.00    -0.168 NA
HETATM   24  H   UNL     1     -46.596  60.991 -51.373  1.00  0.00     0.189 HD
BRANCH  22  25
HETATM   25  C   UNL     1     -45.157  60.382 -55.518  1.00  0.00     0.270 C 
HETATM   26  N   UNL     1     -46.179  59.964 -56.324  1.00  0.00    -0.365 N 
HETATM   27  H   UNL     1     -46.998  59.552 -55.894  1.00  0.00     0.159 HD
HETATM   28  H   UNL     1     -46.110  60.074 -57.324  1.00  0.00     0.159 HD
HETATM   29  O   UNL     1     -44.142  60.891 -55.984  1.00  0.00    -0.266 OA
ENDBRANCH  22  25
ENDBRANCH  12  15
ENDBRANCH   1  11
TORSDOF 3
ENDMDL
