MODEL 1
REMARK VINA RESULT:      -8.8      0.000      0.000
REMARK  5 active torsions:
REMARK  status: ('A' for Active; 'I' for Inactive)
REMARK    1  A    between atoms: O_2  and  C_3 
REMARK    2  A    between atoms: C_4  and  O_5 
REMARK    3  A    between atoms: C_6  and  C_7 
REMARK    4  A    between atoms: N_8  and  N_9 
REMARK       I    between atoms: N_9  and  C_10 
REMARK    5  A    between atoms: C_10  and  C_11 
ROOT
HETATM    1  N   UNL     1     -42.695  56.751 -50.896  1.00  0.00    -0.242 N 
HETATM    2  C   UNL     1     -41.318  56.684 -50.752  1.00  0.00     0.292 C 
HETATM    3  O   UNL     1     -40.569  57.656 -50.673  1.00  0.00    -0.264 OA
HETATM    4  H   UNL     1     -43.208  55.874 -50.961  1.00  0.00     0.192 HD
ENDROOT
BRANCH   2   5
HETATM    5  C   UNL     1     -40.815  55.300 -50.707  1.00  0.00     0.154 A 
HETATM    6  N   UNL     1     -40.347  54.735 -49.569  1.00  0.00    -0.168 NA
HETATM    7  N   UNL     1     -40.007  53.480 -49.938  1.00  0.00    -0.276 N 
HETATM    8  H   UNL     1     -39.618  52.861 -49.237  1.00  0.00     0.189 HD
HETATM    9  C   UNL     1     -40.241  53.216 -51.252  1.00  0.00     0.069 A 
HETATM   10  C   UNL     1     -40.755  54.378 -51.782  1.00  0.00     0.007 A 
HETATM   11  C   UNL     1     -40.017  51.997 -52.013  1.00  0.00    -0.001 A 
HETATM   12  C   UNL     1     -41.166  54.471 -53.208  1.00  0.00     0.048 C 
HETATM   13  C   UNL     1     -40.393  53.453 -54.078  1.00  0.00     0.044 C 
HETATM   14  C   UNL     1     -40.150  52.098 -53.420  1.00  0.00    -0.045 A 
HETATM   15  C   UNL     1     -39.959  50.962 -54.216  1.00  0.00     0.008 A 
HETATM   16  C   UNL     1     -39.664  49.735 -53.621  1.00  0.00     0.001 A 
HETATM   17  C   UNL     1     -39.545  49.637 -52.235  1.00  0.00     0.001 A 
HETATM   18  C   UNL     1     -39.719  50.764 -51.428  1.00  0.00     0.014 A 
ENDBRANCH   2   5
BRANCH   1  19
HETATM   19  N   UNL     1     -43.321  57.956 -50.961  1.00  0.00    -0.183 NA
HETATM   20  C   UNL     1     -44.356  58.025 -51.736  1.00  0.00     0.153 C 
BRANCH  20  21
HETATM   21  C   UNL     1     -45.105  59.293 -51.874  1.00  0.00     0.019 A 
HETATM   22  C   UNL     1     -45.552  59.986 -50.750  1.00  0.00     0.110 A 
HETATM   23  C   UNL     1     -46.270  61.185 -50.884  1.00  0.00     0.102 A 
HETATM   24  C   UNL     1     -46.531  61.688 -52.160  1.00  0.00     0.040 A 
HETATM   25  C   UNL     1     -46.084  60.998 -53.290  1.00  0.00     0.004 A 
HETATM   26  C   UNL     1     -45.374  59.804 -53.149  1.00  0.00     0.016 A 
BRANCH  22  27
HETATM   27  O   UNL     1     -45.302  59.504 -49.489  1.00  0.00    -0.357 OA
HETATM   28  H   UNL     1     -46.037  58.885 -49.303  1.00  0.00     0.218 HD
ENDBRANCH  22  27
BRANCH  23  29
HETATM   29  O   UNL     1     -46.655  61.764 -49.699  1.00  0.00    -0.353 OA
HETATM   30  C   UNL     1     -46.062  63.018 -49.382  1.00  0.00     0.210 C 
ENDBRANCH  23  29
ENDBRANCH  20  21
ENDBRANCH   1  19
TORSDOF 5
ENDMDL
MODEL 2
REMARK VINA RESULT:      -8.7      1.841      2.432
REMARK  5 active torsions:
REMARK  status: ('A' for Active; 'I' for Inactive)
REMARK    1  A    between atoms: O_2  and  C_3 
REMARK    2  A    between atoms: C_4  and  O_5 
REMARK    3  A    between atoms: C_6  and  C_7 
REMARK    4  A    between atoms: N_8  and  N_9 
REMARK       I    between atoms: N_9  and  C_10 
REMARK    5  A    between atoms: C_10  and  C_11 
ROOT
HETATM    1  N   UNL     1     -42.286  57.617 -52.029  1.00  0.00    -0.242 N 
HETATM    2  C   UNL     1     -41.488  56.639 -51.454  1.00  0.00     0.292 C 
HETATM    3  O   UNL     1     -40.952  56.724 -50.352  1.00  0.00    -0.264 OA
HETATM    4  H   UNL     1     -42.666  57.434 -52.955  1.00  0.00     0.192 HD
ENDROOT
BRANCH   2   5
HETATM    5  C   UNL     1     -41.330  55.454 -52.315  1.00  0.00     0.154 A 
HETATM    6  N   UNL     1     -41.715  55.445 -53.614  1.00  0.00    -0.168 NA
HETATM    7  N   UNL     1     -41.389  54.206 -54.047  1.00  0.00    -0.276 N 
HETATM    8  H   UNL     1     -41.595  53.963 -55.008  1.00  0.00     0.189 HD
HETATM    9  C   UNL     1     -40.812  53.429 -53.091  1.00  0.00     0.069 A 
HETATM   10  C   UNL     1     -40.768  54.204 -51.954  1.00  0.00     0.007 A 
HETATM   11  C   UNL     1     -40.325  52.061 -53.169  1.00  0.00    -0.001 A 
HETATM   12  C   UNL     1     -40.171  53.701 -50.688  1.00  0.00     0.048 C 
HETATM   13  C   UNL     1     -40.232  52.158 -50.618  1.00  0.00     0.044 C 
HETATM   14  C   UNL     1     -39.978  51.443 -51.941  1.00  0.00    -0.045 A 
HETATM   15  C   UNL     1     -39.492  50.130 -51.943  1.00  0.00     0.008 A 
HETATM   16  C   UNL     1     -39.328  49.447 -53.148  1.00  0.00     0.001 A 
HETATM   17  C   UNL     1     -39.659  50.063 -54.355  1.00  0.00     0.001 A 
HETATM   18  C   UNL     1     -40.159  51.367 -54.369  1.00  0.00     0.014 A 
ENDBRANCH   2   5
BRANCH   1  19
HETATM   19  N   UNL     1     -42.529  58.781 -51.368  1.00  0.00    -0.183 NA
HETATM   20  C   UNL     1     -43.770  59.137 -51.270  1.00  0.00     0.153 C 
BRANCH  20  21
HETATM   21  C   UNL     1     -44.136  60.387 -50.570  1.00  0.00     0.019 A 
HETATM   22  C   UNL     1     -45.200  60.416 -49.668  1.00  0.00     0.110 A 
HETATM   23  C   UNL     1     -45.552  61.606 -49.011  1.00  0.00     0.102 A 
HETATM   24  C   UNL     1     -44.821  62.769 -49.262  1.00  0.00     0.040 A 
HETATM   25  C   UNL     1     -43.754  62.744 -50.164  1.00  0.00     0.004 A 
HETATM   26  C   UNL     1     -43.413  61.559 -50.817  1.00  0.00     0.016 A 
BRANCH  22  27
HETATM   27  O   UNL     1     -45.926  59.280 -49.410  1.00  0.00    -0.357 OA
HETATM   28  H   UNL     1     -46.223  58.964 -50.287  1.00  0.00     0.218 HD
ENDBRANCH  22  27
BRANCH  23  29
HETATM   29  O   UNL     1     -46.619  61.499 -48.154  1.00  0.00    -0.353 OA
HETATM   30  C   UNL     1     -46.625  62.379 -47.034  1.00  0.00     0.210 C 
ENDBRANCH  23  29
ENDBRANCH  20  21
ENDBRANCH   1  19
TORSDOF 5
ENDMDL
MODEL 3
REMARK VINA RESULT:      -8.5      2.508      3.455
REMARK  5 active torsions:
REMARK  status: ('A' for Active; 'I' for Inactive)
REMARK    1  A    between atoms: O_2  and  C_3 
REMARK    2  A    between atoms: C_4  and  O_5 
REMARK    3  A    between atoms: C_6  and  C_7 
REMARK    4  A    between atoms: N_8  and  N_9 
REMARK       I    between atoms: N_9  and  C_10 
REMARK    5  A    between atoms: C_10  and  C_11 
ROOT
HETATM    1  N   UNL     1     -43.798  58.557 -51.891  1.00  0.00    -0.242 N 
HETATM    2  C   UNL     1     -44.204  57.286 -51.516  1.00  0.00     0.292 C 
HETATM    3  O   UNL     1     -44.968  57.034 -50.588  1.00  0.00    -0.264 OA
HETATM    4  H   UNL     1     -43.151  58.637 -52.673  1.00  0.00     0.192 HD
ENDROOT
BRANCH   2   5
HETATM    5  C   UNL     1     -43.611  56.228 -52.353  1.00  0.00     0.154 A 
HETATM    6  N   UNL     1     -43.978  56.032 -53.642  1.00  0.00    -0.168 NA
HETATM    7  N   UNL     1     -43.206  55.001 -54.053  1.00  0.00    -0.276 N 
HETATM    8  H   UNL     1     -43.313  54.669 -55.004  1.00  0.00     0.189 HD
HETATM    9  C   UNL     1     -42.362  54.535 -53.093  1.00  0.00     0.069 A 
HETATM   10  C   UNL     1     -42.606  55.302 -51.976  1.00  0.00     0.007 A 
HETATM   11  C   UNL     1     -41.386  53.460 -53.151  1.00  0.00    -0.001 A 
HETATM   12  C   UNL     1     -41.846  55.106 -50.713  1.00  0.00     0.048 C 
HETATM   13  C   UNL     1     -41.306  53.661 -50.606  1.00  0.00     0.044 C 
HETATM   14  C   UNL     1     -40.813  53.060 -51.918  1.00  0.00    -0.045 A 
HETATM   15  C   UNL     1     -39.857  52.036 -51.900  1.00  0.00     0.008 A 
HETATM   16  C   UNL     1     -39.457  51.433 -53.092  1.00  0.00     0.001 A 
HETATM   17  C   UNL     1     -40.015  51.837 -54.305  1.00  0.00     0.001 A 
HETATM   18  C   UNL     1     -40.979  52.847 -54.339  1.00  0.00     0.014 A 
ENDBRANCH   2   5
BRANCH   1  19
HETATM   19  N   UNL     1     -44.248  59.649 -51.217  1.00  0.00    -0.183 NA
HETATM   20  C   UNL     1     -43.351  60.360 -50.612  1.00  0.00     0.153 C 
BRANCH  20  21
HETATM   21  C   UNL     1     -43.742  61.567 -49.851  1.00  0.00     0.019 A 
HETATM   22  C   UNL     1     -44.665  61.487 -48.809  1.00  0.00     0.110 A 
HETATM   23  C   UNL     1     -45.041  62.635 -48.093  1.00  0.00     0.102 A 
HETATM   24  C   UNL     1     -44.475  63.867 -48.428  1.00  0.00     0.040 A 
HETATM   25  C   UNL     1     -43.548  63.951 -49.470  1.00  0.00     0.004 A 
HETATM   26  C   UNL     1     -43.182  62.807 -50.181  1.00  0.00     0.016 A 
BRANCH  22  27
HETATM   27  O   UNL     1     -45.229  60.283 -48.468  1.00  0.00    -0.357 OA
HETATM   28  H   UNL     1     -46.131  60.503 -48.160  1.00  0.00     0.218 HD
ENDBRANCH  22  27
BRANCH  23  29
HETATM   29  O   UNL     1     -45.961  62.420 -47.097  1.00  0.00    -0.353 OA
HETATM   30  C   UNL     1     -45.482  62.510 -45.759  1.00  0.00     0.210 C 
ENDBRANCH  23  29
ENDBRANCH  20  21
ENDBRANCH   1  19
TORSDOF 5
ENDMDL
MODEL 4
REMARK VINA RESULT:      -8.3      4.773      5.677
REMARK  5 active torsions:
REMARK  status: ('A' for Active; 'I' for Inactive)
REMARK    1  A    between atoms: O_2  and  C_3 
REMARK    2  A    between atoms: C_4  and  O_5 
REMARK    3  A    between atoms: C_6  and  C_7 
REMARK    4  A    between atoms: N_8  and  N_9 
REMARK       I    between atoms: N_9  and  C_10 
REMARK    5  A    between atoms: C_10  and  C_11 
ROOT
HETATM    1  N   UNL     1     -42.568  56.192 -54.866  1.00  0.00    -0.242 N 
HETATM    2  C   UNL     1     -41.596  56.626 -53.978  1.00  0.00     0.292 C 
HETATM    3  O   UNL     1     -41.076  57.739 -53.989  1.00  0.00    -0.264 OA
HETATM    4  H   UNL     1     -42.915  55.241 -54.761  1.00  0.00     0.192 HD
ENDROOT
BRANCH   2   5
HETATM    5  C   UNL     1     -41.225  55.596 -52.991  1.00  0.00     0.154 A 
HETATM    6  N   UNL     1     -41.180  55.849 -51.661  1.00  0.00    -0.168 NA
HETATM    7  N   UNL     1     -40.823  54.667 -51.111  1.00  0.00    -0.276 N 
HETATM    8  H   UNL     1     -40.719  54.617 -50.105  1.00  0.00     0.189 HD
HETATM    9  C   UNL     1     -40.644  53.673 -52.023  1.00  0.00     0.069 A 
HETATM   10  C   UNL     1     -40.887  54.245 -53.252  1.00  0.00     0.007 A 
HETATM   11  C   UNL     1     -40.270  52.283 -51.826  1.00  0.00    -0.001 A 
HETATM   12  C   UNL     1     -40.816  53.453 -54.509  1.00  0.00     0.048 C 
HETATM   13  C   UNL     1     -39.875  52.237 -54.349  1.00  0.00     0.044 C 
HETATM   14  C   UNL     1     -39.942  51.545 -52.991  1.00  0.00    -0.045 A 
HETATM   15  C   UNL     1     -39.582  50.197 -52.877  1.00  0.00     0.008 A 
HETATM   16  C   UNL     1     -39.572  49.580 -51.626  1.00  0.00     0.001 A 
HETATM   17  C   UNL     1     -39.906  50.306 -50.483  1.00  0.00     0.001 A 
HETATM   18  C   UNL     1     -40.254  51.656 -50.578  1.00  0.00     0.014 A 
ENDBRANCH   2   5
BRANCH   1  19
HETATM   19  N   UNL     1     -43.020  57.018 -55.847  1.00  0.00    -0.183 NA
HETATM   20  C   UNL     1     -42.448  56.904 -57.003  1.00  0.00     0.153 C 
BRANCH  20  21
HETATM   21  C   UNL     1     -42.870  57.759 -58.134  1.00  0.00     0.019 A 
HETATM   22  C   UNL     1     -44.088  57.545 -58.777  1.00  0.00     0.110 A 
HETATM   23  C   UNL     1     -44.483  58.352 -59.856  1.00  0.00     0.102 A 
HETATM   24  C   UNL     1     -43.644  59.384 -60.282  1.00  0.00     0.040 A 
HETATM   25  C   UNL     1     -42.423  59.604 -59.639  1.00  0.00     0.004 A 
HETATM   26  C   UNL     1     -42.036  58.795 -58.570  1.00  0.00     0.016 A 
BRANCH  22  27
HETATM   27  O   UNL     1     -44.923  56.534 -58.369  1.00  0.00    -0.357 OA
HETATM   28  H   UNL     1     -45.533  56.951 -57.727  1.00  0.00     0.218 HD
ENDBRANCH  22  27
BRANCH  23  29
HETATM   29  O   UNL     1     -45.701  58.032 -60.403  1.00  0.00    -0.353 OA
HETATM   30  C   UNL     1     -46.749  58.977 -60.217  1.00  0.00     0.210 C 
ENDBRANCH  23  29
ENDBRANCH  20  21
ENDBRANCH   1  19
TORSDOF 5
ENDMDL
MODEL 5
REMARK VINA RESULT:      -7.9      2.597      3.971
REMARK  5 active torsions:
REMARK  status: ('A' for Active; 'I' for Inactive)
REMARK    1  A    between atoms: O_2  and  C_3 
REMARK    2  A    between atoms: C_4  and  O_5 
REMARK    3  A    between atoms: C_6  and  C_7 
REMARK    4  A    between atoms: N_8  and  N_9 
REMARK       I    between atoms: N_9  and  C_10 
REMARK    5  A    between atoms: C_10  and  C_11 
ROOT
HETATM    1  N   UNL     1     -43.459  59.464 -50.852  1.00  0.00    -0.242 N 
HETATM    2  C   UNL     1     -42.124  59.364 -51.212  1.00  0.00     0.292 C 
HETATM    3  O   UNL     1     -41.223  60.084 -50.787  1.00  0.00    -0.264 OA
HETATM    4  H   UNL     1     -44.115  58.814 -51.282  1.00  0.00     0.192 HD
ENDROOT
BRANCH   2   5
HETATM    5  C   UNL     1     -41.874  58.287 -52.185  1.00  0.00     0.154 A 
HETATM    6  N   UNL     1     -42.006  58.472 -53.521  1.00  0.00    -0.168 NA
HETATM    7  N   UNL     1     -41.677  57.274 -54.055  1.00  0.00    -0.276 N 
HETATM    8  H   UNL     1     -41.710  57.171 -55.062  1.00  0.00     0.189 HD
HETATM    9  C   UNL     1     -41.338  56.338 -53.127  1.00  0.00     0.069 A 
HETATM   10  C   UNL     1     -41.465  56.959 -51.905  1.00  0.00     0.007 A 
HETATM   11  C   UNL     1     -40.925  54.956 -53.305  1.00  0.00    -0.001 A 
HETATM   12  C   UNL     1     -41.148  56.254 -50.634  1.00  0.00     0.048 C 
HETATM   13  C   UNL     1     -41.311  54.725 -50.791  1.00  0.00     0.044 C 
HETATM   14  C   UNL     1     -40.854  54.162 -52.133  1.00  0.00    -0.045 A 
HETATM   15  C   UNL     1     -40.453  52.824 -52.228  1.00  0.00     0.008 A 
HETATM   16  C   UNL     1     -40.103  52.286 -53.466  1.00  0.00     0.001 A 
HETATM   17  C   UNL     1     -40.164  53.073 -54.616  1.00  0.00     0.001 A 
HETATM   18  C   UNL     1     -40.575  54.406 -54.540  1.00  0.00     0.014 A 
ENDBRANCH   2   5
BRANCH   1  19
HETATM   19  N   UNL     1     -43.863  60.413 -49.966  1.00  0.00    -0.183 NA
HETATM   20  C   UNL     1     -45.133  60.467 -49.722  1.00  0.00     0.153 C 
BRANCH  20  21
HETATM   21  C   UNL     1     -45.670  61.466 -48.772  1.00  0.00     0.019 A 
HETATM   22  C   UNL     1     -45.234  61.500 -47.448  1.00  0.00     0.110 A 
HETATM   23  C   UNL     1     -45.752  62.443 -46.545  1.00  0.00     0.102 A 
HETATM   24  C   UNL     1     -46.709  63.359 -46.986  1.00  0.00     0.040 A 
HETATM   25  C   UNL     1     -47.147  63.330 -48.313  1.00  0.00     0.004 A 
HETATM   26  C   UNL     1     -46.632  62.386 -49.203  1.00  0.00     0.016 A 
BRANCH  22  27
HETATM   27  O   UNL     1     -44.293  60.606 -47.001  1.00  0.00    -0.357 OA
HETATM   28  H   UNL     1     -43.551  60.680 -47.634  1.00  0.00     0.218 HD
ENDBRANCH  22  27
BRANCH  23  29
HETATM   29  O   UNL     1     -45.243  62.366 -45.273  1.00  0.00    -0.353 OA
HETATM   30  C   UNL     1     -45.221  63.575 -44.522  1.00  0.00     0.210 C 
ENDBRANCH  23  29
ENDBRANCH  20  21
ENDBRANCH   1  19
TORSDOF 5
ENDMDL
MODEL 6
REMARK VINA RESULT:      -7.9      1.833      2.466
REMARK  5 active torsions:
REMARK  status: ('A' for Active; 'I' for Inactive)
REMARK    1  A    between atoms: O_2  and  C_3 
REMARK    2  A    between atoms: C_4  and  O_5 
REMARK    3  A    between atoms: C_6  and  C_7 
REMARK    4  A    between atoms: N_8  and  N_9 
REMARK       I    between atoms: N_9  and  C_10 
REMARK    5  A    between atoms: C_10  and  C_11 
ROOT
HETATM    1  N   UNL     1     -42.517  58.665 -50.998  1.00  0.00    -0.242 N 
HETATM    2  C   UNL     1     -43.120  57.461 -51.329  1.00  0.00     0.292 C 
HETATM    3  O   UNL     1     -44.290  57.331 -51.682  1.00  0.00    -0.264 OA
HETATM    4  H   UNL     1     -41.541  58.642 -50.710  1.00  0.00     0.192 HD
ENDROOT
BRANCH   2   5
HETATM    5  C   UNL     1     -42.204  56.313 -51.210  1.00  0.00     0.154 A 
HETATM    6  N   UNL     1     -41.450  56.098 -50.106  1.00  0.00    -0.168 NA
HETATM    7  N   UNL     1     -40.777  54.959 -50.381  1.00  0.00    -0.276 N 
HETATM    8  H   UNL     1     -40.133  54.601 -49.686  1.00  0.00     0.189 HD
HETATM    9  C   UNL     1     -41.068  54.434 -51.602  1.00  0.00     0.069 A 
HETATM   10  C   UNL     1     -41.982  55.294 -52.170  1.00  0.00     0.007 A 
HETATM   11  C   UNL     1     -40.562  53.234 -52.247  1.00  0.00    -0.001 A 
HETATM   12  C   UNL     1     -42.567  55.036 -53.513  1.00  0.00     0.048 C 
HETATM   13  C   UNL     1     -41.620  54.169 -54.375  1.00  0.00     0.044 C 
HETATM   14  C   UNL     1     -40.885  53.069 -53.617  1.00  0.00    -0.045 A 
HETATM   15  C   UNL     1     -40.439  51.930 -54.300  1.00  0.00     0.008 A 
HETATM   16  C   UNL     1     -39.704  50.955 -53.626  1.00  0.00     0.001 A 
HETATM   17  C   UNL     1     -39.398  51.115 -52.274  1.00  0.00     0.001 A 
HETATM   18  C   UNL     1     -39.823  52.252 -51.583  1.00  0.00     0.014 A 
ENDBRANCH   2   5
BRANCH   1  19
HETATM   19  N   UNL     1     -43.226  59.824 -51.048  1.00  0.00    -0.183 NA
HETATM   20  C   UNL     1     -43.103  60.617 -50.032  1.00  0.00     0.153 C 
BRANCH  20  21
HETATM   21  C   UNL     1     -43.834  61.902 -49.993  1.00  0.00     0.019 A 
HETATM   22  C   UNL     1     -45.218  61.932 -49.825  1.00  0.00     0.110 A 
HETATM   23  C   UNL     1     -45.912  63.153 -49.796  1.00  0.00     0.102 A 
HETATM   24  C   UNL     1     -45.201  64.348 -49.930  1.00  0.00     0.040 A 
HETATM   25  C   UNL     1     -43.814  64.322 -50.096  1.00  0.00     0.004 A 
HETATM   26  C   UNL     1     -43.132  63.105 -50.129  1.00  0.00     0.016 A 
BRANCH  22  27
HETATM   27  O   UNL     1     -45.930  60.766 -49.691  1.00  0.00    -0.357 OA
HETATM   28  H   UNL     1     -45.262  60.053 -49.750  1.00  0.00     0.218 HD
ENDBRANCH  22  27
BRANCH  23  29
HETATM   29  O   UNL     1     -47.270  63.042 -49.631  1.00  0.00    -0.353 OA
HETATM   30  C   UNL     1     -48.082  63.573 -50.673  1.00  0.00     0.210 C 
ENDBRANCH  23  29
ENDBRANCH  20  21
ENDBRANCH   1  19
TORSDOF 5
ENDMDL
MODEL 7
REMARK VINA RESULT:      -7.8      5.168      6.165
REMARK  5 active torsions:
REMARK  status: ('A' for Active; 'I' for Inactive)
REMARK    1  A    between atoms: O_2  and  C_3 
REMARK    2  A    between atoms: C_4  and  O_5 
REMARK    3  A    between atoms: C_6  and  C_7 
REMARK    4  A    between atoms: N_8  and  N_9 
REMARK       I    between atoms: N_9  and  C_10 
REMARK    5  A    between atoms: C_10  and  C_11 
ROOT
HETATM    1  N   UNL     1     -42.118  57.688 -55.293  1.00  0.00    -0.242 N 
HETATM    2  C   UNL     1     -43.091  56.975 -54.609  1.00  0.00     0.292 C 
HETATM    3  O   UNL     1     -44.296  57.025 -54.842  1.00  0.00    -0.264 OA
HETATM    4  H   UNL     1     -41.150  57.571 -55.000  1.00  0.00     0.192 HD
ENDROOT
BRANCH   2   5
HETATM    5  C   UNL     1     -42.532  56.131 -53.539  1.00  0.00     0.154 A 
HETATM    6  N   UNL     1     -42.647  56.453 -52.228  1.00  0.00    -0.168 NA
HETATM    7  N   UNL     1     -42.032  55.437 -51.583  1.00  0.00    -0.276 N 
HETATM    8  H   UNL     1     -41.987  55.465 -50.571  1.00  0.00     0.189 HD
HETATM    9  C   UNL     1     -41.537  54.482 -52.416  1.00  0.00     0.069 A 
HETATM   10  C   UNL     1     -41.835  54.907 -53.692  1.00  0.00     0.007 A 
HETATM   11  C   UNL     1     -40.827  53.251 -52.108  1.00  0.00    -0.001 A 
HETATM   12  C   UNL     1     -41.474  54.101 -54.888  1.00  0.00     0.048 C 
HETATM   13  C   UNL     1     -40.261  53.187 -54.598  1.00  0.00     0.044 C 
HETATM   14  C   UNL     1     -40.238  52.570 -53.203  1.00  0.00    -0.045 A 
HETATM   15  C   UNL     1     -39.548  51.372 -52.981  1.00  0.00     0.008 A 
HETATM   16  C   UNL     1     -39.463  50.844 -51.693  1.00  0.00     0.001 A 
HETATM   17  C   UNL     1     -40.053  51.510 -50.620  1.00  0.00     0.001 A 
HETATM   18  C   UNL     1     -40.733  52.713 -50.822  1.00  0.00     0.014 A 
ENDBRANCH   2   5
BRANCH   1  19
HETATM   19  N   UNL     1     -42.465  58.522 -56.310  1.00  0.00    -0.183 NA
HETATM   20  C   UNL     1     -42.073  58.178 -57.494  1.00  0.00     0.153 C 
BRANCH  20  21
HETATM   21  C   UNL     1     -42.400  59.020 -58.665  1.00  0.00     0.019 A 
HETATM   22  C   UNL     1     -41.863  60.301 -58.797  1.00  0.00     0.110 A 
HETATM   23  C   UNL     1     -42.182  61.102 -59.905  1.00  0.00     0.102 A 
HETATM   24  C   UNL     1     -43.041  60.604 -60.887  1.00  0.00     0.040 A 
HETATM   25  C   UNL     1     -43.580  59.321 -60.760  1.00  0.00     0.004 A 
HETATM   26  C   UNL     1     -43.262  58.531 -59.653  1.00  0.00     0.016 A 
BRANCH  22  27
HETATM   27  O   UNL     1     -41.017  60.803 -57.841  1.00  0.00    -0.357 OA
HETATM   28  H   UNL     1     -40.856  61.731 -58.106  1.00  0.00     0.218 HD
ENDBRANCH  22  27
BRANCH  23  29
HETATM   29  O   UNL     1     -41.591  62.342 -59.911  1.00  0.00    -0.353 OA
HETATM   30  C   UNL     1     -40.627  62.581 -60.932  1.00  0.00     0.210 C 
ENDBRANCH  23  29
ENDBRANCH  20  21
ENDBRANCH   1  19
TORSDOF 5
ENDMDL
MODEL 8
REMARK VINA RESULT:      -7.8      5.830      9.973
REMARK  5 active torsions:
REMARK  status: ('A' for Active; 'I' for Inactive)
REMARK    1  A    between atoms: O_2  and  C_3 
REMARK    2  A    between atoms: C_4  and  O_5 
REMARK    3  A    between atoms: C_6  and  C_7 
REMARK    4  A    between atoms: N_8  and  N_9 
REMARK       I    between atoms: N_9  and  C_10 
REMARK    5  A    between atoms: C_10  and  C_11 
ROOT
HETATM    1  N   UNL     1     -41.941  55.456 -56.601  1.00  0.00    -0.242 N 
HETATM    2  C   UNL     1     -42.573  56.690 -56.557  1.00  0.00     0.292 C 
HETATM    3  O   UNL     1     -43.068  57.194 -55.552  1.00  0.00    -0.264 OA
HETATM    4  H   UNL     1     -41.578  55.141 -57.498  1.00  0.00     0.192 HD
ENDROOT
BRANCH   2   5
HETATM    5  C   UNL     1     -42.605  57.360 -57.869  1.00  0.00     0.154 A 
HETATM    6  N   UNL     1     -42.972  56.717 -59.003  1.00  0.00    -0.168 NA
HETATM    7  N   UNL     1     -42.888  57.666 -59.963  1.00  0.00    -0.276 N 
HETATM    8  H   UNL     1     -43.114  57.407 -60.916  1.00  0.00     0.189 HD
HETATM    9  C   UNL     1     -42.491  58.881 -59.496  1.00  0.00     0.069 A 
HETATM   10  C   UNL     1     -42.289  58.714 -58.144  1.00  0.00     0.007 A 
HETATM   11  C   UNL     1     -42.291  60.133 -60.206  1.00  0.00    -0.001 A 
HETATM   12  C   UNL     1     -41.872  59.844 -57.272  1.00  0.00     0.048 C 
HETATM   13  C   UNL     1     -41.113  60.921 -58.081  1.00  0.00     0.044 C 
HETATM   14  C   UNL     1     -41.656  61.174 -59.484  1.00  0.00    -0.045 A 
HETATM   15  C   UNL     1     -41.440  62.412 -60.102  1.00  0.00     0.008 A 
HETATM   16  C   UNL     1     -41.871  62.623 -61.412  1.00  0.00     0.001 A 
HETATM   17  C   UNL     1     -42.506  61.600 -62.116  1.00  0.00     0.001 A 
HETATM   18  C   UNL     1     -42.716  60.355 -61.518  1.00  0.00     0.014 A 
ENDBRANCH   2   5
BRANCH   1  19
HETATM   19  N   UNL     1     -41.830  54.701 -55.475  1.00  0.00    -0.183 NA
HETATM   20  C   UNL     1     -40.629  54.380 -55.114  1.00  0.00     0.153 C 
BRANCH  20  21
HETATM   21  C   UNL     1     -40.405  53.560 -53.904  1.00  0.00     0.019 A 
HETATM   22  C   UNL     1     -40.671  54.072 -52.634  1.00  0.00     0.110 A 
HETATM   23  C   UNL     1     -40.449  53.295 -51.486  1.00  0.00     0.102 A 
HETATM   24  C   UNL     1     -39.964  51.993 -51.623  1.00  0.00     0.040 A 
HETATM   25  C   UNL     1     -39.698  51.475 -52.894  1.00  0.00     0.004 A 
HETATM   26  C   UNL     1     -39.917  52.255 -54.030  1.00  0.00     0.016 A 
BRANCH  22  27
HETATM   27  O   UNL     1     -41.149  55.350 -52.484  1.00  0.00    -0.357 OA
HETATM   28  H   UNL     1     -42.052  55.243 -52.124  1.00  0.00     0.218 HD
ENDBRANCH  22  27
BRANCH  23  29
HETATM   29  O   UNL     1     -40.746  53.919 -50.300  1.00  0.00    -0.353 OA
HETATM   30  C   UNL     1     -39.640  54.335 -49.506  1.00  0.00     0.210 C 
ENDBRANCH  23  29
ENDBRANCH  20  21
ENDBRANCH   1  19
TORSDOF 5
ENDMDL
MODEL 9
REMARK VINA RESULT:      -7.8      6.410     10.130
REMARK  5 active torsions:
REMARK  status: ('A' for Active; 'I' for Inactive)
REMARK    1  A    between atoms: O_2  and  C_3 
REMARK    2  A    between atoms: C_4  and  O_5 
REMARK    3  A    between atoms: C_6  and  C_7 
REMARK    4  A    between atoms: N_8  and  N_9 
REMARK       I    between atoms: N_9  and  C_10 
REMARK    5  A    between atoms: C_10  and  C_11 
ROOT
HETATM    1  N   UNL     1     -43.509  55.013 -56.921  1.00  0.00    -0.242 N 
HETATM    2  C   UNL     1     -43.357  56.080 -57.794  1.00  0.00     0.292 C 
HETATM    3  O   UNL     1     -42.527  56.978 -57.672  1.00  0.00    -0.264 OA
HETATM    4  H   UNL     1     -44.242  54.336 -57.124  1.00  0.00     0.192 HD
ENDROOT
BRANCH   2   5
HETATM    5  C   UNL     1     -44.315  56.042 -58.913  1.00  0.00     0.154 A 
HETATM    6  N   UNL     1     -44.369  55.009 -59.787  1.00  0.00    -0.168 NA
HETATM    7  N   UNL     1     -45.370  55.343 -60.632  1.00  0.00    -0.276 N 
HETATM    8  H   UNL     1     -45.592  54.708 -61.390  1.00  0.00     0.189 HD
HETATM    9  C   UNL     1     -45.959  56.533 -60.337  1.00  0.00     0.069 A 
HETATM   10  C   UNL     1     -45.292  57.017 -59.234  1.00  0.00     0.007 A 
HETATM   11  C   UNL     1     -47.057  57.219 -60.997  1.00  0.00    -0.001 A 
HETATM   12  C   UNL     1     -45.676  58.303 -58.592  1.00  0.00     0.048 C 
HETATM   13  C   UNL     1     -46.368  59.246 -59.603  1.00  0.00     0.044 C 
HETATM   14  C   UNL     1     -47.302  58.556 -60.592  1.00  0.00    -0.045 A 
HETATM   15  C   UNL     1     -48.351  59.274 -61.179  1.00  0.00     0.008 A 
HETATM   16  C   UNL     1     -49.162  58.668 -62.137  1.00  0.00     0.001 A 
HETATM   17  C   UNL     1     -48.926  57.350 -62.526  1.00  0.00     0.001 A 
HETATM   18  C   UNL     1     -47.875  56.624 -61.960  1.00  0.00     0.014 A 
ENDBRANCH   2   5
BRANCH   1  19
HETATM   19  N   UNL     1     -42.708  54.900 -55.829  1.00  0.00    -0.183 NA
HETATM   20  C   UNL     1     -42.842  53.820 -55.127  1.00  0.00     0.153 C 
BRANCH  20  21
HETATM   21  C   UNL     1     -42.016  53.604 -53.920  1.00  0.00     0.019 A 
HETATM   22  C   UNL     1     -42.411  54.111 -52.682  1.00  0.00     0.110 A 
HETATM   23  C   UNL     1     -41.621  53.912 -51.539  1.00  0.00     0.102 A 
HETATM   24  C   UNL     1     -40.429  53.192 -51.647  1.00  0.00     0.040 A 
HETATM   25  C   UNL     1     -40.029  52.681 -52.885  1.00  0.00     0.004 A 
HETATM   26  C   UNL     1     -40.818  52.887 -54.018  1.00  0.00     0.016 A 
BRANCH  22  27
HETATM   27  O   UNL     1     -43.581  54.819 -52.561  1.00  0.00    -0.357 OA
HETATM   28  H   UNL     1     -44.249  54.291 -53.042  1.00  0.00     0.218 HD
ENDBRANCH  22  27
BRANCH  23  29
HETATM   29  O   UNL     1     -42.121  54.466 -50.386  1.00  0.00    -0.353 OA
HETATM   30  C   UNL     1     -41.400  55.568 -49.846  1.00  0.00     0.210 C 
ENDBRANCH  23  29
ENDBRANCH  20  21
ENDBRANCH   1  19
TORSDOF 5
ENDMDL
MODEL 10
REMARK VINA RESULT:      -7.7     17.410     20.452
REMARK  5 active torsions:
REMARK  status: ('A' for Active; 'I' for Inactive)
REMARK    1  A    between atoms: O_2  and  C_3 
REMARK    2  A    between atoms: C_4  and  O_5 
REMARK    3  A    between atoms: C_6  and  C_7 
REMARK    4  A    between atoms: N_8  and  N_9 
REMARK       I    between atoms: N_9  and  C_10 
REMARK    5  A    between atoms: C_10  and  C_11 
ROOT
HETATM    1  N   UNL     1     -31.562  40.124 -50.605  1.00  0.00    -0.242 N 
HETATM    2  C   UNL     1     -31.903  39.208 -51.589  1.00  0.00     0.292 C 
HETATM    3  O   UNL     1     -31.777  37.990 -51.493  1.00  0.00    -0.264 OA
HETATM    4  H   UNL     1     -31.704  41.111 -50.807  1.00  0.00     0.192 HD
ENDROOT
BRANCH   2   5
HETATM    5  C   UNL     1     -32.439  39.849 -52.803  1.00  0.00     0.154 A 
HETATM    6  N   UNL     1     -31.647  40.214 -53.839  1.00  0.00    -0.168 NA
HETATM    7  N   UNL     1     -32.506  40.738 -54.743  1.00  0.00    -0.276 N 
HETATM    8  H   UNL     1     -32.131  41.091 -55.615  1.00  0.00     0.189 HD
HETATM    9  C   UNL     1     -33.804  40.719 -54.336  1.00  0.00     0.069 A 
HETATM   10  C   UNL     1     -33.794  40.159 -53.078  1.00  0.00     0.007 A 
HETATM   11  C   UNL     1     -35.003  41.179 -55.018  1.00  0.00    -0.001 A 
HETATM   12  C   UNL     1     -35.049  39.942 -52.310  1.00  0.00     0.048 C 
HETATM   13  C   UNL     1     -36.149  40.935 -52.749  1.00  0.00     0.044 C 
HETATM   14  C   UNL     1     -36.189  41.232 -54.244  1.00  0.00    -0.045 A 
HETATM   15  C   UNL     1     -37.384  41.656 -54.840  1.00  0.00     0.008 A 
HETATM   16  C   UNL     1     -37.407  41.998 -56.192  1.00  0.00     0.001 A 
HETATM   17  C   UNL     1     -36.240  41.934 -56.953  1.00  0.00     0.001 A 
HETATM   18  C   UNL     1     -35.037  41.527 -56.370  1.00  0.00     0.014 A 
ENDBRANCH   2   5
BRANCH   1  19
HETATM   19  N   UNL     1     -31.046  39.699 -49.421  1.00  0.00    -0.183 NA
HETATM   20  C   UNL     1     -31.850  39.708 -48.407  1.00  0.00     0.153 C 
BRANCH  20  21
HETATM   21  C   UNL     1     -31.381  39.265 -47.076  1.00  0.00     0.019 A 
HETATM   22  C   UNL     1     -30.524  40.062 -46.317  1.00  0.00     0.110 A 
HETATM   23  C   UNL     1     -30.074  39.636 -45.058  1.00  0.00     0.102 A 
HETATM   24  C   UNL     1     -30.497  38.401 -44.560  1.00  0.00     0.040 A 
HETATM   25  C   UNL     1     -31.357  37.600 -45.316  1.00  0.00     0.004 A 
HETATM   26  C   UNL     1     -31.797  38.028 -46.570  1.00  0.00     0.016 A 
BRANCH  22  27
HETATM   27  O   UNL     1     -30.101  41.278 -46.793  1.00  0.00    -0.357 OA
HETATM   28  H   UNL     1     -29.653  41.706 -46.035  1.00  0.00     0.218 HD
ENDBRANCH  22  27
BRANCH  23  29
HETATM   29  O   UNL     1     -29.232  40.512 -44.418  1.00  0.00    -0.353 OA
HETATM   30  C   UNL     1     -28.656  40.062 -43.196  1.00  0.00     0.210 C 
ENDBRANCH  23  29
ENDBRANCH  20  21
ENDBRANCH   1  19
TORSDOF 5
ENDMDL
