MODEL 1
REMARK VINA RESULT:      -7.9      0.000      0.000
REMARK  8 active torsions:
REMARK  status: ('A' for Active; 'I' for Inactive)
REMARK    1  A    between atoms: C_2  and  O_3 
REMARK    2  A    between atoms: C_2  and  C_4 
REMARK    3  A    between atoms: C_4  and  N_5 
REMARK       I    between atoms: N_5  and  C_6 
REMARK    4  A    between atoms: C_6  and  C_7 
REMARK    5  A    between atoms: C_10  and  O_11 
REMARK    6  A    between atoms: O_11  and  C_12 
REMARK    7  A    between atoms: C_15  and  O_16 
REMARK    8  A    between atoms: O_16  and  C_17 
ROOT
HETATM    1  C   UNL     1     -44.886  59.980 -50.580  1.00  0.00     0.049 A 
HETATM    2  C   UNL     1     -45.502  58.749 -50.391  1.00  0.00     0.136 A 
HETATM    3  N   UNL     1     -45.300  57.671 -51.187  1.00  0.00    -0.236 NA
HETATM    4  C   UNL     1     -44.453  57.832 -52.228  1.00  0.00     0.169 A 
HETATM    5  C   UNL     1     -43.832  59.036 -52.531  1.00  0.00     0.059 A 
HETATM    6  C   UNL     1     -44.047  60.128 -51.688  1.00  0.00     0.023 A 
ENDROOT
BRANCH   4   7
HETATM    7  O   UNL     1     -44.209  56.770 -53.088  1.00  0.00    -0.292 OA
BRANCH   7   8
HETATM    8  C   UNL     1     -43.121  55.974 -52.809  1.00  0.00     0.078 A 
HETATM    9  C   UNL     1     -43.260  55.047 -51.773  1.00  0.00     0.040 A 
HETATM   10  C   UNL     1     -42.209  54.178 -51.465  1.00  0.00     0.040 A 
HETATM   11  C   UNL     1     -41.035  54.218 -52.221  1.00  0.00     0.076 A 
HETATM   12  C   UNL     1     -40.897  55.139 -53.260  1.00  0.00     0.040 A 
HETATM   13  C   UNL     1     -41.946  56.007 -53.566  1.00  0.00     0.040 A 
BRANCH  11  14
HETATM   14  O   UNL     1     -39.937  53.438 -51.940  1.00  0.00    -0.311 OA
BRANCH  14  15
HETATM   15  C   UNL     1     -39.894  52.158 -52.444  1.00  0.00     0.076 A 
HETATM   16  C   UNL     1     -39.979  51.858 -53.806  1.00  0.00     0.037 A 
HETATM   17  C   UNL     1     -39.873  50.532 -54.232  1.00  0.00     0.003 A 
HETATM   18  C   UNL     1     -39.663  49.513 -53.304  1.00  0.00     0.000 A 
HETATM   19  C   UNL     1     -39.556  49.816 -51.947  1.00  0.00     0.003 A 
HETATM   20  C   UNL     1     -39.666  51.139 -51.519  1.00  0.00     0.037 A 
ENDBRANCH  14  15
ENDBRANCH  11  14
ENDBRANCH   7   8
ENDBRANCH   4   7
BRANCH   1  21
HETATM   21  C   UNL     1     -45.157  61.062 -49.606  1.00  0.00     0.253 C 
HETATM   22  N   UNL     1     -44.959  60.767 -48.275  1.00  0.00    -0.354 N 
HETATM   23  H   UNL     1     -44.758  59.822 -47.977  1.00  0.00     0.162 HD
HETATM   24  O   UNL     1     -45.581  62.145 -49.993  1.00  0.00    -0.268 OA
BRANCH  22  25
HETATM   25  C   UNL     1     -45.261  61.739 -47.231  1.00  0.00     0.154 C 
BRANCH  25  26
HETATM   26  C   UNL     1     -46.438  61.295 -46.348  1.00  0.00     0.132 C 
HETATM   27  C   UNL     1     -46.393  59.799 -46.079  1.00  0.00     0.041 C 
BRANCH  26  28
HETATM   28  O   UNL     1     -47.669  61.589 -47.015  1.00  0.00    -0.394 OA
HETATM   29  H   UNL     1     -47.704  62.558 -47.093  1.00  0.00     0.210 HD
ENDBRANCH  26  28
ENDBRANCH  25  26
ENDBRANCH  22  25
ENDBRANCH   1  21
TORSDOF 8
ENDMDL
MODEL 2
REMARK VINA RESULT:      -7.7      1.630      2.103
REMARK  8 active torsions:
REMARK  status: ('A' for Active; 'I' for Inactive)
REMARK    1  A    between atoms: C_2  and  O_3 
REMARK    2  A    between atoms: C_2  and  C_4 
REMARK    3  A    between atoms: C_4  and  N_5 
REMARK       I    between atoms: N_5  and  C_6 
REMARK    4  A    between atoms: C_6  and  C_7 
REMARK    5  A    between atoms: C_10  and  O_11 
REMARK    6  A    between atoms: O_11  and  C_12 
REMARK    7  A    between atoms: C_15  and  O_16 
REMARK    8  A    between atoms: O_16  and  C_17 
ROOT
HETATM    1  C   UNL     1     -44.299  59.454 -51.578  1.00  0.00     0.049 A 
HETATM    2  C   UNL     1     -44.108  59.800 -52.911  1.00  0.00     0.136 A 
HETATM    3  N   UNL     1     -44.083  58.906 -53.929  1.00  0.00    -0.236 NA
HETATM    4  C   UNL     1     -44.244  57.605 -53.602  1.00  0.00     0.169 A 
HETATM    5  C   UNL     1     -44.387  57.155 -52.297  1.00  0.00     0.059 A 
HETATM    6  C   UNL     1     -44.422  58.097 -51.267  1.00  0.00     0.023 A 
ENDROOT
BRANCH   4   7
HETATM    7  O   UNL     1     -44.221  56.637 -54.597  1.00  0.00    -0.292 OA
BRANCH   7   8
HETATM    8  C   UNL     1     -43.138  55.788 -54.621  1.00  0.00     0.078 A 
HETATM    9  C   UNL     1     -43.404  54.420 -54.702  1.00  0.00     0.040 A 
HETATM   10  C   UNL     1     -42.349  53.504 -54.773  1.00  0.00     0.040 A 
HETATM   11  C   UNL     1     -41.031  53.968 -54.798  1.00  0.00     0.076 A 
HETATM   12  C   UNL     1     -40.764  55.335 -54.724  1.00  0.00     0.040 A 
HETATM   13  C   UNL     1     -41.817  56.248 -54.652  1.00  0.00     0.040 A 
BRANCH  11  14
HETATM   14  O   UNL     1     -39.942  53.127 -54.806  1.00  0.00    -0.311 OA
BRANCH  14  15
HETATM   15  C   UNL     1     -39.835  52.184 -53.809  1.00  0.00     0.076 A 
HETATM   16  C   UNL     1     -39.800  52.495 -52.447  1.00  0.00     0.037 A 
HETATM   17  C   UNL     1     -39.742  51.468 -51.502  1.00  0.00     0.003 A 
HETATM   18  C   UNL     1     -39.740  50.136 -51.915  1.00  0.00     0.000 A 
HETATM   19  C   UNL     1     -39.798  49.826 -53.274  1.00  0.00     0.003 A 
HETATM   20  C   UNL     1     -39.851  50.850 -54.219  1.00  0.00     0.037 A 
ENDBRANCH  14  15
ENDBRANCH  11  14
ENDBRANCH   7   8
ENDBRANCH   4   7
BRANCH   1  21
HETATM   21  C   UNL     1     -44.354  60.536 -50.569  1.00  0.00     0.253 C 
HETATM   22  N   UNL     1     -44.842  60.204 -49.324  1.00  0.00    -0.354 N 
HETATM   23  H   UNL     1     -45.255  59.297 -49.153  1.00  0.00     0.162 HD
HETATM   24  O   UNL     1     -44.017  61.675 -50.871  1.00  0.00    -0.268 OA
BRANCH  22  25
HETATM   25  C   UNL     1     -45.001  61.209 -48.281  1.00  0.00     0.154 C 
BRANCH  25  26
HETATM   26  C   UNL     1     -45.920  60.729 -47.147  1.00  0.00     0.132 C 
HETATM   27  C   UNL     1     -45.235  60.845 -45.795  1.00  0.00     0.041 C 
BRANCH  26  28
HETATM   28  O   UNL     1     -46.256  59.354 -47.358  1.00  0.00    -0.394 OA
HETATM   29  H   UNL     1     -45.725  58.850 -46.718  1.00  0.00     0.210 HD
ENDBRANCH  26  28
ENDBRANCH  25  26
ENDBRANCH  22  25
ENDBRANCH   1  21
TORSDOF 8
ENDMDL
MODEL 3
REMARK VINA RESULT:      -7.7      3.942      6.955
REMARK  8 active torsions:
REMARK  status: ('A' for Active; 'I' for Inactive)
REMARK    1  A    between atoms: C_2  and  O_3 
REMARK    2  A    between atoms: C_2  and  C_4 
REMARK    3  A    between atoms: C_4  and  N_5 
REMARK       I    between atoms: N_5  and  C_6 
REMARK    4  A    between atoms: C_6  and  C_7 
REMARK    5  A    between atoms: C_10  and  O_11 
REMARK    6  A    between atoms: O_11  and  C_12 
REMARK    7  A    between atoms: C_15  and  O_16 
REMARK    8  A    between atoms: O_16  and  C_17 
ROOT
HETATM    1  C   UNL     1     -43.639  57.579 -56.108  1.00  0.00     0.049 A 
HETATM    2  C   UNL     1     -44.789  57.590 -55.328  1.00  0.00     0.136 A 
HETATM    3  N   UNL     1     -44.787  57.521 -53.974  1.00  0.00    -0.236 NA
HETATM    4  C   UNL     1     -43.582  57.424 -53.371  1.00  0.00     0.169 A 
HETATM    5  C   UNL     1     -42.382  57.351 -54.064  1.00  0.00     0.059 A 
HETATM    6  C   UNL     1     -42.410  57.437 -55.457  1.00  0.00     0.023 A 
ENDROOT
BRANCH   4   7
HETATM    7  O   UNL     1     -43.509  57.340 -51.987  1.00  0.00    -0.292 OA
BRANCH   7   8
HETATM    8  C   UNL     1     -42.774  56.304 -51.459  1.00  0.00     0.078 A 
HETATM    9  C   UNL     1     -43.261  55.011 -51.661  1.00  0.00     0.040 A 
HETATM   10  C   UNL     1     -42.541  53.910 -51.187  1.00  0.00     0.040 A 
HETATM   11  C   UNL     1     -41.318  54.108 -50.542  1.00  0.00     0.076 A 
HETATM   12  C   UNL     1     -40.828  55.399 -50.344  1.00  0.00     0.040 A 
HETATM   13  C   UNL     1     -41.547  56.498 -50.817  1.00  0.00     0.040 A 
BRANCH  11  14
HETATM   14  O   UNL     1     -40.584  53.081 -49.995  1.00  0.00    -0.311 OA
BRANCH  14  15
HETATM   15  C   UNL     1     -40.256  52.011 -50.796  1.00  0.00     0.076 A 
HETATM   16  C   UNL     1     -39.876  52.132 -52.136  1.00  0.00     0.037 A 
HETATM   17  C   UNL     1     -39.508  50.995 -52.858  1.00  0.00     0.003 A 
HETATM   18  C   UNL     1     -39.499  49.745 -52.240  1.00  0.00     0.000 A 
HETATM   19  C   UNL     1     -39.856  49.628 -50.896  1.00  0.00     0.003 A 
HETATM   20  C   UNL     1     -40.228  50.762 -50.174  1.00  0.00     0.037 A 
ENDBRANCH  14  15
ENDBRANCH  11  14
ENDBRANCH   7   8
ENDBRANCH   4   7
BRANCH   1  21
HETATM   21  C   UNL     1     -43.780  57.711 -57.576  1.00  0.00     0.253 C 
HETATM   22  N   UNL     1     -44.550  56.765 -58.216  1.00  0.00    -0.354 N 
HETATM   23  H   UNL     1     -44.896  55.955 -57.720  1.00  0.00     0.162 HD
HETATM   24  O   UNL     1     -43.189  58.605 -58.172  1.00  0.00    -0.268 OA
BRANCH  22  25
HETATM   25  C   UNL     1     -44.698  56.765 -59.666  1.00  0.00     0.154 C 
BRANCH  25  26
HETATM   26  C   UNL     1     -45.174  55.406 -60.201  1.00  0.00     0.132 C 
HETATM   27  C   UNL     1     -44.449  54.258 -59.517  1.00  0.00     0.041 C 
BRANCH  26  28
HETATM   28  O   UNL     1     -44.905  55.327 -61.605  1.00  0.00    -0.394 OA
HETATM   29  H   UNL     1     -44.134  55.901 -61.759  1.00  0.00     0.210 HD
ENDBRANCH  26  28
ENDBRANCH  25  26
ENDBRANCH  22  25
ENDBRANCH   1  21
TORSDOF 8
ENDMDL
MODEL 4
REMARK VINA RESULT:      -7.6      3.918      6.712
REMARK  8 active torsions:
REMARK  status: ('A' for Active; 'I' for Inactive)
REMARK    1  A    between atoms: C_2  and  O_3 
REMARK    2  A    between atoms: C_2  and  C_4 
REMARK    3  A    between atoms: C_4  and  N_5 
REMARK       I    between atoms: N_5  and  C_6 
REMARK    4  A    between atoms: C_6  and  C_7 
REMARK    5  A    between atoms: C_10  and  O_11 
REMARK    6  A    between atoms: O_11  and  C_12 
REMARK    7  A    between atoms: C_15  and  O_16 
REMARK    8  A    between atoms: O_16  and  C_17 
ROOT
HETATM    1  C   UNL     1     -43.808  57.867 -55.562  1.00  0.00     0.049 A 
HETATM    2  C   UNL     1     -42.510  57.763 -55.075  1.00  0.00     0.136 A 
HETATM    3  N   UNL     1     -42.201  57.649 -53.760  1.00  0.00    -0.236 NA
HETATM    4  C   UNL     1     -43.234  57.651 -52.890  1.00  0.00     0.169 A 
HETATM    5  C   UNL     1     -44.559  57.804 -53.272  1.00  0.00     0.059 A 
HETATM    6  C   UNL     1     -44.852  57.908 -54.633  1.00  0.00     0.023 A 
ENDROOT
BRANCH   4   7
HETATM    7  O   UNL     1     -42.987  57.546 -51.528  1.00  0.00    -0.292 OA
BRANCH   7   8
HETATM    8  C   UNL     1     -42.368  56.398 -51.089  1.00  0.00     0.078 A 
HETATM    9  C   UNL     1     -43.054  55.196 -51.271  1.00  0.00     0.040 A 
HETATM   10  C   UNL     1     -42.464  53.987 -50.886  1.00  0.00     0.040 A 
HETATM   11  C   UNL     1     -41.173  53.986 -50.352  1.00  0.00     0.076 A 
HETATM   12  C   UNL     1     -40.484  55.186 -50.175  1.00  0.00     0.040 A 
HETATM   13  C   UNL     1     -41.073  56.392 -50.559  1.00  0.00     0.040 A 
BRANCH  11  14
HETATM   14  O   UNL     1     -40.553  52.847 -49.895  1.00  0.00    -0.311 OA
BRANCH  14  15
HETATM   15  C   UNL     1     -40.228  51.867 -50.805  1.00  0.00     0.076 A 
HETATM   16  C   UNL     1     -39.846  52.129 -52.124  1.00  0.00     0.037 A 
HETATM   17  C   UNL     1     -39.481  51.074 -52.963  1.00  0.00     0.003 A 
HETATM   18  C   UNL     1     -39.477  49.765 -52.482  1.00  0.00     0.000 A 
HETATM   19  C   UNL     1     -39.836  49.507 -51.159  1.00  0.00     0.003 A 
HETATM   20  C   UNL     1     -40.205  50.559 -50.320  1.00  0.00     0.037 A 
ENDBRANCH  14  15
ENDBRANCH  11  14
ENDBRANCH   7   8
ENDBRANCH   4   7
BRANCH   1  21
HETATM   21  C   UNL     1     -44.009  57.937 -57.027  1.00  0.00     0.253 C 
HETATM   22  N   UNL     1     -42.885  57.827 -57.817  1.00  0.00    -0.354 N 
HETATM   23  H   UNL     1     -41.961  57.825 -57.407  1.00  0.00     0.162 HD
HETATM   24  O   UNL     1     -45.130  58.129 -57.485  1.00  0.00    -0.268 OA
BRANCH  22  25
HETATM   25  C   UNL     1     -42.965  57.950 -59.267  1.00  0.00     0.154 C 
BRANCH  25  26
HETATM   26  C   UNL     1     -42.728  56.609 -59.978  1.00  0.00     0.132 C 
HETATM   27  C   UNL     1     -43.103  55.437 -59.084  1.00  0.00     0.041 C 
BRANCH  26  28
HETATM   28  O   UNL     1     -41.342  56.487 -60.311  1.00  0.00    -0.394 OA
HETATM   29  H   UNL     1     -41.307  56.436 -61.282  1.00  0.00     0.210 HD
ENDBRANCH  26  28
ENDBRANCH  25  26
ENDBRANCH  22  25
ENDBRANCH   1  21
TORSDOF 8
ENDMDL
MODEL 5
REMARK VINA RESULT:      -7.4      5.775      7.699
REMARK  8 active torsions:
REMARK  status: ('A' for Active; 'I' for Inactive)
REMARK    1  A    between atoms: C_2  and  O_3 
REMARK    2  A    between atoms: C_2  and  C_4 
REMARK    3  A    between atoms: C_4  and  N_5 
REMARK       I    between atoms: N_5  and  C_6 
REMARK    4  A    between atoms: C_6  and  C_7 
REMARK    5  A    between atoms: C_10  and  O_11 
REMARK    6  A    between atoms: O_11  and  C_12 
REMARK    7  A    between atoms: C_15  and  O_16 
REMARK    8  A    between atoms: O_16  and  C_17 
ROOT
HETATM    1  C   UNL     1     -42.178  59.215 -57.650  1.00  0.00     0.049 A 
HETATM    2  C   UNL     1     -42.255  58.062 -58.423  1.00  0.00     0.136 A 
HETATM    3  N   UNL     1     -42.657  56.858 -57.950  1.00  0.00    -0.236 NA
HETATM    4  C   UNL     1     -42.985  56.797 -56.641  1.00  0.00     0.169 A 
HETATM    5  C   UNL     1     -42.889  57.877 -55.775  1.00  0.00     0.059 A 
HETATM    6  C   UNL     1     -42.485  59.110 -56.290  1.00  0.00     0.023 A 
ENDROOT
BRANCH   4   7
HETATM    7  O   UNL     1     -43.396  55.591 -56.090  1.00  0.00    -0.292 OA
BRANCH   7   8
HETATM    8  C   UNL     1     -42.574  55.018 -55.146  1.00  0.00     0.078 A 
HETATM    9  C   UNL     1     -41.203  55.018 -55.413  1.00  0.00     0.040 A 
HETATM   10  C   UNL     1     -40.308  54.491 -54.477  1.00  0.00     0.040 A 
HETATM   11  C   UNL     1     -40.788  53.997 -53.262  1.00  0.00     0.076 A 
HETATM   12  C   UNL     1     -42.157  54.003 -52.992  1.00  0.00     0.040 A 
HETATM   13  C   UNL     1     -43.050  54.529 -53.926  1.00  0.00     0.040 A 
BRANCH  11  14
HETATM   14  O   UNL     1     -39.976  53.409 -52.320  1.00  0.00    -0.311 OA
BRANCH  14  15
HETATM   15  C   UNL     1     -39.895  52.036 -52.290  1.00  0.00     0.076 A 
HETATM   16  C   UNL     1     -39.748  51.242 -53.431  1.00  0.00     0.037 A 
HETATM   17  C   UNL     1     -39.620  49.857 -53.302  1.00  0.00     0.003 A 
HETATM   18  C   UNL     1     -39.618  49.269 -52.037  1.00  0.00     0.000 A 
HETATM   19  C   UNL     1     -39.742  50.064 -50.897  1.00  0.00     0.003 A 
HETATM   20  C   UNL     1     -39.874  51.447 -51.025  1.00  0.00     0.037 A 
ENDBRANCH  14  15
ENDBRANCH  11  14
ENDBRANCH   7   8
ENDBRANCH   4   7
BRANCH   1  21
HETATM   21  C   UNL     1     -41.770  60.479 -58.305  1.00  0.00     0.253 C 
HETATM   22  N   UNL     1     -42.477  60.857 -59.426  1.00  0.00    -0.354 N 
HETATM   23  H   UNL     1     -43.155  60.236 -59.845  1.00  0.00     0.162 HD
HETATM   24  O   UNL     1     -40.815  61.114 -57.873  1.00  0.00    -0.268 OA
BRANCH  22  25
HETATM   25  C   UNL     1     -42.113  62.047 -60.183  1.00  0.00     0.154 C 
BRANCH  25  26
HETATM   26  C   UNL     1     -41.028  61.759 -61.232  1.00  0.00     0.132 C 
HETATM   27  C   UNL     1     -40.068  62.929 -61.370  1.00  0.00     0.041 C 
BRANCH  26  28
HETATM   28  O   UNL     1     -41.645  61.539 -62.505  1.00  0.00    -0.394 OA
HETATM   29  H   UNL     1     -40.975  61.091 -63.050  1.00  0.00     0.210 HD
ENDBRANCH  26  28
ENDBRANCH  25  26
ENDBRANCH  22  25
ENDBRANCH   1  21
TORSDOF 8
ENDMDL
MODEL 6
REMARK VINA RESULT:      -7.1      3.415      5.740
REMARK  8 active torsions:
REMARK  status: ('A' for Active; 'I' for Inactive)
REMARK    1  A    between atoms: C_2  and  O_3 
REMARK    2  A    between atoms: C_2  and  C_4 
REMARK    3  A    between atoms: C_4  and  N_5 
REMARK       I    between atoms: N_5  and  C_6 
REMARK    4  A    between atoms: C_6  and  C_7 
REMARK    5  A    between atoms: C_10  and  O_11 
REMARK    6  A    between atoms: O_11  and  C_12 
REMARK    7  A    between atoms: C_15  and  O_16 
REMARK    8  A    between atoms: O_16  and  C_17 
ROOT
HETATM    1  C   UNL     1     -44.996  58.968 -55.011  1.00  0.00     0.049 A 
HETATM    2  C   UNL     1     -44.993  57.580 -54.935  1.00  0.00     0.136 A 
HETATM    3  N   UNL     1     -44.756  56.884 -53.796  1.00  0.00    -0.236 NA
HETATM    4  C   UNL     1     -44.500  57.607 -52.684  1.00  0.00     0.169 A 
HETATM    5  C   UNL     1     -44.428  58.993 -52.669  1.00  0.00     0.059 A 
HETATM    6  C   UNL     1     -44.687  59.686 -53.853  1.00  0.00     0.023 A 
ENDROOT
BRANCH   4   7
HETATM    7  O   UNL     1     -44.240  56.956 -51.485  1.00  0.00    -0.292 OA
BRANCH   7   8
HETATM    8  C   UNL     1     -43.172  56.089 -51.460  1.00  0.00     0.078 A 
HETATM    9  C   UNL     1     -43.432  54.770 -51.084  1.00  0.00     0.040 A 
HETATM   10  C   UNL     1     -42.399  53.827 -51.078  1.00  0.00     0.040 A 
HETATM   11  C   UNL     1     -41.116  54.203 -51.482  1.00  0.00     0.076 A 
HETATM   12  C   UNL     1     -40.856  55.520 -51.863  1.00  0.00     0.040 A 
HETATM   13  C   UNL     1     -41.887  56.461 -51.869  1.00  0.00     0.040 A 
BRANCH  11  14
HETATM   14  O   UNL     1     -40.038  53.349 -51.444  1.00  0.00    -0.311 OA
BRANCH  14  15
HETATM   15  C   UNL     1     -40.029  52.266 -52.293  1.00  0.00     0.076 A 
HETATM   16  C   UNL     1     -40.339  52.345 -53.654  1.00  0.00     0.037 A 
HETATM   17  C   UNL     1     -40.252  51.202 -54.453  1.00  0.00     0.003 A 
HETATM   18  C   UNL     1     -39.837  49.991 -53.899  1.00  0.00     0.000 A 
HETATM   19  C   UNL     1     -39.506  49.919 -52.546  1.00  0.00     0.003 A 
HETATM   20  C   UNL     1     -39.597  51.058 -51.746  1.00  0.00     0.037 A 
ENDBRANCH  14  15
ENDBRANCH  11  14
ENDBRANCH   7   8
ENDBRANCH   4   7
BRANCH   1  21
HETATM   21  C   UNL     1     -45.319  59.603 -56.309  1.00  0.00     0.253 C 
HETATM   22  N   UNL     1     -46.544  59.302 -56.864  1.00  0.00    -0.354 N 
HETATM   23  H   UNL     1     -47.135  58.588 -56.460  1.00  0.00     0.162 HD
HETATM   24  O   UNL     1     -44.495  60.322 -56.863  1.00  0.00    -0.268 OA
BRANCH  22  25
HETATM   25  C   UNL     1     -46.931  59.820 -58.170  1.00  0.00     0.154 C 
BRANCH  25  26
HETATM   26  C   UNL     1     -46.519  58.880 -59.313  1.00  0.00     0.132 C 
HETATM   27  C   UNL     1     -46.699  57.422 -58.920  1.00  0.00     0.041 C 
BRANCH  26  28
HETATM   28  O   UNL     1     -45.138  59.088 -59.625  1.00  0.00    -0.394 OA
HETATM   29  H   UNL     1     -45.035  60.048 -59.744  1.00  0.00     0.210 HD
ENDBRANCH  26  28
ENDBRANCH  25  26
ENDBRANCH  22  25
ENDBRANCH   1  21
TORSDOF 8
ENDMDL
MODEL 7
REMARK VINA RESULT:      -6.9     17.125     19.768
REMARK  8 active torsions:
REMARK  status: ('A' for Active; 'I' for Inactive)
REMARK    1  A    between atoms: C_2  and  O_3 
REMARK    2  A    between atoms: C_2  and  C_4 
REMARK    3  A    between atoms: C_4  and  N_5 
REMARK       I    between atoms: N_5  and  C_6 
REMARK    4  A    between atoms: C_6  and  C_7 
REMARK    5  A    between atoms: C_10  and  O_11 
REMARK    6  A    between atoms: O_11  and  C_12 
REMARK    7  A    between atoms: C_15  and  O_16 
REMARK    8  A    between atoms: O_16  and  C_17 
ROOT
HETATM    1  C   UNL     1     -36.527  41.813 -57.414  1.00  0.00     0.049 A 
HETATM    2  C   UNL     1     -37.433  41.504 -56.406  1.00  0.00     0.136 A 
HETATM    3  N   UNL     1     -37.207  41.729 -55.089  1.00  0.00    -0.236 NA
HETATM    4  C   UNL     1     -36.017  42.278 -54.760  1.00  0.00     0.169 A 
HETATM    5  C   UNL     1     -35.027  42.572 -55.687  1.00  0.00     0.059 A 
HETATM    6  C   UNL     1     -35.289  42.342 -57.038  1.00  0.00     0.023 A 
ENDROOT
BRANCH   4   7
HETATM    7  O   UNL     1     -35.718  42.527 -53.428  1.00  0.00    -0.292 OA
BRANCH   7   8
HETATM    8  C   UNL     1     -35.226  41.476 -52.687  1.00  0.00     0.078 A 
HETATM    9  C   UNL     1     -35.666  41.366 -51.367  1.00  0.00     0.040 A 
HETATM   10  C   UNL     1     -35.238  40.298 -50.572  1.00  0.00     0.040 A 
HETATM   11  C   UNL     1     -34.398  39.324 -51.117  1.00  0.00     0.076 A 
HETATM   12  C   UNL     1     -33.962  39.429 -52.438  1.00  0.00     0.040 A 
HETATM   13  C   UNL     1     -34.389  40.496 -53.231  1.00  0.00     0.040 A 
BRANCH  11  14
HETATM   14  O   UNL     1     -33.887  38.280 -50.381  1.00  0.00    -0.311 OA
BRANCH  14  15
HETATM   15  C   UNL     1     -33.055  38.567 -49.324  1.00  0.00     0.076 A 
HETATM   16  C   UNL     1     -32.083  39.571 -49.352  1.00  0.00     0.037 A 
HETATM   17  C   UNL     1     -31.317  39.829 -48.213  1.00  0.00     0.003 A 
HETATM   18  C   UNL     1     -31.536  39.101 -47.043  1.00  0.00     0.000 A 
HETATM   19  C   UNL     1     -32.522  38.115 -47.009  1.00  0.00     0.003 A 
HETATM   20  C   UNL     1     -33.284  37.853 -48.147  1.00  0.00     0.037 A 
ENDBRANCH  14  15
ENDBRANCH  11  14
ENDBRANCH   7   8
ENDBRANCH   4   7
BRANCH   1  21
HETATM   21  C   UNL     1     -36.921  41.560 -58.819  1.00  0.00     0.253 C 
HETATM   22  N   UNL     1     -36.921  40.249 -59.240  1.00  0.00    -0.354 N 
HETATM   23  H   UNL     1     -36.552  39.514 -58.651  1.00  0.00     0.162 HD
HETATM   24  O   UNL     1     -37.183  42.500 -59.562  1.00  0.00    -0.268 OA
BRANCH  22  25
HETATM   25  C   UNL     1     -37.227  39.898 -60.621  1.00  0.00     0.154 C 
BRANCH  25  26
HETATM   26  C   UNL     1     -38.358  38.863 -60.721  1.00  0.00     0.132 C 
HETATM   27  C   UNL     1     -38.671  38.255 -59.364  1.00  0.00     0.041 C 
BRANCH  26  28
HETATM   28  O   UNL     1     -37.959  37.806 -61.600  1.00  0.00    -0.394 OA
HETATM   29  H   UNL     1     -37.837  38.219 -62.472  1.00  0.00     0.210 HD
ENDBRANCH  26  28
ENDBRANCH  25  26
ENDBRANCH  22  25
ENDBRANCH   1  21
TORSDOF 8
ENDMDL
MODEL 8
REMARK VINA RESULT:      -6.9      5.998      8.539
REMARK  8 active torsions:
REMARK  status: ('A' for Active; 'I' for Inactive)
REMARK    1  A    between atoms: C_2  and  O_3 
REMARK    2  A    between atoms: C_2  and  C_4 
REMARK    3  A    between atoms: C_4  and  N_5 
REMARK       I    between atoms: N_5  and  C_6 
REMARK    4  A    between atoms: C_6  and  C_7 
REMARK    5  A    between atoms: C_10  and  O_11 
REMARK    6  A    between atoms: O_11  and  C_12 
REMARK    7  A    between atoms: C_15  and  O_16 
REMARK    8  A    between atoms: O_16  and  C_17 
ROOT
HETATM    1  C   UNL     1     -45.660  56.846 -59.616  1.00  0.00     0.049 A 
HETATM    2  C   UNL     1     -45.578  57.676 -58.504  1.00  0.00     0.136 A 
HETATM    3  N   UNL     1     -44.533  57.687 -57.641  1.00  0.00    -0.236 NA
HETATM    4  C   UNL     1     -43.527  56.820 -57.893  1.00  0.00     0.169 A 
HETATM    5  C   UNL     1     -43.541  55.915 -58.944  1.00  0.00     0.059 A 
HETATM    6  C   UNL     1     -44.623  55.932 -59.825  1.00  0.00     0.023 A 
ENDROOT
BRANCH   4   7
HETATM    7  O   UNL     1     -42.430  56.774 -57.043  1.00  0.00    -0.292 OA
BRANCH   7   8
HETATM    8  C   UNL     1     -42.576  56.073 -55.868  1.00  0.00     0.078 A 
HETATM    9  C   UNL     1     -42.709  56.819 -54.695  1.00  0.00     0.040 A 
HETATM   10  C   UNL     1     -42.902  56.171 -53.471  1.00  0.00     0.040 A 
HETATM   11  C   UNL     1     -42.997  54.778 -53.433  1.00  0.00     0.076 A 
HETATM   12  C   UNL     1     -42.870  54.032 -54.605  1.00  0.00     0.040 A 
HETATM   13  C   UNL     1     -42.677  54.679 -55.826  1.00  0.00     0.040 A 
BRANCH  11  14
HETATM   14  O   UNL     1     -43.125  54.068 -52.262  1.00  0.00    -0.311 OA
BRANCH  14  15
HETATM   15  C   UNL     1     -42.069  54.059 -51.380  1.00  0.00     0.076 A 
HETATM   16  C   UNL     1     -40.818  53.508 -51.674  1.00  0.00     0.037 A 
HETATM   17  C   UNL     1     -39.786  53.592 -50.737  1.00  0.00     0.003 A 
HETATM   18  C   UNL     1     -39.995  54.240 -49.520  1.00  0.00     0.000 A 
HETATM   19  C   UNL     1     -41.237  54.809 -49.237  1.00  0.00     0.003 A 
HETATM   20  C   UNL     1     -42.270  54.723 -50.170  1.00  0.00     0.037 A 
ENDBRANCH  14  15
ENDBRANCH  11  14
ENDBRANCH   7   8
ENDBRANCH   4   7
BRANCH   1  21
HETATM   21  C   UNL     1     -46.837  56.971 -60.505  1.00  0.00     0.253 C 
HETATM   22  N   UNL     1     -46.995  58.169 -61.167  1.00  0.00    -0.354 N 
HETATM   23  H   UNL     1     -46.403  58.961 -60.955  1.00  0.00     0.162 HD
HETATM   24  O   UNL     1     -47.641  56.050 -60.593  1.00  0.00    -0.268 OA
BRANCH  22  25
HETATM   25  C   UNL     1     -48.155  58.419 -62.012  1.00  0.00     0.154 C 
BRANCH  25  26
HETATM   26  C   UNL     1     -48.772  59.803 -61.757  1.00  0.00     0.132 C 
HETATM   27  C   UNL     1     -48.213  60.432 -60.492  1.00  0.00     0.041 C 
BRANCH  26  28
HETATM   28  O   UNL     1     -50.188  59.669 -61.598  1.00  0.00    -0.394 OA
HETATM   29  H   UNL     1     -50.341  59.589 -60.640  1.00  0.00     0.210 HD
ENDBRANCH  26  28
ENDBRANCH  25  26
ENDBRANCH  22  25
ENDBRANCH   1  21
TORSDOF 8
ENDMDL
MODEL 9
REMARK VINA RESULT:      -6.9     18.059     20.452
REMARK  8 active torsions:
REMARK  status: ('A' for Active; 'I' for Inactive)
REMARK    1  A    between atoms: C_2  and  O_3 
REMARK    2  A    between atoms: C_2  and  C_4 
REMARK    3  A    between atoms: C_4  and  N_5 
REMARK       I    between atoms: N_5  and  C_6 
REMARK    4  A    between atoms: C_6  and  C_7 
REMARK    5  A    between atoms: C_10  and  O_11 
REMARK    6  A    between atoms: O_11  and  C_12 
REMARK    7  A    between atoms: C_15  and  O_16 
REMARK    8  A    between atoms: O_16  and  C_17 
ROOT
HETATM    1  C   UNL     1     -37.966  39.763 -59.876  1.00  0.00     0.049 A 
HETATM    2  C   UNL     1     -38.047  39.297 -58.569  1.00  0.00     0.136 A 
HETATM    3  N   UNL     1     -37.656  40.011 -57.485  1.00  0.00    -0.236 NA
HETATM    4  C   UNL     1     -37.150  41.242 -57.717  1.00  0.00     0.169 A 
HETATM    5  C   UNL     1     -36.978  41.773 -58.987  1.00  0.00     0.059 A 
HETATM    6  C   UNL     1     -37.400  41.023 -60.086  1.00  0.00     0.023 A 
ENDROOT
BRANCH   4   7
HETATM    7  O   UNL     1     -36.722  42.022 -56.651  1.00  0.00    -0.292 OA
BRANCH   7   8
HETATM    8  C   UNL     1     -35.556  41.646 -56.026  1.00  0.00     0.078 A 
HETATM    9  C   UNL     1     -35.607  41.461 -54.643  1.00  0.00     0.040 A 
HETATM   10  C   UNL     1     -34.468  41.038 -53.950  1.00  0.00     0.040 A 
HETATM   11  C   UNL     1     -33.291  40.768 -54.653  1.00  0.00     0.076 A 
HETATM   12  C   UNL     1     -33.241  40.946 -56.036  1.00  0.00     0.040 A 
HETATM   13  C   UNL     1     -34.377  41.369 -56.727  1.00  0.00     0.040 A 
BRANCH  11  14
HETATM   14  O   UNL     1     -32.116  40.408 -54.035  1.00  0.00    -0.311 OA
BRANCH  14  15
HETATM   15  C   UNL     1     -32.183  39.781 -52.812  1.00  0.00     0.076 A 
HETATM   16  C   UNL     1     -32.347  38.402 -52.655  1.00  0.00     0.037 A 
HETATM   17  C   UNL     1     -32.350  37.845 -51.374  1.00  0.00     0.003 A 
HETATM   18  C   UNL     1     -32.171  38.659 -50.256  1.00  0.00     0.000 A 
HETATM   19  C   UNL     1     -31.984  40.032 -50.415  1.00  0.00     0.003 A 
HETATM   20  C   UNL     1     -31.985  40.591 -51.693  1.00  0.00     0.037 A 
ENDBRANCH  14  15
ENDBRANCH  11  14
ENDBRANCH   7   8
ENDBRANCH   4   7
BRANCH   1  21
HETATM   21  C   UNL     1     -38.475  38.899 -60.966  1.00  0.00     0.253 C 
HETATM   22  N   UNL     1     -39.529  38.066 -60.662  1.00  0.00    -0.354 N 
HETATM   23  H   UNL     1     -39.853  37.966 -59.709  1.00  0.00     0.162 HD
HETATM   24  O   UNL     1     -37.932  38.912 -62.065  1.00  0.00    -0.268 OA
BRANCH  22  25
HETATM   25  C   UNL     1     -40.060  37.128 -61.642  1.00  0.00     0.154 C 
BRANCH  25  26
HETATM   26  C   UNL     1     -41.548  37.375 -61.937  1.00  0.00     0.132 C 
HETATM   27  C   UNL     1     -41.735  38.107 -63.256  1.00  0.00     0.041 C 
BRANCH  26  28
HETATM   28  O   UNL     1     -42.109  38.183 -60.898  1.00  0.00    -0.394 OA
HETATM   29  H   UNL     1     -43.031  38.349 -61.160  1.00  0.00     0.210 HD
ENDBRANCH  26  28
ENDBRANCH  25  26
ENDBRANCH  22  25
ENDBRANCH   1  21
TORSDOF 8
ENDMDL
MODEL 10
REMARK VINA RESULT:      -6.8      3.591      5.675
REMARK  8 active torsions:
REMARK  status: ('A' for Active; 'I' for Inactive)
REMARK    1  A    between atoms: C_2  and  O_3 
REMARK    2  A    between atoms: C_2  and  C_4 
REMARK    3  A    between atoms: C_4  and  N_5 
REMARK       I    between atoms: N_5  and  C_6 
REMARK    4  A    between atoms: C_6  and  C_7 
REMARK    5  A    between atoms: C_10  and  O_11 
REMARK    6  A    between atoms: O_11  and  C_12 
REMARK    7  A    between atoms: C_15  and  O_16 
REMARK    8  A    between atoms: O_16  and  C_17 
ROOT
HETATM    1  C   UNL     1     -43.778  58.565 -54.284  1.00  0.00     0.049 A 
HETATM    2  C   UNL     1     -42.493  58.343 -53.800  1.00  0.00     0.136 A 
HETATM    3  N   UNL     1     -42.224  57.783 -52.596  1.00  0.00    -0.236 NA
HETATM    4  C   UNL     1     -43.285  57.438 -51.834  1.00  0.00     0.169 A 
HETATM    5  C   UNL     1     -44.602  57.668 -52.204  1.00  0.00     0.059 A 
HETATM    6  C   UNL     1     -44.853  58.235 -53.455  1.00  0.00     0.023 A 
ENDROOT
BRANCH   4   7
HETATM    7  O   UNL     1     -43.078  56.867 -50.585  1.00  0.00    -0.292 OA
BRANCH   7   8
HETATM    8  C   UNL     1     -42.292  55.739 -50.533  1.00  0.00     0.078 A 
HETATM    9  C   UNL     1     -42.715  54.634 -51.273  1.00  0.00     0.040 A 
HETATM   10  C   UNL     1     -41.941  53.469 -51.298  1.00  0.00     0.040 A 
HETATM   11  C   UNL     1     -40.727  53.431 -50.608  1.00  0.00     0.076 A 
HETATM   12  C   UNL     1     -40.300  54.537 -49.873  1.00  0.00     0.040 A 
HETATM   13  C   UNL     1     -41.073  55.699 -49.848  1.00  0.00     0.040 A 
BRANCH  11  14
HETATM   14  O   UNL     1     -39.942  52.303 -50.536  1.00  0.00    -0.311 OA
BRANCH  14  15
HETATM   15  C   UNL     1     -39.815  51.519 -51.659  1.00  0.00     0.076 A 
HETATM   16  C   UNL     1     -39.637  50.133 -51.622  1.00  0.00     0.037 A 
HETATM   17  C   UNL     1     -39.571  49.410 -52.815  1.00  0.00     0.003 A 
HETATM   18  C   UNL     1     -39.701  50.065 -54.039  1.00  0.00     0.000 A 
HETATM   19  C   UNL     1     -39.902  51.445 -54.075  1.00  0.00     0.003 A 
HETATM   20  C   UNL     1     -39.964  52.169 -52.885  1.00  0.00     0.037 A 
ENDBRANCH  14  15
ENDBRANCH  11  14
ENDBRANCH   7   8
ENDBRANCH   4   7
BRANCH   1  21
HETATM   21  C   UNL     1     -43.932  59.140 -55.640  1.00  0.00     0.253 C 
HETATM   22  N   UNL     1     -43.459  60.420 -55.832  1.00  0.00    -0.354 N 
HETATM   23  H   UNL     1     -43.136  60.976 -55.052  1.00  0.00     0.162 HD
HETATM   24  O   UNL     1     -44.501  58.501 -56.517  1.00  0.00    -0.268 OA
BRANCH  22  25
HETATM   25  C   UNL     1     -43.622  61.103 -57.109  1.00  0.00     0.154 C 
BRANCH  25  26
HETATM   26  C   UNL     1     -42.339  61.072 -57.953  1.00  0.00     0.132 C 
HETATM   27  C   UNL     1     -42.393  59.970 -58.999  1.00  0.00     0.041 C 
BRANCH  26  28
HETATM   28  O   UNL     1     -41.216  60.820 -57.101  1.00  0.00    -0.394 OA
HETATM   29  H   UNL     1     -41.406  59.977 -56.656  1.00  0.00     0.210 HD
ENDBRANCH  26  28
ENDBRANCH  25  26
ENDBRANCH  22  25
ENDBRANCH   1  21
TORSDOF 8
ENDMDL
