MODEL 1
REMARK VINA RESULT:      -8.6      0.000      0.000
REMARK  8 active torsions:
REMARK  status: ('A' for Active; 'I' for Inactive)
REMARK    1  A    between atoms: O_2  and  C_3 
REMARK    2  A    between atoms: C_5  and  N_6 
REMARK       I    between atoms: N_6  and  C_7 
REMARK    3  A    between atoms: C_7  and  C_8 
REMARK    4  A    between atoms: C_8  and  N_9 
REMARK    5  A    between atoms: C_8  and  C_25 
REMARK    6  A    between atoms: N_9  and  C_12 
REMARK    7  A    between atoms: C_12  and  C_13 
REMARK    8  A    between atoms: C_16  and  N_17 
ROOT
HETATM    1  C   UNL     1     -40.606  53.816 -52.532  1.00  0.00     0.310 C 
ENDROOT
BRANCH   1   2
HETATM    2  C   UNL     1     -41.649  54.398 -53.521  1.00  0.00     0.257 C 
HETATM    3  N   UNL     1     -41.209  55.403 -54.353  1.00  0.00    -0.325 N 
HETATM    4  H   UNL     1     -40.240  55.701 -54.287  1.00  0.00     0.169 HD
HETATM    5  O   UNL     1     -42.796  53.948 -53.438  1.00  0.00    -0.270 OA
BRANCH   3   6
HETATM    6  C   UNL     1     -41.963  56.066 -55.350  1.00  0.00     0.037 A 
HETATM    7  C   UNL     1     -42.454  55.448 -56.502  1.00  0.00     0.066 A 
HETATM    8  C   UNL     1     -43.175  56.172 -57.461  1.00  0.00     0.070 A 
HETATM    9  C   UNL     1     -43.424  57.527 -57.255  1.00  0.00     0.037 A 
HETATM   10  C   UNL     1     -42.943  58.154 -56.105  1.00  0.00     0.005 A 
HETATM   11  C   UNL     1     -42.212  57.431 -55.161  1.00  0.00     0.029 A 
BRANCH   8  12
HETATM   12  O   UNL     1     -43.576  55.436 -58.542  1.00  0.00    -0.356 OA
HETATM   13  C   UNL     1     -43.192  55.914 -59.827  1.00  0.00     0.210 C 
ENDBRANCH   8  12
ENDBRANCH   3   6
ENDBRANCH   1   2
BRANCH   1  14
HETATM   14  N   UNL     1     -41.165  53.976 -51.136  1.00  0.00    -0.054 N 
HETATM   15  H   UNL     1     -42.194  53.911 -51.240  1.00  0.00     0.278 HD
HETATM   16  H   UNL     1     -40.943  53.141 -50.582  1.00  0.00     0.278 HD
BRANCH  14  17
HETATM   17  C   UNL     1     -40.810  55.194 -50.379  1.00  0.00     0.272 C 
BRANCH  17  18
HETATM   18  C   UNL     1     -41.854  56.245 -50.624  1.00  0.00    -0.033 A 
HETATM   19  C   UNL     1     -43.209  55.908 -50.648  1.00  0.00     0.011 A 
HETATM   20  C   UNL     1     -44.169  56.855 -51.032  1.00  0.00     0.030 A 
HETATM   21  C   UNL     1     -43.807  58.155 -51.408  1.00  0.00     0.037 A 
HETATM   22  C   UNL     1     -42.449  58.492 -51.336  1.00  0.00     0.030 A 
HETATM   23  C   UNL     1     -41.482  57.552 -50.956  1.00  0.00     0.011 A 
BRANCH  21  24
HETATM   24  N   UNL     1     -44.767  59.098 -51.866  1.00  0.00    -0.318 N 
HETATM   25  C   UNL     1     -45.750  59.726 -51.082  1.00  0.00     0.224 C 
HETATM   26  O   UNL     1     -45.944  59.638 -49.879  1.00  0.00    -0.273 OA
HETATM   27  C   UNL     1     -46.654  60.507 -52.007  1.00  0.00     0.105 C 
HETATM   28  C   UNL     1     -45.829  60.635 -53.272  1.00  0.00     0.029 C 
HETATM   29  C   UNL     1     -44.980  59.383 -53.267  1.00  0.00     0.133 C 
ENDBRANCH  21  24
ENDBRANCH  17  18
ENDBRANCH  14  17
ENDBRANCH   1  14
BRANCH   1  30
HETATM   30  C   UNL     1     -40.228  52.380 -52.807  1.00  0.00    -0.019 A 
HETATM   31  C   UNL     1     -39.843  51.540 -51.750  1.00  0.00     0.010 A 
HETATM   32  C   UNL     1     -39.512  50.205 -51.992  1.00  0.00     0.001 A 
HETATM   33  C   UNL     1     -39.566  49.695 -53.286  1.00  0.00     0.000 A 
HETATM   34  C   UNL     1     -39.950  50.516 -54.344  1.00  0.00     0.001 A 
HETATM   35  C   UNL     1     -40.281  51.850 -54.110  1.00  0.00     0.010 A 
ENDBRANCH   1  30
TORSDOF 8
ENDMDL
MODEL 2
REMARK VINA RESULT:      -8.4      1.718      1.897
REMARK  8 active torsions:
REMARK  status: ('A' for Active; 'I' for Inactive)
REMARK    1  A    between atoms: O_2  and  C_3 
REMARK    2  A    between atoms: C_5  and  N_6 
REMARK       I    between atoms: N_6  and  C_7 
REMARK    3  A    between atoms: C_7  and  C_8 
REMARK    4  A    between atoms: C_8  and  N_9 
REMARK    5  A    between atoms: C_8  and  C_25 
REMARK    6  A    between atoms: N_9  and  C_12 
REMARK    7  A    between atoms: C_12  and  C_13 
REMARK    8  A    between atoms: C_16  and  N_17 
ROOT
HETATM    1  C   UNL     1     -40.882  53.909 -52.754  1.00  0.00     0.310 C 
ENDROOT
BRANCH   1   2
HETATM    2  C   UNL     1     -41.088  54.746 -54.043  1.00  0.00     0.257 C 
HETATM    3  N   UNL     1     -42.392  55.000 -54.406  1.00  0.00    -0.325 N 
HETATM    4  H   UNL     1     -43.140  54.644 -53.817  1.00  0.00     0.169 HD
HETATM    5  O   UNL     1     -40.068  55.063 -54.661  1.00  0.00    -0.270 OA
BRANCH   3   6
HETATM    6  C   UNL     1     -42.827  55.759 -55.518  1.00  0.00     0.037 A 
HETATM    7  C   UNL     1     -42.797  55.302 -56.838  1.00  0.00     0.066 A 
HETATM    8  C   UNL     1     -43.223  56.116 -57.896  1.00  0.00     0.070 A 
HETATM    9  C   UNL     1     -43.703  57.396 -57.628  1.00  0.00     0.037 A 
HETATM   10  C   UNL     1     -43.743  57.861 -56.312  1.00  0.00     0.005 A 
HETATM   11  C   UNL     1     -43.303  57.050 -55.264  1.00  0.00     0.029 A 
BRANCH   8  12
HETATM   12  O   UNL     1     -43.118  55.540 -59.132  1.00  0.00    -0.356 OA
HETATM   13  C   UNL     1     -44.242  54.803 -59.600  1.00  0.00     0.210 C 
ENDBRANCH   8  12
ENDBRANCH   3   6
ENDBRANCH   1   2
BRANCH   1  14
HETATM   14  N   UNL     1     -42.186  53.924 -51.990  1.00  0.00    -0.054 N 
HETATM   15  H   UNL     1     -42.880  54.345 -52.633  1.00  0.00     0.278 HD
HETATM   16  H   UNL     1     -42.531  52.962 -51.885  1.00  0.00     0.278 HD
BRANCH  14  17
HETATM   17  C   UNL     1     -42.221  54.618 -50.685  1.00  0.00     0.272 C 
BRANCH  17  18
HETATM   18  C   UNL     1     -42.514  56.072 -50.912  1.00  0.00    -0.033 A 
HETATM   19  C   UNL     1     -43.771  56.482 -51.364  1.00  0.00     0.011 A 
HETATM   20  C   UNL     1     -43.994  57.818 -51.725  1.00  0.00     0.030 A 
HETATM   21  C   UNL     1     -42.976  58.776 -51.656  1.00  0.00     0.037 A 
HETATM   22  C   UNL     1     -41.733  58.361 -51.159  1.00  0.00     0.030 A 
HETATM   23  C   UNL     1     -41.499  57.029 -50.797  1.00  0.00     0.011 A 
BRANCH  21  24
HETATM   24  N   UNL     1     -43.176  60.116 -52.088  1.00  0.00    -0.318 N 
HETATM   25  C   UNL     1     -42.660  60.693 -53.260  1.00  0.00     0.224 C 
HETATM   26  O   UNL     1     -42.001  60.171 -54.147  1.00  0.00    -0.273 OA
HETATM   27  C   UNL     1     -42.974  62.171 -53.228  1.00  0.00     0.105 C 
HETATM   28  C   UNL     1     -44.083  62.268 -52.201  1.00  0.00     0.029 C 
HETATM   29  C   UNL     1     -43.787  61.126 -51.254  1.00  0.00     0.133 C 
ENDBRANCH  21  24
ENDBRANCH  17  18
ENDBRANCH  14  17
ENDBRANCH   1  14
BRANCH   1  30
HETATM   30  C   UNL     1     -40.411  52.496 -53.004  1.00  0.00    -0.019 A 
HETATM   31  C   UNL     1     -39.808  51.763 -51.969  1.00  0.00     0.010 A 
HETATM   32  C   UNL     1     -39.388  50.449 -52.184  1.00  0.00     0.001 A 
HETATM   33  C   UNL     1     -39.570  49.853 -53.429  1.00  0.00     0.000 A 
HETATM   34  C   UNL     1     -40.170  50.566 -54.463  1.00  0.00     0.001 A 
HETATM   35  C   UNL     1     -40.590  51.880 -54.256  1.00  0.00     0.010 A 
ENDBRANCH   1  30
TORSDOF 8
ENDMDL
MODEL 3
REMARK VINA RESULT:      -8.2      0.936      1.758
REMARK  8 active torsions:
REMARK  status: ('A' for Active; 'I' for Inactive)
REMARK    1  A    between atoms: O_2  and  C_3 
REMARK    2  A    between atoms: C_5  and  N_6 
REMARK       I    between atoms: N_6  and  C_7 
REMARK    3  A    between atoms: C_7  and  C_8 
REMARK    4  A    between atoms: C_8  and  N_9 
REMARK    5  A    between atoms: C_8  and  C_25 
REMARK    6  A    between atoms: N_9  and  C_12 
REMARK    7  A    between atoms: C_12  and  C_13 
REMARK    8  A    between atoms: C_16  and  N_17 
ROOT
HETATM    1  C   UNL     1     -40.627  53.835 -52.465  1.00  0.00     0.310 C 
ENDROOT
BRANCH   1   2
HETATM    2  C   UNL     1     -41.644  54.393 -53.493  1.00  0.00     0.257 C 
HETATM    3  N   UNL     1     -41.191  55.397 -54.320  1.00  0.00    -0.325 N 
HETATM    4  H   UNL     1     -40.228  55.707 -54.226  1.00  0.00     0.169 HD
HETATM    5  O   UNL     1     -42.788  53.930 -53.443  1.00  0.00    -0.270 OA
BRANCH   3   6
HETATM    6  C   UNL     1     -41.921  56.040 -55.348  1.00  0.00     0.037 A 
HETATM    7  C   UNL     1     -42.276  57.391 -55.328  1.00  0.00     0.066 A 
HETATM    8  C   UNL     1     -43.021  57.959 -56.371  1.00  0.00     0.070 A 
HETATM    9  C   UNL     1     -43.399  57.170 -57.454  1.00  0.00     0.037 A 
HETATM   10  C   UNL     1     -43.045  55.820 -57.487  1.00  0.00     0.005 A 
HETATM   11  C   UNL     1     -42.315  55.257 -56.438  1.00  0.00     0.029 A 
BRANCH   8  12
HETATM   12  O   UNL     1     -43.309  59.285 -56.204  1.00  0.00    -0.356 OA
HETATM   13  C   UNL     1     -42.266  60.213 -56.483  1.00  0.00     0.210 C 
ENDBRANCH   8  12
ENDBRANCH   3   6
ENDBRANCH   1   2
BRANCH   1  14
HETATM   14  N   UNL     1     -41.231  54.004 -51.090  1.00  0.00    -0.054 N 
HETATM   15  H   UNL     1     -42.242  53.811 -51.205  1.00  0.00     0.278 HD
HETATM   16  H   UNL     1     -40.923  53.234 -50.484  1.00  0.00     0.278 HD
BRANCH  14  17
HETATM   17  C   UNL     1     -41.040  55.296 -50.399  1.00  0.00     0.272 C 
BRANCH  17  18
HETATM   18  C   UNL     1     -42.043  56.283 -50.920  1.00  0.00    -0.033 A 
HETATM   19  C   UNL     1     -41.633  57.528 -51.404  1.00  0.00     0.011 A 
HETATM   20  C   UNL     1     -42.578  58.506 -51.741  1.00  0.00     0.030 A 
HETATM   21  C   UNL     1     -43.952  58.277 -51.599  1.00  0.00     0.037 A 
HETATM   22  C   UNL     1     -44.352  57.009 -51.155  1.00  0.00     0.030 A 
HETATM   23  C   UNL     1     -43.415  56.026 -50.814  1.00  0.00     0.011 A 
BRANCH  21  24
HETATM   24  N   UNL     1     -44.913  59.289 -51.871  1.00  0.00    -0.318 N 
HETATM   25  C   UNL     1     -45.778  59.882 -50.935  1.00  0.00     0.224 C 
HETATM   26  O   UNL     1     -45.846  59.700 -49.729  1.00  0.00    -0.273 OA
HETATM   27  C   UNL     1     -46.740  60.771 -51.690  1.00  0.00     0.105 C 
HETATM   28  C   UNL     1     -46.050  60.976 -53.023  1.00  0.00     0.029 C 
HETATM   29  C   UNL     1     -45.262  59.699 -53.213  1.00  0.00     0.133 C 
ENDBRANCH  21  24
ENDBRANCH  17  18
ENDBRANCH  14  17
ENDBRANCH   1  14
BRANCH   1  30
HETATM   30  C   UNL     1     -40.224  52.401 -52.712  1.00  0.00    -0.019 A 
HETATM   31  C   UNL     1     -39.826  51.587 -51.638  1.00  0.00     0.010 A 
HETATM   32  C   UNL     1     -39.473  50.254 -51.854  1.00  0.00     0.001 A 
HETATM   33  C   UNL     1     -39.517  49.718 -53.138  1.00  0.00     0.000 A 
HETATM   34  C   UNL     1     -39.913  50.511 -54.212  1.00  0.00     0.001 A 
HETATM   35  C   UNL     1     -40.267  51.844 -54.004  1.00  0.00     0.010 A 
ENDBRANCH   1  30
TORSDOF 8
ENDMDL
MODEL 4
REMARK VINA RESULT:      -8.0      2.312      8.017
REMARK  8 active torsions:
REMARK  status: ('A' for Active; 'I' for Inactive)
REMARK    1  A    between atoms: O_2  and  C_3 
REMARK    2  A    between atoms: C_5  and  N_6 
REMARK       I    between atoms: N_6  and  C_7 
REMARK    3  A    between atoms: C_7  and  C_8 
REMARK    4  A    between atoms: C_8  and  N_9 
REMARK    5  A    between atoms: C_8  and  C_25 
REMARK    6  A    between atoms: N_9  and  C_12 
REMARK    7  A    between atoms: C_12  and  C_13 
REMARK    8  A    between atoms: C_16  and  N_17 
ROOT
HETATM    1  C   UNL     1     -43.599  57.730 -52.747  1.00  0.00     0.310 C 
ENDROOT
BRANCH   1   2
HETATM    2  C   UNL     1     -44.119  59.091 -52.215  1.00  0.00     0.257 C 
HETATM    3  N   UNL     1     -43.912  59.345 -50.877  1.00  0.00    -0.325 N 
HETATM    4  H   UNL     1     -43.429  58.648 -50.318  1.00  0.00     0.169 HD
HETATM    5  O   UNL     1     -44.723  59.803 -53.023  1.00  0.00    -0.270 OA
BRANCH   3   6
HETATM    6  C   UNL     1     -44.270  60.520 -50.175  1.00  0.00     0.037 A 
HETATM    7  C   UNL     1     -45.423  60.647 -49.397  1.00  0.00     0.066 A 
HETATM    8  C   UNL     1     -45.729  61.849 -48.745  1.00  0.00     0.070 A 
HETATM    9  C   UNL     1     -44.860  62.932 -48.859  1.00  0.00     0.037 A 
HETATM   10  C   UNL     1     -43.703  62.816 -49.630  1.00  0.00     0.005 A 
HETATM   11  C   UNL     1     -43.412  61.619 -50.289  1.00  0.00     0.029 A 
BRANCH   8  12
HETATM   12  O   UNL     1     -46.898  61.828 -48.035  1.00  0.00    -0.356 OA
HETATM   13  C   UNL     1     -46.794  61.707 -46.621  1.00  0.00     0.210 C 
ENDBRANCH   8  12
ENDBRANCH   3   6
ENDBRANCH   1   2
BRANCH   1  14
HETATM   14  N   UNL     1     -42.716  58.016 -53.939  1.00  0.00    -0.054 N 
HETATM   15  H   UNL     1     -42.899  59.005 -54.189  1.00  0.00     0.278 HD
HETATM   16  H   UNL     1     -41.734  58.039 -53.639  1.00  0.00     0.278 HD
BRANCH  14  17
HETATM   17  C   UNL     1     -42.859  57.158 -55.134  1.00  0.00     0.272 C 
BRANCH  17  18
HETATM   18  C   UNL     1     -42.218  55.829 -54.862  1.00  0.00    -0.033 A 
HETATM   19  C   UNL     1     -42.999  54.684 -54.689  1.00  0.00     0.011 A 
HETATM   20  C   UNL     1     -42.412  53.479 -54.280  1.00  0.00     0.030 A 
HETATM   21  C   UNL     1     -41.038  53.382 -54.025  1.00  0.00     0.037 A 
HETATM   22  C   UNL     1     -40.260  54.526 -54.245  1.00  0.00     0.030 A 
HETATM   23  C   UNL     1     -40.837  55.735 -54.652  1.00  0.00     0.011 A 
BRANCH  21  24
HETATM   24  N   UNL     1     -40.448  52.182 -53.542  1.00  0.00    -0.318 N 
HETATM   25  C   UNL     1     -39.912  51.982 -52.258  1.00  0.00     0.224 C 
HETATM   26  O   UNL     1     -39.890  52.749 -51.307  1.00  0.00    -0.273 OA
HETATM   27  C   UNL     1     -39.239  50.629 -52.241  1.00  0.00     0.105 C 
HETATM   28  C   UNL     1     -39.842  49.926 -53.440  1.00  0.00     0.029 C 
HETATM   29  C   UNL     1     -40.143  51.058 -54.398  1.00  0.00     0.133 C 
ENDBRANCH  21  24
ENDBRANCH  17  18
ENDBRANCH  14  17
ENDBRANCH   1  14
BRANCH   1  30
HETATM   30  C   UNL     1     -42.873  56.901 -51.714  1.00  0.00    -0.019 A 
HETATM   31  C   UNL     1     -43.484  55.758 -51.174  1.00  0.00     0.010 A 
HETATM   32  C   UNL     1     -42.812  54.973 -50.236  1.00  0.00     0.001 A 
HETATM   33  C   UNL     1     -41.525  55.317 -49.830  1.00  0.00     0.000 A 
HETATM   34  C   UNL     1     -40.905  56.445 -50.360  1.00  0.00     0.001 A 
HETATM   35  C   UNL     1     -41.571  57.235 -51.298  1.00  0.00     0.010 A 
ENDBRANCH   1  30
TORSDOF 8
ENDMDL
MODEL 5
REMARK VINA RESULT:      -8.0      2.604      5.811
REMARK  8 active torsions:
REMARK  status: ('A' for Active; 'I' for Inactive)
REMARK    1  A    between atoms: O_2  and  C_3 
REMARK    2  A    between atoms: C_5  and  N_6 
REMARK       I    between atoms: N_6  and  C_7 
REMARK    3  A    between atoms: C_7  and  C_8 
REMARK    4  A    between atoms: C_8  and  N_9 
REMARK    5  A    between atoms: C_8  and  C_25 
REMARK    6  A    between atoms: N_9  and  C_12 
REMARK    7  A    between atoms: C_12  and  C_13 
REMARK    8  A    between atoms: C_16  and  N_17 
ROOT
HETATM    1  C   UNL     1     -42.475  55.864 -53.189  1.00  0.00     0.310 C 
ENDROOT
BRANCH   1   2
HETATM    2  C   UNL     1     -42.240  54.450 -52.598  1.00  0.00     0.257 C 
HETATM    3  N   UNL     1     -40.969  53.935 -52.729  1.00  0.00    -0.325 N 
HETATM    4  H   UNL     1     -40.260  54.500 -53.187  1.00  0.00     0.169 HD
HETATM    5  O   UNL     1     -43.225  53.886 -52.112  1.00  0.00    -0.270 OA
BRANCH   3   6
HETATM    6  C   UNL     1     -40.510  52.685 -52.250  1.00  0.00     0.037 A 
HETATM    7  C   UNL     1     -40.149  51.616 -53.072  1.00  0.00     0.066 A 
HETATM    8  C   UNL     1     -39.723  50.396 -52.528  1.00  0.00     0.070 A 
HETATM    9  C   UNL     1     -39.640  50.252 -51.145  1.00  0.00     0.037 A 
HETATM   10  C   UNL     1     -39.994  51.316 -50.314  1.00  0.00     0.005 A 
HETATM   11  C   UNL     1     -40.431  52.523 -50.862  1.00  0.00     0.029 A 
BRANCH   8  12
HETATM   12  O   UNL     1     -39.421  49.437 -53.455  1.00  0.00    -0.356 OA
HETATM   13  C   UNL     1     -39.558  49.797 -54.826  1.00  0.00     0.210 C 
ENDBRANCH   8  12
ENDBRANCH   3   6
ENDBRANCH   1   2
BRANCH   1  14
HETATM   14  N   UNL     1     -43.952  56.164 -53.076  1.00  0.00    -0.054 N 
HETATM   15  H   UNL     1     -44.433  55.363 -53.524  1.00  0.00     0.278 HD
HETATM   16  H   UNL     1     -44.244  56.080 -52.095  1.00  0.00     0.278 HD
BRANCH  14  17
HETATM   17  C   UNL     1     -44.451  57.434 -53.644  1.00  0.00     0.272 C 
BRANCH  17  18
HETATM   18  C   UNL     1     -44.571  58.448 -52.544  1.00  0.00    -0.033 A 
HETATM   19  C   UNL     1     -45.310  58.166 -51.393  1.00  0.00     0.011 A 
HETATM   20  C   UNL     1     -45.553  59.166 -50.442  1.00  0.00     0.030 A 
HETATM   21  C   UNL     1     -45.078  60.472 -50.613  1.00  0.00     0.037 A 
HETATM   22  C   UNL     1     -44.301  60.731 -51.750  1.00  0.00     0.030 A 
HETATM   23  C   UNL     1     -44.054  59.738 -52.707  1.00  0.00     0.011 A 
BRANCH  21  24
HETATM   24  N   UNL     1     -45.381  61.507 -49.688  1.00  0.00    -0.318 N 
HETATM   25  C   UNL     1     -46.350  62.510 -49.857  1.00  0.00     0.224 C 
HETATM   26  O   UNL     1     -47.143  62.665 -50.774  1.00  0.00    -0.273 OA
HETATM   27  C   UNL     1     -46.209  63.491 -48.716  1.00  0.00     0.105 C 
HETATM   28  C   UNL     1     -45.419  62.712 -47.684  1.00  0.00     0.029 C 
HETATM   29  C   UNL     1     -44.573  61.778 -48.520  1.00  0.00     0.133 C 
ENDBRANCH  21  24
ENDBRANCH  17  18
ENDBRANCH  14  17
ENDBRANCH   1  14
BRANCH   1  30
HETATM   30  C   UNL     1     -41.647  56.949 -52.543  1.00  0.00    -0.019 A 
HETATM   31  C   UNL     1     -41.638  57.088 -51.145  1.00  0.00     0.010 A 
HETATM   32  C   UNL     1     -40.858  58.073 -50.538  1.00  0.00     0.001 A 
HETATM   33  C   UNL     1     -40.078  58.925 -51.315  1.00  0.00     0.000 A 
HETATM   34  C   UNL     1     -40.074  58.797 -52.701  1.00  0.00     0.001 A 
HETATM   35  C   UNL     1     -40.851  57.815 -53.315  1.00  0.00     0.010 A 
ENDBRANCH   1  30
TORSDOF 8
ENDMDL
MODEL 6
REMARK VINA RESULT:      -8.0      2.808      7.349
REMARK  8 active torsions:
REMARK  status: ('A' for Active; 'I' for Inactive)
REMARK    1  A    between atoms: O_2  and  C_3 
REMARK    2  A    between atoms: C_5  and  N_6 
REMARK       I    between atoms: N_6  and  C_7 
REMARK    3  A    between atoms: C_7  and  C_8 
REMARK    4  A    between atoms: C_8  and  N_9 
REMARK    5  A    between atoms: C_8  and  C_25 
REMARK    6  A    between atoms: N_9  and  C_12 
REMARK    7  A    between atoms: C_12  and  C_13 
REMARK    8  A    between atoms: C_16  and  N_17 
ROOT
HETATM    1  C   UNL     1     -42.530  56.805 -56.813  1.00  0.00     0.310 C 
ENDROOT
BRANCH   1   2
HETATM    2  C   UNL     1     -42.442  57.723 -55.567  1.00  0.00     0.257 C 
HETATM    3  N   UNL     1     -41.714  57.242 -54.501  1.00  0.00    -0.325 N 
HETATM    4  H   UNL     1     -41.269  56.333 -54.586  1.00  0.00     0.169 HD
HETATM    5  O   UNL     1     -43.078  58.780 -55.617  1.00  0.00    -0.270 OA
BRANCH   3   6
HETATM    6  C   UNL     1     -41.470  57.906 -53.275  1.00  0.00     0.037 A 
HETATM    7  C   UNL     1     -40.242  58.466 -52.918  1.00  0.00     0.066 A 
HETATM    8  C   UNL     1     -40.065  59.089 -51.675  1.00  0.00     0.070 A 
HETATM    9  C   UNL     1     -41.135  59.169 -50.788  1.00  0.00     0.037 A 
HETATM   10  C   UNL     1     -42.369  58.617 -51.136  1.00  0.00     0.005 A 
HETATM   11  C   UNL     1     -42.534  57.984 -52.370  1.00  0.00     0.029 A 
BRANCH   8  12
HETATM   12  O   UNL     1     -38.804  59.574 -51.460  1.00  0.00    -0.356 OA
HETATM   13  C   UNL     1     -38.442  59.859 -50.113  1.00  0.00     0.210 C 
ENDBRANCH   8  12
ENDBRANCH   3   6
ENDBRANCH   1   2
BRANCH   1  14
HETATM   14  N   UNL     1     -43.570  55.747 -56.525  1.00  0.00    -0.054 N 
HETATM   15  H   UNL     1     -44.060  56.066 -55.670  1.00  0.00     0.278 HD
HETATM   16  H   UNL     1     -44.309  55.792 -57.237  1.00  0.00     0.278 HD
BRANCH  14  17
HETATM   17  C   UNL     1     -43.116  54.351 -56.356  1.00  0.00     0.272 C 
BRANCH  17  18
HETATM   18  C   UNL     1     -42.724  54.133 -54.924  1.00  0.00    -0.033 A 
HETATM   19  C   UNL     1     -43.609  54.443 -53.889  1.00  0.00     0.011 A 
HETATM   20  C   UNL     1     -43.187  54.389 -52.554  1.00  0.00     0.030 A 
HETATM   21  C   UNL     1     -41.876  54.036 -52.212  1.00  0.00     0.037 A 
HETATM   22  C   UNL     1     -41.010  53.686 -53.258  1.00  0.00     0.030 A 
HETATM   23  C   UNL     1     -41.422  53.738 -54.595  1.00  0.00     0.011 A 
BRANCH  21  24
HETATM   24  N   UNL     1     -41.422  54.049 -50.866  1.00  0.00    -0.318 N 
HETATM   25  C   UNL     1     -40.651  53.053 -50.242  1.00  0.00     0.224 C 
HETATM   26  O   UNL     1     -40.183  52.032 -50.723  1.00  0.00    -0.273 OA
HETATM   27  C   UNL     1     -40.551  53.394 -48.773  1.00  0.00     0.105 C 
HETATM   28  C   UNL     1     -40.919  54.863 -48.731  1.00  0.00     0.029 C 
HETATM   29  C   UNL     1     -41.874  55.020 -49.894  1.00  0.00     0.133 C 
ENDBRANCH  21  24
ENDBRANCH  17  18
ENDBRANCH  14  17
ENDBRANCH   1  14
BRANCH   1  30
HETATM   30  C   UNL     1     -42.834  57.536 -58.099  1.00  0.00    -0.019 A 
HETATM   31  C   UNL     1     -44.122  57.470 -58.656  1.00  0.00     0.010 A 
HETATM   32  C   UNL     1     -44.419  58.159 -59.833  1.00  0.00     0.001 A 
HETATM   33  C   UNL     1     -43.440  58.923 -60.462  1.00  0.00     0.000 A 
HETATM   34  C   UNL     1     -42.160  59.001 -59.919  1.00  0.00     0.001 A 
HETATM   35  C   UNL     1     -41.856  58.314 -58.743  1.00  0.00     0.010 A 
ENDBRANCH   1  30
TORSDOF 8
ENDMDL
MODEL 7
REMARK VINA RESULT:      -7.9      2.439      3.407
REMARK  8 active torsions:
REMARK  status: ('A' for Active; 'I' for Inactive)
REMARK    1  A    between atoms: O_2  and  C_3 
REMARK    2  A    between atoms: C_5  and  N_6 
REMARK       I    between atoms: N_6  and  C_7 
REMARK    3  A    between atoms: C_7  and  C_8 
REMARK    4  A    between atoms: C_8  and  N_9 
REMARK    5  A    between atoms: C_8  and  C_25 
REMARK    6  A    between atoms: N_9  and  C_12 
REMARK    7  A    between atoms: C_12  and  C_13 
REMARK    8  A    between atoms: C_16  and  N_17 
ROOT
HETATM    1  C   UNL     1     -40.973  55.872 -54.366  1.00  0.00     0.310 C 
ENDROOT
BRANCH   1   2
HETATM    2  C   UNL     1     -42.207  55.886 -55.304  1.00  0.00     0.257 C 
HETATM    3  N   UNL     1     -42.103  56.654 -56.443  1.00  0.00    -0.325 N 
HETATM    4  H   UNL     1     -41.236  57.155 -56.614  1.00  0.00     0.169 HD
HETATM    5  O   UNL     1     -43.196  55.253 -54.922  1.00  0.00    -0.270 OA
BRANCH   3   6
HETATM    6  C   UNL     1     -43.079  56.802 -57.456  1.00  0.00     0.037 A 
HETATM    7  C   UNL     1     -43.106  56.052 -58.634  1.00  0.00     0.066 A 
HETATM    8  C   UNL     1     -44.091  56.266 -59.607  1.00  0.00     0.070 A 
HETATM    9  C   UNL     1     -45.073  57.230 -59.390  1.00  0.00     0.037 A 
HETATM   10  C   UNL     1     -45.059  57.982 -58.214  1.00  0.00     0.005 A 
HETATM   11  C   UNL     1     -44.066  57.774 -57.255  1.00  0.00     0.029 A 
BRANCH   8  12
HETATM   12  O   UNL     1     -43.978  55.470 -60.713  1.00  0.00    -0.356 OA
HETATM   13  C   UNL     1     -45.186  55.079 -61.355  1.00  0.00     0.210 C 
ENDBRANCH   8  12
ENDBRANCH   3   6
ENDBRANCH   1   2
BRANCH   1  14
HETATM   14  N   UNL     1     -41.214  56.898 -53.283  1.00  0.00    -0.054 N 
HETATM   15  H   UNL     1     -42.217  57.147 -53.355  1.00  0.00     0.278 HD
HETATM   16  H   UNL     1     -41.162  56.444 -52.364  1.00  0.00     0.278 HD
BRANCH  14  17
HETATM   17  C   UNL     1     -40.389  58.124 -53.288  1.00  0.00     0.272 C 
BRANCH  17  18
HETATM   18  C   UNL     1     -41.078  59.183 -52.478  1.00  0.00    -0.033 A 
HETATM   19  C   UNL     1     -40.783  59.346 -51.122  1.00  0.00     0.011 A 
HETATM   20  C   UNL     1     -41.538  60.225 -50.333  1.00  0.00     0.030 A 
HETATM   21  C   UNL     1     -42.607  60.955 -50.865  1.00  0.00     0.037 A 
HETATM   22  C   UNL     1     -42.864  60.814 -52.236  1.00  0.00     0.030 A 
HETATM   23  C   UNL     1     -42.117  59.938 -53.033  1.00  0.00     0.011 A 
BRANCH  21  24
HETATM   24  N   UNL     1     -43.421  61.792 -50.055  1.00  0.00    -0.318 N 
HETATM   25  C   UNL     1     -43.266  63.178 -49.879  1.00  0.00     0.224 C 
HETATM   26  O   UNL     1     -42.464  63.934 -50.407  1.00  0.00    -0.273 OA
HETATM   27  C   UNL     1     -44.233  63.622 -48.806  1.00  0.00     0.105 C 
HETATM   28  C   UNL     1     -45.231  62.484 -48.745  1.00  0.00     0.029 C 
HETATM   29  C   UNL     1     -44.410  61.274 -49.137  1.00  0.00     0.133 C 
ENDBRANCH  21  24
ENDBRANCH  17  18
ENDBRANCH  14  17
ENDBRANCH   1  14
BRANCH   1  30
HETATM   30  C   UNL     1     -40.661  54.518 -53.776  1.00  0.00    -0.019 A 
HETATM   31  C   UNL     1     -40.271  53.460 -54.612  1.00  0.00     0.010 A 
HETATM   32  C   UNL     1     -39.960  52.210 -54.074  1.00  0.00     0.001 A 
HETATM   33  C   UNL     1     -40.030  52.004 -52.699  1.00  0.00     0.000 A 
HETATM   34  C   UNL     1     -40.412  53.045 -51.856  1.00  0.00     0.001 A 
HETATM   35  C   UNL     1     -40.725  54.296 -52.387  1.00  0.00     0.010 A 
ENDBRANCH   1  30
TORSDOF 8
ENDMDL
MODEL 8
REMARK VINA RESULT:      -7.9      2.047      2.827
REMARK  8 active torsions:
REMARK  status: ('A' for Active; 'I' for Inactive)
REMARK    1  A    between atoms: O_2  and  C_3 
REMARK    2  A    between atoms: C_5  and  N_6 
REMARK       I    between atoms: N_6  and  C_7 
REMARK    3  A    between atoms: C_7  and  C_8 
REMARK    4  A    between atoms: C_8  and  N_9 
REMARK    5  A    between atoms: C_8  and  C_25 
REMARK    6  A    between atoms: N_9  and  C_12 
REMARK    7  A    between atoms: C_12  and  C_13 
REMARK    8  A    between atoms: C_16  and  N_17 
ROOT
HETATM    1  C   UNL     1     -40.969  55.685 -54.202  1.00  0.00     0.310 C 
ENDROOT
BRANCH   1   2
HETATM    2  C   UNL     1     -42.202  55.752 -55.138  1.00  0.00     0.257 C 
HETATM    3  N   UNL     1     -42.062  56.506 -56.283  1.00  0.00    -0.325 N 
HETATM    4  H   UNL     1     -41.172  56.962 -56.459  1.00  0.00     0.169 HD
HETATM    5  O   UNL     1     -43.220  55.171 -54.750  1.00  0.00    -0.270 OA
BRANCH   3   6
HETATM    6  C   UNL     1     -43.032  56.693 -57.296  1.00  0.00     0.037 A 
HETATM    7  C   UNL     1     -43.041  56.002 -58.509  1.00  0.00     0.066 A 
HETATM    8  C   UNL     1     -44.021  56.255 -59.479  1.00  0.00     0.070 A 
HETATM    9  C   UNL     1     -45.014  57.197 -59.224  1.00  0.00     0.037 A 
HETATM   10  C   UNL     1     -45.018  57.890 -58.012  1.00  0.00     0.005 A 
HETATM   11  C   UNL     1     -44.030  57.645 -57.056  1.00  0.00     0.029 A 
BRANCH   8  12
HETATM   12  O   UNL     1     -43.891  55.515 -60.622  1.00  0.00    -0.356 OA
HETATM   13  C   UNL     1     -45.089  55.037 -61.223  1.00  0.00     0.210 C 
ENDBRANCH   8  12
ENDBRANCH   3   6
ENDBRANCH   1   2
BRANCH   1  14
HETATM   14  N   UNL     1     -41.256  56.568 -53.009  1.00  0.00    -0.054 N 
HETATM   15  H   UNL     1     -42.271  56.470 -52.829  1.00  0.00     0.278 HD
HETATM   16  H   UNL     1     -40.838  56.153 -52.168  1.00  0.00     0.278 HD
BRANCH  14  17
HETATM   17  C   UNL     1     -40.895  57.998 -53.098  1.00  0.00     0.272 C 
BRANCH  17  18
HETATM   18  C   UNL     1     -41.751  58.780 -52.146  1.00  0.00    -0.033 A 
HETATM   19  C   UNL     1     -43.122  58.924 -52.374  1.00  0.00     0.011 A 
HETATM   20  C   UNL     1     -43.889  59.781 -51.575  1.00  0.00     0.030 A 
HETATM   21  C   UNL     1     -43.316  60.524 -50.536  1.00  0.00     0.037 A 
HETATM   22  C   UNL     1     -41.949  60.337 -50.289  1.00  0.00     0.030 A 
HETATM   23  C   UNL     1     -41.173  59.484 -51.083  1.00  0.00     0.011 A 
BRANCH  21  24
HETATM   24  N   UNL     1     -44.074  61.449 -49.768  1.00  0.00    -0.318 N 
HETATM   25  C   UNL     1     -45.243  61.161 -49.044  1.00  0.00     0.224 C 
HETATM   26  O   UNL     1     -45.803  60.087 -48.884  1.00  0.00    -0.273 OA
HETATM   27  C   UNL     1     -45.805  62.467 -48.529  1.00  0.00     0.105 C 
HETATM   28  C   UNL     1     -44.626  63.414 -48.627  1.00  0.00     0.029 C 
HETATM   29  C   UNL     1     -43.837  62.875 -49.799  1.00  0.00     0.133 C 
ENDBRANCH  21  24
ENDBRANCH  17  18
ENDBRANCH  14  17
ENDBRANCH   1  14
BRANCH   1  30
HETATM   30  C   UNL     1     -40.597  54.287 -53.770  1.00  0.00    -0.019 A 
HETATM   31  C   UNL     1     -40.593  53.950 -52.406  1.00  0.00     0.010 A 
HETATM   32  C   UNL     1     -40.271  52.655 -51.998  1.00  0.00     0.001 A 
HETATM   33  C   UNL     1     -39.956  51.683 -52.944  1.00  0.00     0.000 A 
HETATM   34  C   UNL     1     -39.960  52.000 -54.299  1.00  0.00     0.001 A 
HETATM   35  C   UNL     1     -40.279  53.293 -54.714  1.00  0.00     0.010 A 
ENDBRANCH   1  30
TORSDOF 8
ENDMDL
MODEL 9
REMARK VINA RESULT:      -7.9      2.683      6.052
REMARK  8 active torsions:
REMARK  status: ('A' for Active; 'I' for Inactive)
REMARK    1  A    between atoms: O_2  and  C_3 
REMARK    2  A    between atoms: C_5  and  N_6 
REMARK       I    between atoms: N_6  and  C_7 
REMARK    3  A    between atoms: C_7  and  C_8 
REMARK    4  A    between atoms: C_8  and  N_9 
REMARK    5  A    between atoms: C_8  and  C_25 
REMARK    6  A    between atoms: N_9  and  C_12 
REMARK    7  A    between atoms: C_12  and  C_13 
REMARK    8  A    between atoms: C_16  and  N_17 
ROOT
HETATM    1  C   UNL     1     -42.290  54.225 -53.755  1.00  0.00     0.310 C 
ENDROOT
BRANCH   1   2
HETATM    2  C   UNL     1     -42.503  55.457 -52.839  1.00  0.00     0.257 C 
HETATM    3  N   UNL     1     -41.566  56.463 -52.937  1.00  0.00    -0.325 N 
HETATM    4  H   UNL     1     -40.804  56.355 -53.600  1.00  0.00     0.169 HD
HETATM    5  O   UNL     1     -43.460  55.406 -52.061  1.00  0.00    -0.270 OA
BRANCH   3   6
HETATM    6  C   UNL     1     -41.563  57.687 -52.228  1.00  0.00     0.037 A 
HETATM    7  C   UNL     1     -42.152  58.864 -52.695  1.00  0.00     0.066 A 
HETATM    8  C   UNL     1     -42.091  60.049 -51.949  1.00  0.00     0.070 A 
HETATM    9  C   UNL     1     -41.448  60.052 -50.714  1.00  0.00     0.037 A 
HETATM   10  C   UNL     1     -40.859  58.880 -50.235  1.00  0.00     0.005 A 
HETATM   11  C   UNL     1     -40.911  57.706 -50.990  1.00  0.00     0.029 A 
BRANCH   8  12
HETATM   12  O   UNL     1     -42.698  61.123 -52.541  1.00  0.00    -0.356 OA
HETATM   13  C   UNL     1     -43.816  60.853 -53.379  1.00  0.00     0.210 C 
ENDBRANCH   8  12
ENDBRANCH   3   6
ENDBRANCH   1   2
BRANCH   1  14
HETATM   14  N   UNL     1     -41.936  54.738 -55.132  1.00  0.00    -0.054 N 
HETATM   15  H   UNL     1     -41.583  55.702 -54.987  1.00  0.00     0.278 HD
HETATM   16  H   UNL     1     -41.105  54.245 -55.477  1.00  0.00     0.278 HD
BRANCH  14  17
HETATM   17  C   UNL     1     -42.990  54.738 -56.167  1.00  0.00     0.272 C 
BRANCH  17  18
HETATM   18  C   UNL     1     -42.899  56.010 -56.959  1.00  0.00    -0.033 A 
HETATM   19  C   UNL     1     -42.920  55.982 -58.356  1.00  0.00     0.011 A 
HETATM   20  C   UNL     1     -42.677  57.149 -59.093  1.00  0.00     0.030 A 
HETATM   21  C   UNL     1     -42.398  58.369 -58.465  1.00  0.00     0.037 A 
HETATM   22  C   UNL     1     -42.424  58.392 -57.064  1.00  0.00     0.030 A 
HETATM   23  C   UNL     1     -42.665  57.232 -56.318  1.00  0.00     0.011 A 
BRANCH  21  24
HETATM   24  N   UNL     1     -42.080  59.539 -59.206  1.00  0.00    -0.318 N 
HETATM   25  C   UNL     1     -41.426  60.680 -58.711  1.00  0.00     0.224 C 
HETATM   26  O   UNL     1     -40.964  60.878 -57.598  1.00  0.00    -0.273 OA
HETATM   27  C   UNL     1     -41.456  61.738 -59.791  1.00  0.00     0.105 C 
HETATM   28  C   UNL     1     -41.753  60.944 -61.047  1.00  0.00     0.029 C 
HETATM   29  C   UNL     1     -42.579  59.781 -60.542  1.00  0.00     0.133 C 
ENDBRANCH  21  24
ENDBRANCH  17  18
ENDBRANCH  14  17
ENDBRANCH   1  14
BRANCH   1  30
HETATM   30  C   UNL     1     -41.250  53.253 -53.251  1.00  0.00    -0.019 A 
HETATM   31  C   UNL     1     -40.661  52.334 -54.134  1.00  0.00     0.010 A 
HETATM   32  C   UNL     1     -39.683  51.445 -53.682  1.00  0.00     0.001 A 
HETATM   33  C   UNL     1     -39.282  51.467 -52.349  1.00  0.00     0.000 A 
HETATM   34  C   UNL     1     -39.855  52.375 -51.463  1.00  0.00     0.001 A 
HETATM   35  C   UNL     1     -40.832  53.266 -51.907  1.00  0.00     0.010 A 
ENDBRANCH   1  30
TORSDOF 8
ENDMDL
MODEL 10
REMARK VINA RESULT:      -7.9      2.658      7.382
REMARK  8 active torsions:
REMARK  status: ('A' for Active; 'I' for Inactive)
REMARK    1  A    between atoms: O_2  and  C_3 
REMARK    2  A    between atoms: C_5  and  N_6 
REMARK       I    between atoms: N_6  and  C_7 
REMARK    3  A    between atoms: C_7  and  C_8 
REMARK    4  A    between atoms: C_8  and  N_9 
REMARK    5  A    between atoms: C_8  and  C_25 
REMARK    6  A    between atoms: N_9  and  C_12 
REMARK    7  A    between atoms: C_12  and  C_13 
REMARK    8  A    between atoms: C_16  and  N_17 
ROOT
HETATM    1  C   UNL     1     -42.677  57.883 -57.569  1.00  0.00     0.310 C 
ENDROOT
BRANCH   1   2
HETATM    2  C   UNL     1     -42.246  58.670 -56.304  1.00  0.00     0.257 C 
HETATM    3  N   UNL     1     -42.399  58.022 -55.098  1.00  0.00    -0.325 N 
HETATM    4  H   UNL     1     -42.769  57.075 -55.097  1.00  0.00     0.169 HD
HETATM    5  O   UNL     1     -41.856  59.827 -56.482  1.00  0.00    -0.270 OA
BRANCH   3   6
HETATM    6  C   UNL     1     -42.053  58.521 -53.820  1.00  0.00     0.037 A 
HETATM    7  C   UNL     1     -40.741  58.730 -53.389  1.00  0.00     0.066 A 
HETATM    8  C   UNL     1     -40.470  59.207 -52.099  1.00  0.00     0.070 A 
HETATM    9  C   UNL     1     -41.525  59.495 -51.237  1.00  0.00     0.037 A 
HETATM   10  C   UNL     1     -42.840  59.295 -51.659  1.00  0.00     0.005 A 
HETATM   11  C   UNL     1     -43.103  58.805 -52.940  1.00  0.00     0.029 A 
BRANCH   8  12
HETATM   12  O   UNL     1     -39.139  59.344 -51.815  1.00  0.00    -0.356 OA
HETATM   13  C   UNL     1     -38.792  59.626 -50.463  1.00  0.00     0.210 C 
ENDBRANCH   8  12
ENDBRANCH   3   6
ENDBRANCH   1   2
BRANCH   1  14
HETATM   14  N   UNL     1     -42.130  56.480 -57.439  1.00  0.00    -0.054 N 
HETATM   15  H   UNL     1     -41.760  56.239 -58.377  1.00  0.00     0.278 HD
HETATM   16  H   UNL     1     -41.282  56.496 -56.861  1.00  0.00     0.278 HD
BRANCH  14  17
HETATM   17  C   UNL     1     -43.043  55.418 -56.968  1.00  0.00     0.272 C 
BRANCH  17  18
HETATM   18  C   UNL     1     -42.552  54.901 -55.647  1.00  0.00    -0.033 A 
HETATM   19  C   UNL     1     -43.425  54.777 -54.563  1.00  0.00     0.011 A 
HETATM   20  C   UNL     1     -42.935  54.446 -53.292  1.00  0.00     0.030 A 
HETATM   21  C   UNL     1     -41.569  54.239 -53.063  1.00  0.00     0.037 A 
HETATM   22  C   UNL     1     -40.711  54.323 -54.168  1.00  0.00     0.030 A 
HETATM   23  C   UNL     1     -41.190  54.654 -55.442  1.00  0.00     0.011 A 
BRANCH  21  24
HETATM   24  N   UNL     1     -41.058  53.974 -51.764  1.00  0.00    -0.318 N 
HETATM   25  C   UNL     1     -40.922  54.906 -50.722  1.00  0.00     0.224 C 
HETATM   26  O   UNL     1     -41.251  56.083 -50.697  1.00  0.00    -0.273 OA
HETATM   27  C   UNL     1     -40.179  54.234 -49.591  1.00  0.00     0.105 C 
HETATM   28  C   UNL     1     -40.331  52.759 -49.902  1.00  0.00     0.029 C 
HETATM   29  C   UNL     1     -40.419  52.726 -51.412  1.00  0.00     0.133 C 
ENDBRANCH  21  24
ENDBRANCH  17  18
ENDBRANCH  14  17
ENDBRANCH   1  14
BRANCH   1  30
HETATM   30  C   UNL     1     -44.168  57.868 -57.808  1.00  0.00    -0.019 A 
HETATM   31  C   UNL     1     -44.679  57.403 -59.031  1.00  0.00     0.010 A 
HETATM   32  C   UNL     1     -46.056  57.366 -59.254  1.00  0.00     0.001 A 
HETATM   33  C   UNL     1     -46.936  57.786 -58.260  1.00  0.00     0.000 A 
HETATM   34  C   UNL     1     -46.445  58.247 -57.042  1.00  0.00     0.001 A 
HETATM   35  C   UNL     1     -45.070  58.287 -56.812  1.00  0.00     0.010 A 
ENDBRANCH   1  30
TORSDOF 8
ENDMDL
