MODEL 1
REMARK VINA RESULT:      -7.8      0.000      0.000
REMARK  7 active torsions:
REMARK  status: ('A' for Active; 'I' for Inactive)
REMARK    1  A    between atoms: C_4  and  C_5 
REMARK    2  A    between atoms: C_10  and  C_11 
REMARK       I    between atoms: C_11  and  N_12 
REMARK    3  A    between atoms: N_12  and  C_13 
REMARK    4  A    between atoms: C_13  and  C_14 
REMARK    5  A    between atoms: C_14  and  C_15 
REMARK    6  A    between atoms: C_15  and  N_16 
REMARK    7  A    between atoms: C_26  and  C_27 
ROOT
HETATM    1  C   UNL     1     -42.726  54.030 -51.756  1.00  0.00     0.125 C 
HETATM    2  N   UNL     1     -43.410  55.287 -52.075  1.00  0.00    -0.365 N 
HETATM    3  C   UNL     1     -42.854  56.202 -52.907  1.00  0.00     0.141 A 
HETATM    4  N   UNL     1     -41.724  55.910 -53.627  1.00  0.00    -0.238 N 
HETATM    5  N   UNL     1     -41.273  56.942 -54.363  1.00  0.00    -0.163 NA
HETATM    6  C   UNL     1     -42.202  57.910 -54.180  1.00  0.00     0.165 A 
HETATM    7  C   UNL     1     -43.187  57.486 -53.258  1.00  0.00     0.092 A 
HETATM    8 BR   UNL     1     -44.664  58.468 -52.657  1.00  0.00    -0.044 Br
HETATM    9  C   UNL     1     -41.015  54.642 -53.542  1.00  0.00     0.221 C 
HETATM   10  C   UNL     1     -41.957  53.551 -53.001  1.00  0.00     0.067 C 
HETATM   11  H   UNL     1     -44.120  55.568 -51.397  1.00  0.00     0.162 HD
ENDROOT
BRANCH   6  12
HETATM   12  C   UNL     1     -42.095  59.169 -54.926  1.00  0.00     0.273 C 
HETATM   13  N   UNL     1     -42.204  59.008 -56.293  1.00  0.00    -0.355 N 
HETATM   14  H   UNL     1     -42.280  58.038 -56.609  1.00  0.00     0.162 HD
HETATM   15  O   UNL     1     -41.995  60.290 -54.426  1.00  0.00    -0.266 OA
BRANCH  13  16
HETATM   16  C   UNL     1     -42.073  60.084 -57.243  1.00  0.00     0.124 C 
BRANCH  16  17
HETATM   17  C   UNL     1     -42.317  59.651 -58.687  1.00  0.00     0.047 C 
BRANCH  17  18
HETATM   18  C   UNL     1     -41.992  58.198 -59.040  1.00  0.00     0.236 C 
BRANCH  18  19
HETATM   19  N   UNL     1     -43.203  57.325 -59.233  1.00  0.00    -0.067 N 
HETATM   20  H   UNL     1     -43.631  57.185 -58.293  1.00  0.00     0.280 HD
HETATM   21  C   UNL     1     -44.253  57.886 -60.175  1.00  0.00     0.261 C 
HETATM   22  C   UNL     1     -45.427  56.907 -60.292  1.00  0.00     0.195 C 
HETATM   23  O   UNL     1     -44.983  55.619 -60.731  1.00  0.00    -0.388 OA
HETATM   24  C   UNL     1     -44.058  55.043 -59.802  1.00  0.00     0.195 C 
HETATM   25  C   UNL     1     -42.806  55.915 -59.672  1.00  0.00     0.261 C 
ENDBRANCH  18  19
ENDBRANCH  17  18
ENDBRANCH  16  17
ENDBRANCH  13  16
ENDBRANCH   6  12
BRANCH   9  26
HETATM   26  C   UNL     1     -40.460  54.218 -54.886  1.00  0.00     0.409 C 
HETATM   27  F   UNL     1     -41.358  54.387 -55.884  1.00  0.00    -0.169 F 
HETATM   28  F   UNL     1     -39.333  54.882 -55.224  1.00  0.00    -0.169 F 
HETATM   29  F   UNL     1     -40.137  52.901 -54.865  1.00  0.00    -0.169 F 
ENDBRANCH   9  26
BRANCH   1  30
HETATM   30  C   UNL     1     -41.838  54.080 -50.532  1.00  0.00     0.005 A 
HETATM   31  S   UNL     1     -40.647  52.860 -50.303  1.00  0.00    -0.104 SA
HETATM   32  C   UNL     1     -40.108  53.564 -48.843  1.00  0.00     0.050 A 
HETATM   33  C   UNL     1     -40.821  54.696 -48.521  1.00  0.00     0.008 A 
HETATM   34  C   UNL     1     -41.822  54.991 -49.492  1.00  0.00     0.017 A 
ENDBRANCH   1  30
TORSDOF 7
ENDMDL
MODEL 2
REMARK VINA RESULT:      -7.3      3.606      7.443
REMARK  7 active torsions:
REMARK  status: ('A' for Active; 'I' for Inactive)
REMARK    1  A    between atoms: C_4  and  C_5 
REMARK    2  A    between atoms: C_10  and  C_11 
REMARK       I    between atoms: C_11  and  N_12 
REMARK    3  A    between atoms: N_12  and  C_13 
REMARK    4  A    between atoms: C_13  and  C_14 
REMARK    5  A    between atoms: C_14  and  C_15 
REMARK    6  A    between atoms: C_15  and  N_16 
REMARK    7  A    between atoms: C_26  and  C_27 
ROOT
HETATM    1  C   UNL     1     -43.283  56.534 -59.367  1.00  0.00     0.125 C 
HETATM    2  N   UNL     1     -42.627  57.775 -58.943  1.00  0.00    -0.365 N 
HETATM    3  C   UNL     1     -42.541  58.118 -57.634  1.00  0.00     0.141 A 
HETATM    4  N   UNL     1     -42.893  57.233 -56.647  1.00  0.00    -0.238 N 
HETATM    5  N   UNL     1     -42.798  57.746 -55.407  1.00  0.00    -0.163 NA
HETATM    6  C   UNL     1     -42.276  58.980 -55.597  1.00  0.00     0.165 A 
HETATM    7  C   UNL     1     -42.127  59.249 -56.979  1.00  0.00     0.092 A 
HETATM    8 BR   UNL     1     -41.472  60.822 -57.755  1.00  0.00    -0.044 Br
HETATM    9  C   UNL     1     -43.412  55.898 -56.902  1.00  0.00     0.221 C 
HETATM   10  C   UNL     1     -43.008  55.442 -58.316  1.00  0.00     0.067 C 
HETATM   11  H   UNL     1     -42.560  58.489 -59.670  1.00  0.00     0.162 HD
ENDROOT
BRANCH   6  12
HETATM   12  C   UNL     1     -41.928  59.810 -54.438  1.00  0.00     0.273 C 
HETATM   13  N   UNL     1     -42.956  60.632 -54.024  1.00  0.00    -0.355 N 
HETATM   14  H   UNL     1     -43.795  60.604 -54.609  1.00  0.00     0.162 HD
HETATM   15  O   UNL     1     -40.866  59.759 -53.816  1.00  0.00    -0.266 OA
BRANCH  13  16
HETATM   16  C   UNL     1     -42.842  61.582 -52.945  1.00  0.00     0.124 C 
BRANCH  16  17
HETATM   17  C   UNL     1     -43.355  61.048 -51.610  1.00  0.00     0.047 C 
BRANCH  17  18
HETATM   18  C   UNL     1     -42.321  60.432 -50.665  1.00  0.00     0.236 C 
BRANCH  18  19
HETATM   19  N   UNL     1     -42.439  58.939 -50.512  1.00  0.00    -0.067 N 
HETATM   20  H   UNL     1     -42.689  58.753 -49.517  1.00  0.00     0.280 HD
HETATM   21  C   UNL     1     -43.470  58.283 -51.412  1.00  0.00     0.261 C 
HETATM   22  C   UNL     1     -43.491  56.770 -51.167  1.00  0.00     0.195 C 
HETATM   23  O   UNL     1     -42.195  56.196 -51.373  1.00  0.00    -0.388 OA
HETATM   24  C   UNL     1     -41.233  56.747 -50.467  1.00  0.00     0.195 C 
HETATM   25  C   UNL     1     -41.082  58.255 -50.686  1.00  0.00     0.261 C 
ENDBRANCH  18  19
ENDBRANCH  17  18
ENDBRANCH  16  17
ENDBRANCH  13  16
ENDBRANCH   6  12
BRANCH   9  26
HETATM   26  C   UNL     1     -42.915  54.897 -55.881  1.00  0.00     0.409 C 
HETATM   27  F   UNL     1     -41.567  54.783 -55.893  1.00  0.00    -0.169 F 
HETATM   28  F   UNL     1     -43.295  55.199 -54.620  1.00  0.00    -0.169 F 
HETATM   29  F   UNL     1     -43.417  53.666 -56.148  1.00  0.00    -0.169 F 
ENDBRANCH   9  26
BRANCH   1  30
HETATM   30  C   UNL     1     -44.759  56.664 -59.668  1.00  0.00     0.005 A 
HETATM   31  S   UNL     1     -45.515  55.515 -60.702  1.00  0.00    -0.104 SA
HETATM   32  C   UNL     1     -47.037  56.274 -60.548  1.00  0.00     0.050 A 
HETATM   33  C   UNL     1     -46.980  57.386 -59.740  1.00  0.00     0.008 A 
HETATM   34  C   UNL     1     -45.667  57.615 -59.237  1.00  0.00     0.017 A 
ENDBRANCH   1  30
TORSDOF 7
ENDMDL
MODEL 3
REMARK VINA RESULT:      -7.3      2.756      3.815
REMARK  7 active torsions:
REMARK  status: ('A' for Active; 'I' for Inactive)
REMARK    1  A    between atoms: C_4  and  C_5 
REMARK    2  A    between atoms: C_10  and  C_11 
REMARK       I    between atoms: C_11  and  N_12 
REMARK    3  A    between atoms: N_12  and  C_13 
REMARK    4  A    between atoms: C_13  and  C_14 
REMARK    5  A    between atoms: C_14  and  C_15 
REMARK    6  A    between atoms: C_15  and  N_16 
REMARK    7  A    between atoms: C_26  and  C_27 
ROOT
HETATM    1  C   UNL     1     -43.408  56.504 -51.858  1.00  0.00     0.125 C 
HETATM    2  N   UNL     1     -44.139  56.890 -53.070  1.00  0.00    -0.365 N 
HETATM    3  C   UNL     1     -43.642  56.637 -54.305  1.00  0.00     0.141 A 
HETATM    4  N   UNL     1     -42.534  55.847 -54.474  1.00  0.00    -0.238 N 
HETATM    5  N   UNL     1     -42.142  55.738 -55.756  1.00  0.00    -0.163 NA
HETATM    6  C   UNL     1     -43.089  56.409 -56.451  1.00  0.00     0.165 A 
HETATM    7  C   UNL     1     -44.025  57.002 -55.571  1.00  0.00     0.092 A 
HETATM    8 BR   UNL     1     -45.504  58.050 -56.039  1.00  0.00    -0.044 Br
HETATM    9  C   UNL     1     -41.786  55.254 -53.375  1.00  0.00     0.221 C 
HETATM   10  C   UNL     1     -42.675  55.176 -52.120  1.00  0.00     0.067 C 
HETATM   11  H   UNL     1     -44.829  57.629 -52.931  1.00  0.00     0.162 HD
ENDROOT
BRANCH   6  12
HETATM   12  C   UNL     1     -43.048  56.415 -57.918  1.00  0.00     0.273 C 
HETATM   13  N   UNL     1     -43.872  55.468 -58.494  1.00  0.00    -0.355 N 
HETATM   14  H   UNL     1     -44.350  54.852 -57.832  1.00  0.00     0.162 HD
HETATM   15  O   UNL     1     -42.416  57.212 -58.613  1.00  0.00    -0.266 OA
BRANCH  13  16
HETATM   16  C   UNL     1     -43.962  55.237 -59.913  1.00  0.00     0.124 C 
BRANCH  16  17
HETATM   17  C   UNL     1     -45.371  55.431 -60.471  1.00  0.00     0.047 C 
BRANCH  17  18
HETATM   18  C   UNL     1     -46.195  56.580 -59.887  1.00  0.00     0.236 C 
BRANCH  18  19
HETATM   19  N   UNL     1     -46.153  57.844 -60.703  1.00  0.00    -0.067 N 
HETATM   20  H   UNL     1     -45.798  57.586 -61.649  1.00  0.00     0.280 HD
HETATM   21  C   UNL     1     -47.485  58.556 -60.852  1.00  0.00     0.261 C 
HETATM   22  C   UNL     1     -47.309  59.825 -61.695  1.00  0.00     0.195 C 
HETATM   23  O   UNL     1     -46.328  60.694 -61.119  1.00  0.00    -0.388 OA
HETATM   24  C   UNL     1     -45.045  60.061 -61.056  1.00  0.00     0.195 C 
HETATM   25  C   UNL     1     -45.099  58.814 -60.167  1.00  0.00     0.261 C 
ENDBRANCH  18  19
ENDBRANCH  17  18
ENDBRANCH  16  17
ENDBRANCH  13  16
ENDBRANCH   6  12
BRANCH   9  26
HETATM   26  C   UNL     1     -41.273  53.873 -53.725  1.00  0.00     0.409 C 
HETATM   27  F   UNL     1     -42.164  53.169 -54.461  1.00  0.00    -0.169 F 
HETATM   28  F   UNL     1     -40.105  53.902 -54.404  1.00  0.00    -0.169 F 
HETATM   29  F   UNL     1     -41.042  53.158 -52.596  1.00  0.00    -0.169 F 
ENDBRANCH   9  26
BRANCH   1  30
HETATM   30  C   UNL     1     -42.474  57.562 -51.313  1.00  0.00     0.005 A 
HETATM   31  S   UNL     1     -42.873  59.224 -51.511  1.00  0.00    -0.104 SA
HETATM   32  C   UNL     1     -41.462  59.732 -50.694  1.00  0.00     0.050 A 
HETATM   33  C   UNL     1     -40.690  58.668 -50.288  1.00  0.00     0.008 A 
HETATM   34  C   UNL     1     -41.270  57.417 -50.649  1.00  0.00     0.017 A 
ENDBRANCH   1  30
TORSDOF 7
ENDMDL
MODEL 4
REMARK VINA RESULT:      -7.2      2.765      4.216
REMARK  7 active torsions:
REMARK  status: ('A' for Active; 'I' for Inactive)
REMARK    1  A    between atoms: C_4  and  C_5 
REMARK    2  A    between atoms: C_10  and  C_11 
REMARK       I    between atoms: C_11  and  N_12 
REMARK    3  A    between atoms: N_12  and  C_13 
REMARK    4  A    between atoms: C_13  and  C_14 
REMARK    5  A    between atoms: C_14  and  C_15 
REMARK    6  A    between atoms: C_15  and  N_16 
REMARK    7  A    between atoms: C_26  and  C_27 
ROOT
HETATM    1  C   UNL     1     -43.280  56.338 -51.911  1.00  0.00     0.125 C 
HETATM    2  N   UNL     1     -44.018  56.763 -53.105  1.00  0.00    -0.365 N 
HETATM    3  C   UNL     1     -43.538  56.531 -54.351  1.00  0.00     0.141 A 
HETATM    4  N   UNL     1     -42.445  55.728 -54.550  1.00  0.00    -0.238 N 
HETATM    5  N   UNL     1     -42.068  55.642 -55.839  1.00  0.00    -0.163 NA
HETATM    6  C   UNL     1     -43.012  56.345 -56.508  1.00  0.00     0.165 A 
HETATM    7  C   UNL     1     -43.929  56.931 -55.604  1.00  0.00     0.092 A 
HETATM    8 BR   UNL     1     -45.396  58.013 -56.032  1.00  0.00    -0.044 Br
HETATM    9  C   UNL     1     -41.695  55.098 -53.474  1.00  0.00     0.221 C 
HETATM   10  C   UNL     1     -42.572  55.005 -52.211  1.00  0.00     0.067 C 
HETATM   11  H   UNL     1     -44.695  57.510 -52.942  1.00  0.00     0.162 HD
ENDROOT
BRANCH   6  12
HETATM   12  C   UNL     1     -42.986  56.383 -57.975  1.00  0.00     0.273 C 
HETATM   13  N   UNL     1     -42.097  57.308 -58.484  1.00  0.00    -0.355 N 
HETATM   14  H   UNL     1     -41.623  57.883 -57.783  1.00  0.00     0.162 HD
HETATM   15  O   UNL     1     -43.620  55.635 -58.721  1.00  0.00    -0.266 OA
BRANCH  13  16
HETATM   16  C   UNL     1     -41.932  57.576 -59.890  1.00  0.00     0.124 C 
BRANCH  16  17
HETATM   17  C   UNL     1     -42.800  58.728 -60.394  1.00  0.00     0.047 C 
BRANCH  17  18
HETATM   18  C   UNL     1     -43.193  59.798 -59.373  1.00  0.00     0.236 C 
BRANCH  18  19
HETATM   19  N   UNL     1     -42.340  61.038 -59.422  1.00  0.00    -0.067 N 
HETATM   20  H   UNL     1     -42.985  61.855 -59.363  1.00  0.00     0.280 HD
HETATM   21  C   UNL     1     -41.304  61.146 -58.318  1.00  0.00     0.261 C 
HETATM   22  C   UNL     1     -40.501  62.441 -58.480  1.00  0.00     0.195 C 
HETATM   23  O   UNL     1     -39.881  62.507 -59.769  1.00  0.00    -0.388 OA
HETATM   24  C   UNL     1     -40.858  62.495 -60.816  1.00  0.00     0.195 C 
HETATM   25  C   UNL     1     -41.669  61.195 -60.787  1.00  0.00     0.261 C 
ENDBRANCH  18  19
ENDBRANCH  17  18
ENDBRANCH  16  17
ENDBRANCH  13  16
ENDBRANCH   6  12
BRANCH   9  26
HETATM   26  C   UNL     1     -41.208  53.718 -53.861  1.00  0.00     0.409 C 
HETATM   27  F   UNL     1     -40.899  52.964 -52.781  1.00  0.00    -0.169 F 
HETATM   28  F   UNL     1     -42.104  53.032 -54.604  1.00  0.00    -0.169 F 
HETATM   29  F   UNL     1     -40.082  53.812 -54.612  1.00  0.00    -0.169 F 
ENDBRANCH   9  26
BRANCH   1  30
HETATM   30  C   UNL     1     -42.324  57.369 -51.352  1.00  0.00     0.005 A 
HETATM   31  S   UNL     1     -42.616  59.039 -51.644  1.00  0.00    -0.104 SA
HETATM   32  C   UNL     1     -41.231  59.507 -50.761  1.00  0.00     0.050 A 
HETATM   33  C   UNL     1     -40.547  58.423 -50.261  1.00  0.00     0.008 A 
HETATM   34  C   UNL     1     -41.173  57.190 -50.606  1.00  0.00     0.017 A 
ENDBRANCH   1  30
TORSDOF 7
ENDMDL
MODEL 5
REMARK VINA RESULT:      -7.1      3.521      7.420
REMARK  7 active torsions:
REMARK  status: ('A' for Active; 'I' for Inactive)
REMARK    1  A    between atoms: C_4  and  C_5 
REMARK    2  A    between atoms: C_10  and  C_11 
REMARK       I    between atoms: C_11  and  N_12 
REMARK    3  A    between atoms: N_12  and  C_13 
REMARK    4  A    between atoms: C_13  and  C_14 
REMARK    5  A    between atoms: C_14  and  C_15 
REMARK    6  A    between atoms: C_15  and  N_16 
REMARK    7  A    between atoms: C_26  and  C_27 
ROOT
HETATM    1  C   UNL     1     -42.593  58.885 -56.704  1.00  0.00     0.125 C 
HETATM    2  N   UNL     1     -42.068  59.048 -55.344  1.00  0.00    -0.365 N 
HETATM    3  C   UNL     1     -42.261  58.101 -54.394  1.00  0.00     0.141 A 
HETATM    4  N   UNL     1     -42.787  56.875 -54.713  1.00  0.00    -0.238 N 
HETATM    5  N   UNL     1     -42.962  56.071 -53.649  1.00  0.00    -0.163 NA
HETATM    6  C   UNL     1     -42.442  56.772 -52.615  1.00  0.00     0.165 A 
HETATM    7  C   UNL     1     -42.019  58.053 -53.045  1.00  0.00     0.092 A 
HETATM    8 BR   UNL     1     -41.257  59.399 -51.991  1.00  0.00    -0.044 Br
HETATM    9  C   UNL     1     -43.210  56.499 -56.054  1.00  0.00     0.221 C 
HETATM   10  C   UNL     1     -42.514  57.397 -57.093  1.00  0.00     0.067 C 
HETATM   11  H   UNL     1     -41.870  60.014 -55.079  1.00  0.00     0.162 HD
ENDROOT
BRANCH   6  12
HETATM   12  C   UNL     1     -42.360  56.155 -51.286  1.00  0.00     0.273 C 
HETATM   13  N   UNL     1     -41.065  55.993 -50.835  1.00  0.00    -0.355 N 
HETATM   14  H   UNL     1     -40.338  56.262 -51.503  1.00  0.00     0.162 HD
HETATM   15  O   UNL     1     -43.321  55.863 -50.573  1.00  0.00    -0.266 OA
BRANCH  13  16
HETATM   16  C   UNL     1     -40.722  55.358 -49.588  1.00  0.00     0.124 C 
BRANCH  16  17
HETATM   17  C   UNL     1     -39.818  54.138 -49.757  1.00  0.00     0.047 C 
BRANCH  17  18
HETATM   18  C   UNL     1     -40.449  52.888 -50.375  1.00  0.00     0.236 C 
BRANCH  18  19
HETATM   19  N   UNL     1     -39.970  52.583 -51.769  1.00  0.00    -0.067 N 
HETATM   20  H   UNL     1     -39.125  53.170 -51.937  1.00  0.00     0.280 HD
HETATM   21  C   UNL     1     -39.621  51.128 -52.023  1.00  0.00     0.261 C 
HETATM   22  C   UNL     1     -39.154  50.947 -53.472  1.00  0.00     0.195 C 
HETATM   23  O   UNL     1     -40.151  51.400 -54.395  1.00  0.00    -0.388 OA
HETATM   24  C   UNL     1     -40.423  52.795 -54.222  1.00  0.00     0.195 C 
HETATM   25  C   UNL     1     -40.971  53.071 -52.818  1.00  0.00     0.261 C 
ENDBRANCH  18  19
ENDBRANCH  17  18
ENDBRANCH  16  17
ENDBRANCH  13  16
ENDBRANCH   6  12
BRANCH   9  26
HETATM   26  C   UNL     1     -42.910  55.045 -56.350  1.00  0.00     0.409 C 
HETATM   27  F   UNL     1     -41.588  54.770 -56.268  1.00  0.00    -0.169 F 
HETATM   28  F   UNL     1     -43.563  54.194 -55.529  1.00  0.00    -0.169 F 
HETATM   29  F   UNL     1     -43.299  54.734 -57.612  1.00  0.00    -0.169 F 
ENDBRANCH   9  26
BRANCH   1  30
HETATM   30  C   UNL     1     -43.978  59.450 -56.925  1.00  0.00     0.005 A 
HETATM   31  S   UNL     1     -44.570  60.673 -55.870  1.00  0.00    -0.104 SA
HETATM   32  C   UNL     1     -46.054  60.777 -56.709  1.00  0.00     0.050 A 
HETATM   33  C   UNL     1     -46.113  59.894 -57.763  1.00  0.00     0.008 A 
HETATM   34  C   UNL     1     -44.920  59.125 -57.885  1.00  0.00     0.017 A 
ENDBRANCH   1  30
TORSDOF 7
ENDMDL
MODEL 6
REMARK VINA RESULT:      -7.1      3.345      7.666
REMARK  7 active torsions:
REMARK  status: ('A' for Active; 'I' for Inactive)
REMARK    1  A    between atoms: C_4  and  C_5 
REMARK    2  A    between atoms: C_10  and  C_11 
REMARK       I    between atoms: C_11  and  N_12 
REMARK    3  A    between atoms: N_12  and  C_13 
REMARK    4  A    between atoms: C_13  and  C_14 
REMARK    5  A    between atoms: C_14  and  C_15 
REMARK    6  A    between atoms: C_15  and  N_16 
REMARK    7  A    between atoms: C_26  and  C_27 
ROOT
HETATM    1  C   UNL     1     -43.286  56.502 -59.190  1.00  0.00     0.125 C 
HETATM    2  N   UNL     1     -42.651  57.733 -58.710  1.00  0.00    -0.365 N 
HETATM    3  C   UNL     1     -42.581  58.023 -57.387  1.00  0.00     0.141 A 
HETATM    4  N   UNL     1     -42.931  57.095 -56.441  1.00  0.00    -0.238 N 
HETATM    5  N   UNL     1     -42.855  57.558 -55.180  1.00  0.00    -0.163 NA
HETATM    6  C   UNL     1     -42.347  58.805 -55.315  1.00  0.00     0.165 A 
HETATM    7  C   UNL     1     -42.189  59.132 -56.682  1.00  0.00     0.092 A 
HETATM    8 BR   UNL     1     -41.548  60.744 -57.387  1.00  0.00    -0.044 Br
HETATM    9  C   UNL     1     -43.430  55.765 -56.755  1.00  0.00     0.221 C 
HETATM   10  C   UNL     1     -43.007  55.372 -58.183  1.00  0.00     0.067 C 
HETATM   11  H   UNL     1     -42.586  58.477 -59.406  1.00  0.00     0.162 HD
ENDROOT
BRANCH   6  12
HETATM   12  C   UNL     1     -42.022  59.591 -54.119  1.00  0.00     0.273 C 
HETATM   13  N   UNL     1     -41.296  58.886 -53.180  1.00  0.00    -0.355 N 
HETATM   14  H   UNL     1     -41.135  57.902 -53.408  1.00  0.00     0.162 HD
HETATM   15  O   UNL     1     -42.282  60.784 -53.954  1.00  0.00    -0.266 OA
BRANCH  13  16
HETATM   16  C   UNL     1     -40.906  59.418 -51.898  1.00  0.00     0.124 C 
BRANCH  16  17
HETATM   17  C   UNL     1     -41.068  58.420 -50.753  1.00  0.00     0.047 C 
BRANCH  17  18
HETATM   18  C   UNL     1     -41.788  57.108 -51.072  1.00  0.00     0.236 C 
BRANCH  18  19
HETATM   19  N   UNL     1     -40.987  55.874 -50.755  1.00  0.00    -0.067 N 
HETATM   20  H   UNL     1     -39.981  56.124 -50.875  1.00  0.00     0.280 HD
HETATM   21  C   UNL     1     -41.195  55.316 -49.359  1.00  0.00     0.261 C 
HETATM   22  C   UNL     1     -40.333  54.064 -49.163  1.00  0.00     0.195 C 
HETATM   23  O   UNL     1     -40.625  53.075 -50.156  1.00  0.00    -0.388 OA
HETATM   24  C   UNL     1     -40.346  53.564 -51.473  1.00  0.00     0.195 C 
HETATM   25  C   UNL     1     -41.221  54.779 -51.797  1.00  0.00     0.261 C 
ENDBRANCH  18  19
ENDBRANCH  17  18
ENDBRANCH  16  17
ENDBRANCH  13  16
ENDBRANCH   6  12
BRANCH   9  26
HETATM   26  C   UNL     1     -42.930  54.730 -55.770  1.00  0.00     0.409 C 
HETATM   27  F   UNL     1     -41.580  54.631 -55.775  1.00  0.00    -0.169 F 
HETATM   28  F   UNL     1     -43.324  54.976 -54.502  1.00  0.00    -0.169 F 
HETATM   29  F   UNL     1     -43.415  53.504 -56.091  1.00  0.00    -0.169 F 
ENDBRANCH   9  26
BRANCH   1  30
HETATM   30  C   UNL     1     -44.761  56.626 -59.501  1.00  0.00     0.005 A 
HETATM   31  S   UNL     1     -45.486  55.526 -60.608  1.00  0.00    -0.104 SA
HETATM   32  C   UNL     1     -47.023  56.250 -60.428  1.00  0.00     0.050 A 
HETATM   33  C   UNL     1     -46.993  57.315 -59.557  1.00  0.00     0.008 A 
HETATM   34  C   UNL     1     -45.689  57.535 -59.026  1.00  0.00     0.017 A 
ENDBRANCH   1  30
TORSDOF 7
ENDMDL
MODEL 7
REMARK VINA RESULT:      -7.0      3.941      8.566
REMARK  7 active torsions:
REMARK  status: ('A' for Active; 'I' for Inactive)
REMARK    1  A    between atoms: C_4  and  C_5 
REMARK    2  A    between atoms: C_10  and  C_11 
REMARK       I    between atoms: C_11  and  N_12 
REMARK    3  A    between atoms: N_12  and  C_13 
REMARK    4  A    between atoms: C_13  and  C_14 
REMARK    5  A    between atoms: C_14  and  C_15 
REMARK    6  A    between atoms: C_15  and  N_16 
REMARK    7  A    between atoms: C_26  and  C_27 
ROOT
HETATM    1  C   UNL     1     -44.470  59.363 -59.683  1.00  0.00     0.125 C 
HETATM    2  N   UNL     1     -43.602  59.539 -58.513  1.00  0.00    -0.365 N 
HETATM    3  C   UNL     1     -43.278  58.497 -57.710  1.00  0.00     0.141 A 
HETATM    4  N   UNL     1     -43.591  57.209 -58.062  1.00  0.00    -0.238 N 
HETATM    5  N   UNL     1     -43.247  56.299 -57.133  1.00  0.00    -0.163 NA
HETATM    6  C   UNL     1     -42.603  57.019 -56.186  1.00  0.00     0.165 A 
HETATM    7  C   UNL     1     -42.628  58.397 -56.506  1.00  0.00     0.092 A 
HETATM    8 BR   UNL     1     -41.897  59.800 -55.505  1.00  0.00    -0.044 Br
HETATM    9  C   UNL     1     -44.312  56.853 -59.275  1.00  0.00     0.221 C 
HETATM   10  C   UNL     1     -44.186  57.986 -60.310  1.00  0.00     0.067 C 
HETATM   11  H   UNL     1     -43.552  60.497 -58.163  1.00  0.00     0.162 HD
ENDROOT
BRANCH   6  12
HETATM   12  C   UNL     1     -41.981  56.333 -55.047  1.00  0.00     0.273 C 
HETATM   13  N   UNL     1     -40.993  55.442 -55.417  1.00  0.00    -0.355 N 
HETATM   14  H   UNL     1     -40.867  55.331 -56.426  1.00  0.00     0.162 HD
HETATM   15  O   UNL     1     -42.229  56.549 -53.860  1.00  0.00    -0.266 OA
BRANCH  13  16
HETATM   16  C   UNL     1     -40.277  54.604 -54.488  1.00  0.00     0.124 C 
BRANCH  16  17
HETATM   17  C   UNL     1     -41.022  53.319 -54.132  1.00  0.00     0.047 C 
BRANCH  17  18
HETATM   18  C   UNL     1     -40.657  52.651 -52.804  1.00  0.00     0.236 C 
BRANCH  18  19
HETATM   19  N   UNL     1     -40.814  53.543 -51.603  1.00  0.00    -0.067 N 
HETATM   20  H   UNL     1     -40.210  54.379 -51.762  1.00  0.00     0.280 HD
HETATM   21  C   UNL     1     -42.233  54.004 -51.328  1.00  0.00     0.261 C 
HETATM   22  C   UNL     1     -42.262  54.898 -50.083  1.00  0.00     0.195 C 
HETATM   23  O   UNL     1     -41.717  54.217 -48.947  1.00  0.00    -0.388 OA
HETATM   24  C   UNL     1     -40.348  53.856 -49.163  1.00  0.00     0.195 C 
HETATM   25  C   UNL     1     -40.222  52.896 -50.350  1.00  0.00     0.261 C 
ENDBRANCH  18  19
ENDBRANCH  17  18
ENDBRANCH  16  17
ENDBRANCH  13  16
ENDBRANCH   6  12
BRANCH   9  26
HETATM   26  C   UNL     1     -43.802  55.557 -59.871  1.00  0.00     0.409 C 
HETATM   27  F   UNL     1     -42.452  55.523 -59.938  1.00  0.00    -0.169 F 
HETATM   28  F   UNL     1     -44.212  54.466 -59.188  1.00  0.00    -0.169 F 
HETATM   29  F   UNL     1     -44.264  55.411 -61.138  1.00  0.00    -0.169 F 
ENDBRANCH   9  26
BRANCH   1  30
HETATM   30  C   UNL     1     -45.945  59.566 -59.418  1.00  0.00     0.005 A 
HETATM   31  S   UNL     1     -47.019  59.784 -60.744  1.00  0.00    -0.104 SA
HETATM   32  C   UNL     1     -48.374  59.924 -59.713  1.00  0.00     0.050 A 
HETATM   33  C   UNL     1     -48.026  59.822 -58.386  1.00  0.00     0.008 A 
HETATM   34  C   UNL     1     -46.626  59.621 -58.215  1.00  0.00     0.017 A 
ENDBRANCH   1  30
TORSDOF 7
ENDMDL
MODEL 8
REMARK VINA RESULT:      -6.9      4.522      8.604
REMARK  7 active torsions:
REMARK  status: ('A' for Active; 'I' for Inactive)
REMARK    1  A    between atoms: C_4  and  C_5 
REMARK    2  A    between atoms: C_10  and  C_11 
REMARK       I    between atoms: C_11  and  N_12 
REMARK    3  A    between atoms: N_12  and  C_13 
REMARK    4  A    between atoms: C_13  and  C_14 
REMARK    5  A    between atoms: C_14  and  C_15 
REMARK    6  A    between atoms: C_15  and  N_16 
REMARK    7  A    between atoms: C_26  and  C_27 
ROOT
HETATM    1  C   UNL     1     -44.674  59.417 -59.780  1.00  0.00     0.125 C 
HETATM    2  N   UNL     1     -43.772  59.621 -58.641  1.00  0.00    -0.365 N 
HETATM    3  C   UNL     1     -43.427  58.598 -57.821  1.00  0.00     0.141 A 
HETATM    4  N   UNL     1     -43.754  57.303 -58.130  1.00  0.00    -0.238 N 
HETATM    5  N   UNL     1     -43.384  56.416 -57.188  1.00  0.00    -0.163 NA
HETATM    6  C   UNL     1     -42.711  57.159 -56.279  1.00  0.00     0.165 A 
HETATM    7  C   UNL     1     -42.742  58.529 -56.635  1.00  0.00     0.092 A 
HETATM    8 BR   UNL     1     -41.980  59.954 -55.691  1.00  0.00    -0.044 Br
HETATM    9  C   UNL     1     -44.510  56.917 -59.312  1.00  0.00     0.221 C 
HETATM   10  C   UNL     1     -44.412  58.023 -60.379  1.00  0.00     0.067 C 
HETATM   11  H   UNL     1     -43.709  60.587 -58.318  1.00  0.00     0.162 HD
ENDROOT
BRANCH   6  12
HETATM   12  C   UNL     1     -42.059  56.501 -55.141  1.00  0.00     0.273 C 
HETATM   13  N   UNL     1     -41.039  55.648 -55.512  1.00  0.00    -0.355 N 
HETATM   14  H   UNL     1     -40.913  55.538 -56.522  1.00  0.00     0.162 HD
HETATM   15  O   UNL     1     -42.309  56.711 -53.953  1.00  0.00    -0.266 OA
BRANCH  13  16
HETATM   16  C   UNL     1     -40.287  54.841 -54.584  1.00  0.00     0.124 C 
BRANCH  16  17
HETATM   17  C   UNL     1     -41.119  53.747 -53.919  1.00  0.00     0.047 C 
BRANCH  17  18
HETATM   18  C   UNL     1     -40.614  53.211 -52.577  1.00  0.00     0.236 C 
BRANCH  18  19
HETATM   19  N   UNL     1     -39.853  51.916 -52.679  1.00  0.00    -0.067 N 
HETATM   20  H   UNL     1     -38.852  52.162 -52.833  1.00  0.00     0.280 HD
HETATM   21  C   UNL     1     -39.959  51.013 -51.464  1.00  0.00     0.261 C 
HETATM   22  C   UNL     1     -39.149  49.732 -51.693  1.00  0.00     0.195 C 
HETATM   23  O   UNL     1     -39.584  49.050 -52.874  1.00  0.00    -0.388 OA
HETATM   24  C   UNL     1     -39.405  49.864 -54.039  1.00  0.00     0.195 C 
HETATM   25  C   UNL     1     -40.241  51.144 -53.941  1.00  0.00     0.261 C 
ENDBRANCH  18  19
ENDBRANCH  17  18
ENDBRANCH  16  17
ENDBRANCH  13  16
ENDBRANCH   6  12
BRANCH   9  26
HETATM   26  C   UNL     1     -44.022  55.605 -59.888  1.00  0.00     0.409 C 
HETATM   27  F   UNL     1     -42.672  55.554 -59.968  1.00  0.00    -0.169 F 
HETATM   28  F   UNL     1     -44.437  54.532 -59.180  1.00  0.00    -0.169 F 
HETATM   29  F   UNL     1     -44.497  55.440 -61.147  1.00  0.00    -0.169 F 
ENDBRANCH   9  26
BRANCH   1  30
HETATM   30  C   UNL     1     -46.140  59.632 -59.478  1.00  0.00     0.005 A 
HETATM   31  S   UNL     1     -47.229  59.965 -60.768  1.00  0.00    -0.104 SA
HETATM   32  C   UNL     1     -48.565  60.060 -59.708  1.00  0.00     0.050 A 
HETATM   33  C   UNL     1     -48.199  59.857 -58.398  1.00  0.00     0.008 A 
HETATM   34  C   UNL     1     -46.802  59.615 -58.263  1.00  0.00     0.017 A 
ENDBRANCH   1  30
TORSDOF 7
ENDMDL
MODEL 9
REMARK VINA RESULT:      -6.6      3.588      8.203
REMARK  7 active torsions:
REMARK  status: ('A' for Active; 'I' for Inactive)
REMARK    1  A    between atoms: C_4  and  C_5 
REMARK    2  A    between atoms: C_10  and  C_11 
REMARK       I    between atoms: C_11  and  N_12 
REMARK    3  A    between atoms: N_12  and  C_13 
REMARK    4  A    between atoms: C_13  and  C_14 
REMARK    5  A    between atoms: C_14  and  C_15 
REMARK    6  A    between atoms: C_15  and  N_16 
REMARK    7  A    between atoms: C_26  and  C_27 
ROOT
HETATM    1  C   UNL     1     -44.177  59.429 -59.020  1.00  0.00     0.125 C 
HETATM    2  N   UNL     1     -43.374  59.448 -57.793  1.00  0.00    -0.365 N 
HETATM    3  C   UNL     1     -43.144  58.318 -57.081  1.00  0.00     0.141 A 
HETATM    4  N   UNL     1     -43.491  57.087 -57.576  1.00  0.00    -0.238 N 
HETATM    5  N   UNL     1     -43.242  56.076 -56.724  1.00  0.00    -0.163 NA
HETATM    6  C   UNL     1     -42.625  56.669 -55.676  1.00  0.00     0.165 A 
HETATM    7  C   UNL     1     -42.571  58.071 -55.859  1.00  0.00     0.092 A 
HETATM    8 BR   UNL     1     -41.842  59.333 -54.684  1.00  0.00    -0.044 Br
HETATM    9  C   UNL     1     -44.153  56.886 -58.856  1.00  0.00     0.221 C 
HETATM   10  C   UNL     1     -43.917  58.106 -59.764  1.00  0.00     0.067 C 
HETATM   11  H   UNL     1     -43.303  60.364 -57.347  1.00  0.00     0.162 HD
ENDROOT
BRANCH   6  12
HETATM   12  C   UNL     1     -42.103  55.846 -54.579  1.00  0.00     0.273 C 
HETATM   13  N   UNL     1     -43.089  55.194 -53.865  1.00  0.00    -0.355 N 
HETATM   14  H   UNL     1     -44.046  55.415 -54.150  1.00  0.00     0.162 HD
HETATM   15  O   UNL     1     -40.911  55.664 -54.327  1.00  0.00    -0.266 OA
BRANCH  13  16
HETATM   16  C   UNL     1     -42.835  54.375 -52.707  1.00  0.00     0.124 C 
BRANCH  16  17
HETATM   17  C   UNL     1     -42.943  55.139 -51.388  1.00  0.00     0.047 C 
BRANCH  17  18
HETATM   18  C   UNL     1     -43.750  56.439 -51.404  1.00  0.00     0.236 C 
BRANCH  18  19
HETATM   19  N   UNL     1     -43.008  57.629 -50.858  1.00  0.00    -0.067 N 
HETATM   20  H   UNL     1     -43.194  57.662 -49.833  1.00  0.00     0.280 HD
HETATM   21  C   UNL     1     -41.508  57.611 -51.088  1.00  0.00     0.261 C 
HETATM   22  C   UNL     1     -40.872  58.873 -50.494  1.00  0.00     0.195 C 
HETATM   23  O   UNL     1     -41.458  60.055 -51.049  1.00  0.00    -0.388 OA
HETATM   24  C   UNL     1     -42.859  60.126 -50.760  1.00  0.00     0.195 C 
HETATM   25  C   UNL     1     -43.601  58.939 -51.382  1.00  0.00     0.261 C 
ENDBRANCH  18  19
ENDBRANCH  17  18
ENDBRANCH  16  17
ENDBRANCH  13  16
ENDBRANCH   6  12
BRANCH   9  26
HETATM   26  C   UNL     1     -43.666  55.631 -59.548  1.00  0.00     0.409 C 
HETATM   27  F   UNL     1     -42.316  55.587 -59.635  1.00  0.00    -0.169 F 
HETATM   28  F   UNL     1     -44.080  54.498 -58.939  1.00  0.00    -0.169 F 
HETATM   29  F   UNL     1     -44.144  55.579 -60.817  1.00  0.00    -0.169 F 
ENDBRANCH   9  26
BRANCH   1  30
HETATM   30  C   UNL     1     -45.655  59.677 -58.818  1.00  0.00     0.005 A 
HETATM   31  S   UNL     1     -46.198  60.407 -57.357  1.00  0.00    -0.104 SA
HETATM   32  C   UNL     1     -47.830  60.360 -57.858  1.00  0.00     0.050 A 
HETATM   33  C   UNL     1     -47.971  59.791 -59.103  1.00  0.00     0.008 A 
HETATM   34  C   UNL     1     -46.720  59.393 -59.655  1.00  0.00     0.017 A 
ENDBRANCH   1  30
TORSDOF 7
ENDMDL
MODEL 10
REMARK VINA RESULT:      -6.5     16.696     19.307
REMARK  7 active torsions:
REMARK  status: ('A' for Active; 'I' for Inactive)
REMARK    1  A    between atoms: C_4  and  C_5 
REMARK    2  A    between atoms: C_10  and  C_11 
REMARK       I    between atoms: C_11  and  N_12 
REMARK    3  A    between atoms: N_12  and  C_13 
REMARK    4  A    between atoms: C_13  and  C_14 
REMARK    5  A    between atoms: C_14  and  C_15 
REMARK    6  A    between atoms: C_15  and  N_16 
REMARK    7  A    between atoms: C_26  and  C_27 
ROOT
HETATM    1  C   UNL     1     -36.996  38.305 -58.799  1.00  0.00     0.125 C 
HETATM    2  N   UNL     1     -36.160  37.813 -57.700  1.00  0.00    -0.365 N 
HETATM    3  C   UNL     1     -35.290  38.628 -57.054  1.00  0.00     0.141 A 
HETATM    4  N   UNL     1     -35.293  39.981 -57.274  1.00  0.00    -0.238 N 
HETATM    5  N   UNL     1     -34.336  40.638 -56.594  1.00  0.00    -0.163 NA
HETATM    6  C   UNL     1     -33.752  39.682 -55.835  1.00  0.00     0.165 A 
HETATM    7  C   UNL     1     -34.310  38.413 -56.119  1.00  0.00     0.092 A 
HETATM    8 BR   UNL     1     -33.828  36.774 -55.352  1.00  0.00    -0.044 Br
HETATM    9  C   UNL     1     -36.176  40.647 -58.219  1.00  0.00     0.221 C 
HETATM   10  C   UNL     1     -37.403  39.760 -58.503  1.00  0.00     0.067 C 
HETATM   11  H   UNL     1     -36.025  36.801 -57.690  1.00  0.00     0.162 HD
ENDROOT
BRANCH   6  12
HETATM   12  C   UNL     1     -32.714  40.055 -54.867  1.00  0.00     0.273 C 
HETATM   13  N   UNL     1     -33.127  39.954 -53.554  1.00  0.00    -0.355 N 
HETATM   14  H   UNL     1     -34.109  39.696 -53.428  1.00  0.00     0.162 HD
HETATM   15  O   UNL     1     -31.553  40.361 -55.146  1.00  0.00    -0.266 OA
BRANCH  13  16
HETATM   16  C   UNL     1     -32.311  40.320 -52.424  1.00  0.00     0.124 C 
BRANCH  16  17
HETATM   17  C   UNL     1     -33.120  40.616 -51.162  1.00  0.00     0.047 C 
BRANCH  17  18
HETATM   18  C   UNL     1     -34.186  41.710 -51.263  1.00  0.00     0.236 C 
BRANCH  18  19
HETATM   19  N   UNL     1     -35.597  41.190 -51.316  1.00  0.00    -0.067 N 
HETATM   20  H   UNL     1     -36.135  41.691 -50.576  1.00  0.00     0.280 HD
HETATM   21  C   UNL     1     -36.299  41.375 -52.649  1.00  0.00     0.261 C 
HETATM   22  C   UNL     1     -37.719  40.803 -52.577  1.00  0.00     0.195 C 
HETATM   23  O   UNL     1     -37.701  39.423 -52.198  1.00  0.00    -0.388 OA
HETATM   24  C   UNL     1     -37.120  39.247 -50.901  1.00  0.00     0.195 C 
HETATM   25  C   UNL     1     -35.663  39.722 -50.890  1.00  0.00     0.261 C 
ENDBRANCH  18  19
ENDBRANCH  17  18
ENDBRANCH  16  17
ENDBRANCH  13  16
ENDBRANCH   6  12
BRANCH   9  26
HETATM   26  C   UNL     1     -36.629  41.999 -57.709  1.00  0.00     0.409 C 
HETATM   27  F   UNL     1     -37.471  41.890 -56.656  1.00  0.00    -0.169 F 
HETATM   28  F   UNL     1     -35.601  42.794 -57.339  1.00  0.00    -0.169 F 
HETATM   29  F   UNL     1     -37.299  42.667 -58.681  1.00  0.00    -0.169 F 
ENDBRANCH   9  26
BRANCH   1  30
HETATM   30  C   UNL     1     -36.388  38.162 -60.177  1.00  0.00     0.005 A 
HETATM   31  S   UNL     1     -37.347  38.501 -61.564  1.00  0.00    -0.104 SA
HETATM   32  C   UNL     1     -36.058  38.149 -62.627  1.00  0.00     0.050 A 
HETATM   33  C   UNL     1     -34.922  37.768 -61.952  1.00  0.00     0.008 A 
HETATM   34  C   UNL     1     -35.112  37.770 -60.540  1.00  0.00     0.017 A 
ENDBRANCH   1  30
TORSDOF 7
ENDMDL
