MODEL 1
REMARK VINA RESULT:      -7.0      0.000      0.000
REMARK  7 active torsions:
REMARK  status: ('A' for Active; 'I' for Inactive)
REMARK    1  A    between atoms: O_2  and  C_3 
REMARK    2  A    between atoms: C_4  and  C_5 
REMARK    3  A    between atoms: C_6  and  C_7 
REMARK       I    between atoms: C_7  and  N_8 
REMARK    4  A    between atoms: N_8  and  C_9 
REMARK    5  A    between atoms: C_9  and  C_10 
REMARK    6  A    between atoms: C_10  and  N_11 
REMARK    7  A    between atoms: C_10  and  C_18 
ROOT
HETATM    1  C   UNL     1     -42.440  56.280 -55.290  1.00  0.00     0.241 C 
HETATM    2  N   UNL     1     -41.261  55.574 -55.240  1.00  0.00    -0.355 N 
HETATM    3  O   UNL     1     -43.476  55.874 -54.785  1.00  0.00    -0.269 OA
HETATM    4  H   UNL     1     -40.471  55.934 -55.768  1.00  0.00     0.162 HD
ENDROOT
BRANCH   2   5
HETATM    5  C   UNL     1     -41.259  54.167 -54.857  1.00  0.00     0.163 C 
BRANCH   5   6
HETATM    6  C   UNL     1     -40.699  53.837 -53.450  1.00  0.00     0.262 C 
BRANCH   6   7
HETATM    7  N   UNL     1     -40.450  52.346 -53.197  1.00  0.00    -0.059 N 
HETATM    8  H   UNL     1     -41.397  52.019 -52.954  1.00  0.00     0.280 HD
HETATM    9  C   UNL     1     -40.052  51.513 -54.390  1.00  0.00     0.236 C 
HETATM   10  C   UNL     1     -40.233  50.042 -54.035  1.00  0.00     0.028 C 
HETATM   11  C   UNL     1     -39.422  49.664 -52.798  1.00  0.00     0.003 C 
HETATM   12  C   UNL     1     -39.712  50.597 -51.626  1.00  0.00     0.028 C 
HETATM   13  C   UNL     1     -39.563  52.064 -52.013  1.00  0.00     0.236 C 
ENDBRANCH   6   7
BRANCH   6  14
HETATM   14  C   UNL     1     -41.487  54.464 -52.335  1.00  0.00     0.085 A 
HETATM   15  O   UNL     1     -42.687  53.869 -52.049  1.00  0.00    -0.325 OA
HETATM   16  C   UNL     1     -43.236  54.555 -51.014  1.00  0.00     0.142 A 
HETATM   17  C   UNL     1     -42.405  55.575 -50.620  1.00  0.00     0.027 A 
HETATM   18  C   UNL     1     -41.270  55.512 -51.463  1.00  0.00     0.037 A 
ENDBRANCH   6  14
ENDBRANCH   5   6
ENDBRANCH   2   5
BRANCH   1  19
HETATM   19  C   UNL     1     -42.295  57.589 -55.964  1.00  0.00     0.075 C 
HETATM   20  C   UNL     1     -42.132  58.751 -55.314  1.00  0.00     0.020 C 
BRANCH  20  21
HETATM   21  C   UNL     1     -42.134  58.923 -53.857  1.00  0.00    -0.001 A 
HETATM   22  C   UNL     1     -43.335  59.014 -53.137  1.00  0.00     0.078 A 
HETATM   23  C   UNL     1     -43.323  59.219 -51.755  1.00  0.00     0.039 A 
HETATM   24  C   UNL     1     -42.108  59.285 -51.072  1.00  0.00     0.022 A 
HETATM   25  C   UNL     1     -40.913  59.160 -51.778  1.00  0.00     0.012 A 
HETATM   26  C   UNL     1     -40.918  58.978 -53.161  1.00  0.00     0.033 A 
HETATM   27 BR   UNL     1     -39.264  59.249 -50.856  1.00  0.00    -0.051 Br
BRANCH  22  28
HETATM   28  O   UNL     1     -44.534  58.991 -53.803  1.00  0.00    -0.355 OA
HETATM   29  C   UNL     1     -45.475  59.860 -53.172  1.00  0.00     0.210 C 
ENDBRANCH  22  28
ENDBRANCH  20  21
ENDBRANCH   1  19
TORSDOF 7
ENDMDL
MODEL 2
REMARK VINA RESULT:      -7.0      2.780      7.614
REMARK  7 active torsions:
REMARK  status: ('A' for Active; 'I' for Inactive)
REMARK    1  A    between atoms: O_2  and  C_3 
REMARK    2  A    between atoms: C_4  and  C_5 
REMARK    3  A    between atoms: C_6  and  C_7 
REMARK       I    between atoms: C_7  and  N_8 
REMARK    4  A    between atoms: N_8  and  C_9 
REMARK    5  A    between atoms: C_9  and  C_10 
REMARK    6  A    between atoms: C_10  and  N_11 
REMARK    7  A    between atoms: C_10  and  C_18 
ROOT
HETATM    1  C   UNL     1     -41.508  55.671 -50.232  1.00  0.00     0.241 C 
HETATM    2  N   UNL     1     -41.993  56.954 -50.323  1.00  0.00    -0.355 N 
HETATM    3  O   UNL     1     -40.319  55.419 -50.111  1.00  0.00    -0.269 OA
HETATM    4  H   UNL     1     -42.981  57.074 -50.521  1.00  0.00     0.162 HD
ENDROOT
BRANCH   2   5
HETATM    5  C   UNL     1     -41.088  58.066 -50.591  1.00  0.00     0.163 C 
BRANCH   5   6
HETATM    6  C   UNL     1     -41.719  59.329 -51.231  1.00  0.00     0.262 C 
BRANCH   6   7
HETATM    7  N   UNL     1     -43.029  59.787 -50.579  1.00  0.00    -0.059 N 
HETATM    8  H   UNL     1     -43.011  59.262 -49.693  1.00  0.00     0.280 HD
HETATM    9  C   UNL     1     -43.110  61.235 -50.165  1.00  0.00     0.236 C 
HETATM   10  C   UNL     1     -44.287  61.400 -49.211  1.00  0.00     0.028 C 
HETATM   11  C   UNL     1     -45.592  60.931 -49.850  1.00  0.00     0.003 C 
HETATM   12  C   UNL     1     -45.472  59.515 -50.405  1.00  0.00     0.028 C 
HETATM   13  C   UNL     1     -44.267  59.362 -51.326  1.00  0.00     0.236 C 
ENDBRANCH   6   7
BRANCH   6  14
HETATM   14  C   UNL     1     -41.846  59.238 -52.724  1.00  0.00     0.085 A 
HETATM   15  O   UNL     1     -41.881  60.434 -53.391  1.00  0.00    -0.325 OA
HETATM   16  C   UNL     1     -41.977  60.151 -54.715  1.00  0.00     0.142 A 
HETATM   17  C   UNL     1     -41.991  58.792 -54.915  1.00  0.00     0.027 A 
HETATM   18  C   UNL     1     -41.895  58.199 -53.633  1.00  0.00     0.037 A 
ENDBRANCH   6  14
ENDBRANCH   5   6
ENDBRANCH   2   5
BRANCH   1  19
HETATM   19  C   UNL     1     -42.582  54.651 -50.244  1.00  0.00     0.075 C 
HETATM   20  C   UNL     1     -42.817  53.826 -51.274  1.00  0.00     0.020 C 
BRANCH  20  21
HETATM   21  C   UNL     1     -42.110  53.839 -52.560  1.00  0.00    -0.001 A 
HETATM   22  C   UNL     1     -40.885  53.175 -52.723  1.00  0.00     0.078 A 
HETATM   23  C   UNL     1     -40.202  53.230 -53.941  1.00  0.00     0.039 A 
HETATM   24  C   UNL     1     -40.762  53.909 -55.023  1.00  0.00     0.022 A 
HETATM   25  C   UNL     1     -41.996  54.541 -54.876  1.00  0.00     0.012 A 
HETATM   26  C   UNL     1     -42.672  54.509 -53.656  1.00  0.00     0.033 A 
HETATM   27 BR   UNL     1     -42.759  55.462 -56.340  1.00  0.00    -0.051 Br
BRANCH  22  28
HETATM   28  O   UNL     1     -40.306  52.538 -51.654  1.00  0.00    -0.355 OA
HETATM   29  C   UNL     1     -39.466  51.473 -52.101  1.00  0.00     0.210 C 
ENDBRANCH  22  28
ENDBRANCH  20  21
ENDBRANCH   1  19
TORSDOF 7
ENDMDL
MODEL 3
REMARK VINA RESULT:      -6.9      2.866      6.689
REMARK  7 active torsions:
REMARK  status: ('A' for Active; 'I' for Inactive)
REMARK    1  A    between atoms: O_2  and  C_3 
REMARK    2  A    between atoms: C_4  and  C_5 
REMARK    3  A    between atoms: C_6  and  C_7 
REMARK       I    between atoms: C_7  and  N_8 
REMARK    4  A    between atoms: N_8  and  C_9 
REMARK    5  A    between atoms: C_9  and  C_10 
REMARK    6  A    between atoms: C_10  and  N_11 
REMARK    7  A    between atoms: C_10  and  C_18 
ROOT
HETATM    1  C   UNL     1     -43.065  55.085 -50.492  1.00  0.00     0.241 C 
HETATM    2  N   UNL     1     -43.289  56.431 -50.661  1.00  0.00    -0.355 N 
HETATM    3  O   UNL     1     -43.845  54.230 -50.885  1.00  0.00    -0.269 OA
HETATM    4  H   UNL     1     -42.642  57.077 -50.219  1.00  0.00     0.162 HD
ENDROOT
BRANCH   2   5
HETATM    5  C   UNL     1     -44.611  56.917 -51.037  1.00  0.00     0.163 C 
BRANCH   5   6
HETATM    6  C   UNL     1     -44.658  58.254 -51.819  1.00  0.00     0.262 C 
BRANCH   6   7
HETATM    7  N   UNL     1     -44.365  58.126 -53.319  1.00  0.00    -0.059 N 
HETATM    8  H   UNL     1     -43.342  58.252 -53.338  1.00  0.00     0.280 HD
HETATM    9  C   UNL     1     -44.596  56.772 -53.941  1.00  0.00     0.236 C 
HETATM   10  C   UNL     1     -43.895  56.736 -55.295  1.00  0.00     0.028 C 
HETATM   11  C   UNL     1     -44.388  57.858 -56.206  1.00  0.00     0.003 C 
HETATM   12  C   UNL     1     -44.294  59.220 -55.525  1.00  0.00     0.028 C 
HETATM   13  C   UNL     1     -44.967  59.223 -54.157  1.00  0.00     0.236 C 
ENDBRANCH   6   7
BRANCH   6  14
HETATM   14  C   UNL     1     -43.838  59.341 -51.186  1.00  0.00     0.085 A 
HETATM   15  O   UNL     1     -42.479  59.187 -51.272  1.00  0.00    -0.325 OA
HETATM   16  C   UNL     1     -41.916  60.264 -50.668  1.00  0.00     0.142 A 
HETATM   17  C   UNL     1     -42.888  61.116 -50.204  1.00  0.00     0.027 A 
HETATM   18  C   UNL     1     -44.129  60.530 -50.546  1.00  0.00     0.037 A 
ENDBRANCH   6  14
ENDBRANCH   5   6
ENDBRANCH   2   5
BRANCH   1  19
HETATM   19  C   UNL     1     -41.767  54.797 -49.841  1.00  0.00     0.075 C 
HETATM   20  C   UNL     1     -40.683  54.359 -50.498  1.00  0.00     0.020 C 
BRANCH  20  21
HETATM   21  C   UNL     1     -40.621  54.035 -51.928  1.00  0.00    -0.001 A 
HETATM   22  C   UNL     1     -40.790  55.027 -52.905  1.00  0.00     0.078 A 
HETATM   23  C   UNL     1     -40.770  54.698 -54.264  1.00  0.00     0.039 A 
HETATM   24  C   UNL     1     -40.531  53.381 -54.657  1.00  0.00     0.022 A 
HETATM   25  C   UNL     1     -40.327  52.399 -53.690  1.00  0.00     0.012 A 
HETATM   26  C   UNL     1     -40.369  52.716 -52.331  1.00  0.00     0.033 A 
HETATM   27 BR   UNL     1     -40.003  50.613 -54.219  1.00  0.00    -0.051 Br
BRANCH  22  28
HETATM   28  O   UNL     1     -41.067  56.317 -52.530  1.00  0.00    -0.355 OA
HETATM   29  C   UNL     1     -40.749  57.225 -53.585  1.00  0.00     0.210 C 
ENDBRANCH  22  28
ENDBRANCH  20  21
ENDBRANCH   1  19
TORSDOF 7
ENDMDL
MODEL 4
REMARK VINA RESULT:      -6.8      2.523      7.224
REMARK  7 active torsions:
REMARK  status: ('A' for Active; 'I' for Inactive)
REMARK    1  A    between atoms: O_2  and  C_3 
REMARK    2  A    between atoms: C_4  and  C_5 
REMARK    3  A    between atoms: C_6  and  C_7 
REMARK       I    between atoms: C_7  and  N_8 
REMARK    4  A    between atoms: N_8  and  C_9 
REMARK    5  A    between atoms: C_9  and  C_10 
REMARK    6  A    between atoms: C_10  and  N_11 
REMARK    7  A    between atoms: C_10  and  C_18 
ROOT
HETATM    1  C   UNL     1     -42.675  54.890 -50.201  1.00  0.00     0.241 C 
HETATM    2  N   UNL     1     -42.563  56.233 -50.474  1.00  0.00    -0.355 N 
HETATM    3  O   UNL     1     -43.596  54.204 -50.617  1.00  0.00    -0.269 OA
HETATM    4  H   UNL     1     -41.823  56.750 -50.010  1.00  0.00     0.162 HD
ENDROOT
BRANCH   2   5
HETATM    5  C   UNL     1     -43.698  56.972 -51.012  1.00  0.00     0.163 C 
BRANCH   5   6
HETATM    6  C   UNL     1     -43.371  58.286 -51.767  1.00  0.00     0.262 C 
BRANCH   6   7
HETATM    7  N   UNL     1     -43.878  58.334 -53.213  1.00  0.00    -0.059 N 
HETATM    8  H   UNL     1     -43.067  58.744 -53.700  1.00  0.00     0.280 HD
HETATM    9  C   UNL     1     -44.105  57.009 -53.895  1.00  0.00     0.236 C 
HETATM   10  C   UNL     1     -44.218  57.252 -55.396  1.00  0.00     0.028 C 
HETATM   11  C   UNL     1     -45.336  58.241 -55.717  1.00  0.00     0.003 C 
HETATM   12  C   UNL     1     -45.195  59.532 -54.916  1.00  0.00     0.028 C 
HETATM   13  C   UNL     1     -45.044  59.265 -53.423  1.00  0.00     0.236 C 
ENDBRANCH   6   7
BRANCH   6  14
HETATM   14  C   UNL     1     -41.925  58.679 -51.674  1.00  0.00     0.085 A 
HETATM   15  O   UNL     1     -41.516  59.155 -50.456  1.00  0.00    -0.325 OA
HETATM   16  C   UNL     1     -40.192  59.435 -50.560  1.00  0.00     0.142 A 
HETATM   17  C   UNL     1     -39.736  59.137 -51.821  1.00  0.00     0.027 A 
HETATM   18  C   UNL     1     -40.849  58.637 -52.539  1.00  0.00     0.037 A 
ENDBRANCH   6  14
ENDBRANCH   5   6
ENDBRANCH   2   5
BRANCH   1  19
HETATM   19  C   UNL     1     -41.540  54.371 -49.405  1.00  0.00     0.075 C 
HETATM   20  C   UNL     1     -40.519  53.675 -49.926  1.00  0.00     0.020 C 
BRANCH  20  21
HETATM   21  C   UNL     1     -40.391  53.263 -51.328  1.00  0.00    -0.001 A 
HETATM   22  C   UNL     1     -40.063  51.943 -51.672  1.00  0.00     0.078 A 
HETATM   23  C   UNL     1     -39.904  51.574 -53.010  1.00  0.00     0.039 A 
HETATM   24  C   UNL     1     -40.121  52.511 -54.021  1.00  0.00     0.022 A 
HETATM   25  C   UNL     1     -40.482  53.815 -53.686  1.00  0.00     0.012 A 
HETATM   26  C   UNL     1     -40.620  54.196 -52.350  1.00  0.00     0.033 A 
HETATM   27 BR   UNL     1     -40.777  55.088 -55.052  1.00  0.00    -0.051 Br
BRANCH  22  28
HETATM   28  O   UNL     1     -39.808  51.023 -50.686  1.00  0.00    -0.355 OA
HETATM   29  C   UNL     1     -39.520  49.746 -51.255  1.00  0.00     0.210 C 
ENDBRANCH  22  28
ENDBRANCH  20  21
ENDBRANCH   1  19
TORSDOF 7
ENDMDL
MODEL 5
REMARK VINA RESULT:      -6.7      2.254      6.410
REMARK  7 active torsions:
REMARK  status: ('A' for Active; 'I' for Inactive)
REMARK    1  A    between atoms: O_2  and  C_3 
REMARK    2  A    between atoms: C_4  and  C_5 
REMARK    3  A    between atoms: C_6  and  C_7 
REMARK       I    between atoms: C_7  and  N_8 
REMARK    4  A    between atoms: N_8  and  C_9 
REMARK    5  A    between atoms: C_9  and  C_10 
REMARK    6  A    between atoms: C_10  and  N_11 
REMARK    7  A    between atoms: C_10  and  C_18 
ROOT
HETATM    1  C   UNL     1     -41.634  55.746 -54.870  1.00  0.00     0.241 C 
HETATM    2  N   UNL     1     -42.467  56.809 -54.616  1.00  0.00    -0.355 N 
HETATM    3  O   UNL     1     -40.419  55.817 -54.762  1.00  0.00    -0.269 OA
HETATM    4  H   UNL     1     -43.455  56.697 -54.824  1.00  0.00     0.162 HD
ENDROOT
BRANCH   2   5
HETATM    5  C   UNL     1     -41.928  58.159 -54.506  1.00  0.00     0.163 C 
BRANCH   5   6
HETATM    6  C   UNL     1     -42.248  58.926 -53.198  1.00  0.00     0.262 C 
BRANCH   6   7
HETATM    7  N   UNL     1     -41.021  59.271 -52.345  1.00  0.00    -0.059 N 
HETATM    8  H   UNL     1     -40.904  60.274 -52.552  1.00  0.00     0.280 HD
HETATM    9  C   UNL     1     -41.198  59.207 -50.848  1.00  0.00     0.236 C 
HETATM   10  C   UNL     1     -40.034  59.943 -50.193  1.00  0.00     0.028 C 
HETATM   11  C   UNL     1     -38.692  59.353 -50.620  1.00  0.00     0.003 C 
HETATM   12  C   UNL     1     -38.566  59.278 -52.138  1.00  0.00     0.028 C 
HETATM   13  C   UNL     1     -39.758  58.573 -52.777  1.00  0.00     0.236 C 
ENDBRANCH   6   7
BRANCH   6  14
HETATM   14  C   UNL     1     -43.327  58.279 -52.380  1.00  0.00     0.085 A 
HETATM   15  O   UNL     1     -43.023  57.047 -51.864  1.00  0.00    -0.325 OA
HETATM   16  C   UNL     1     -44.101  56.636 -51.148  1.00  0.00     0.142 A 
HETATM   17  C   UNL     1     -45.090  57.589 -51.181  1.00  0.00     0.027 A 
HETATM   18  C   UNL     1     -44.590  58.655 -51.966  1.00  0.00     0.037 A 
ENDBRANCH   6  14
ENDBRANCH   5   6
ENDBRANCH   2   5
BRANCH   1  19
HETATM   19  C   UNL     1     -42.371  54.513 -55.229  1.00  0.00     0.075 C 
HETATM   20  C   UNL     1     -42.312  53.375 -54.522  1.00  0.00     0.020 C 
BRANCH  20  21
HETATM   21  C   UNL     1     -41.475  53.145 -53.339  1.00  0.00    -0.001 A 
HETATM   22  C   UNL     1     -40.383  52.266 -53.380  1.00  0.00     0.078 A 
HETATM   23  C   UNL     1     -39.619  52.025 -52.235  1.00  0.00     0.039 A 
HETATM   24  C   UNL     1     -39.912  52.699 -51.049  1.00  0.00     0.022 A 
HETATM   25  C   UNL     1     -40.974  53.600 -51.012  1.00  0.00     0.012 A 
HETATM   26  C   UNL     1     -41.755  53.828 -52.146  1.00  0.00     0.033 A 
HETATM   27 BR   UNL     1     -41.374  54.516 -49.407  1.00  0.00    -0.051 Br
BRANCH  22  28
HETATM   28  O   UNL     1     -40.111  51.567 -54.529  1.00  0.00    -0.355 OA
HETATM   29  C   UNL     1     -40.016  50.169 -54.254  1.00  0.00     0.210 C 
ENDBRANCH  22  28
ENDBRANCH  20  21
ENDBRANCH   1  19
TORSDOF 7
ENDMDL
MODEL 6
REMARK VINA RESULT:      -6.7      2.000      2.595
REMARK  7 active torsions:
REMARK  status: ('A' for Active; 'I' for Inactive)
REMARK    1  A    between atoms: O_2  and  C_3 
REMARK    2  A    between atoms: C_4  and  C_5 
REMARK    3  A    between atoms: C_6  and  C_7 
REMARK       I    between atoms: C_7  and  N_8 
REMARK    4  A    between atoms: N_8  and  C_9 
REMARK    5  A    between atoms: C_9  and  C_10 
REMARK    6  A    between atoms: C_10  and  N_11 
REMARK    7  A    between atoms: C_10  and  C_18 
ROOT
HETATM    1  C   UNL     1     -42.543  57.551 -55.104  1.00  0.00     0.241 C 
HETATM    2  N   UNL     1     -41.501  56.752 -54.697  1.00  0.00    -0.355 N 
HETATM    3  O   UNL     1     -43.709  57.191 -55.062  1.00  0.00    -0.269 OA
HETATM    4  H   UNL     1     -40.556  57.088 -54.857  1.00  0.00     0.162 HD
ENDROOT
BRANCH   2   5
HETATM    5  C   UNL     1     -41.706  55.324 -54.487  1.00  0.00     0.163 C 
BRANCH   5   6
HETATM    6  C   UNL     1     -41.349  54.775 -53.082  1.00  0.00     0.262 C 
BRANCH   6   7
HETATM    7  N   UNL     1     -40.858  53.323 -53.070  1.00  0.00    -0.059 N 
HETATM    8  H   UNL     1     -41.730  52.814 -52.867  1.00  0.00     0.280 HD
HETATM    9  C   UNL     1     -40.382  52.759 -54.386  1.00  0.00     0.236 C 
HETATM   10  C   UNL     1     -40.314  51.240 -54.264  1.00  0.00     0.028 C 
HETATM   11  C   UNL     1     -39.403  50.815 -53.115  1.00  0.00     0.003 C 
HETATM   12  C   UNL     1     -39.788  51.499 -51.806  1.00  0.00     0.028 C 
HETATM   13  C   UNL     1     -39.889  53.012 -51.960  1.00  0.00     0.236 C 
ENDBRANCH   6   7
BRANCH   6  14
HETATM   14  C   UNL     1     -42.430  55.002 -52.064  1.00  0.00     0.085 A 
HETATM   15  O   UNL     1     -42.772  56.310 -51.844  1.00  0.00    -0.325 OA
HETATM   16  C   UNL     1     -43.765  56.312 -50.918  1.00  0.00     0.142 A 
HETATM   17  C   UNL     1     -44.078  55.027 -50.547  1.00  0.00     0.027 A 
HETATM   18  C   UNL     1     -43.226  54.178 -51.293  1.00  0.00     0.037 A 
ENDBRANCH   6  14
ENDBRANCH   5   6
ENDBRANCH   2   5
BRANCH   1  19
HETATM   19  C   UNL     1     -42.098  58.894 -55.540  1.00  0.00     0.075 C 
HETATM   20  C   UNL     1     -42.119  59.980 -54.753  1.00  0.00     0.020 C 
BRANCH  20  21
HETATM   21  C   UNL     1     -42.636  60.032 -53.381  1.00  0.00    -0.001 A 
HETATM   22  C   UNL     1     -41.799  59.803 -52.279  1.00  0.00     0.078 A 
HETATM   23  C   UNL     1     -42.314  59.815 -50.979  1.00  0.00     0.039 A 
HETATM   24  C   UNL     1     -43.662  60.106 -50.767  1.00  0.00     0.022 A 
HETATM   25  C   UNL     1     -44.489  60.369 -51.857  1.00  0.00     0.012 A 
HETATM   26  C   UNL     1     -43.987  60.336 -53.158  1.00  0.00     0.033 A 
HETATM   27 BR   UNL     1     -46.317  60.764 -51.574  1.00  0.00    -0.051 Br
BRANCH  22  28
HETATM   28  O   UNL     1     -40.481  59.476 -52.478  1.00  0.00    -0.355 OA
HETATM   29  C   UNL     1     -39.871  59.087 -51.247  1.00  0.00     0.210 C 
ENDBRANCH  22  28
ENDBRANCH  20  21
ENDBRANCH   1  19
TORSDOF 7
ENDMDL
MODEL 7
REMARK VINA RESULT:      -6.6      2.905      5.336
REMARK  7 active torsions:
REMARK  status: ('A' for Active; 'I' for Inactive)
REMARK    1  A    between atoms: O_2  and  C_3 
REMARK    2  A    between atoms: C_4  and  C_5 
REMARK    3  A    between atoms: C_6  and  C_7 
REMARK       I    between atoms: C_7  and  N_8 
REMARK    4  A    between atoms: N_8  and  C_9 
REMARK    5  A    between atoms: C_9  and  C_10 
REMARK    6  A    between atoms: C_10  and  N_11 
REMARK    7  A    between atoms: C_10  and  C_18 
ROOT
HETATM    1  C   UNL     1     -42.247  59.717 -53.952  1.00  0.00     0.241 C 
HETATM    2  N   UNL     1     -43.023  59.233 -54.979  1.00  0.00    -0.355 N 
HETATM    3  O   UNL     1     -41.027  59.724 -53.991  1.00  0.00    -0.269 OA
HETATM    4  H   UNL     1     -44.025  59.172 -54.827  1.00  0.00     0.162 HD
ENDROOT
BRANCH   2   5
HETATM    5  C   UNL     1     -42.427  58.420 -56.033  1.00  0.00     0.163 C 
BRANCH   5   6
HETATM    6  C   UNL     1     -43.078  57.037 -56.288  1.00  0.00     0.262 C 
BRANCH   6   7
HETATM    7  N   UNL     1     -42.316  55.853 -55.682  1.00  0.00    -0.059 N 
HETATM    8  H   UNL     1     -41.923  55.410 -56.525  1.00  0.00     0.280 HD
HETATM    9  C   UNL     1     -41.117  56.184 -54.829  1.00  0.00     0.236 C 
HETATM   10  C   UNL     1     -40.285  54.918 -54.652  1.00  0.00     0.028 C 
HETATM   11  C   UNL     1     -41.111  53.791 -54.036  1.00  0.00     0.003 C 
HETATM   12  C   UNL     1     -42.403  53.549 -54.812  1.00  0.00     0.028 C 
HETATM   13  C   UNL     1     -43.200  54.833 -55.011  1.00  0.00     0.236 C 
ENDBRANCH   6   7
BRANCH   6  14
HETATM   14  C   UNL     1     -43.416  56.797 -57.731  1.00  0.00     0.085 A 
HETATM   15  O   UNL     1     -42.794  55.727 -58.317  1.00  0.00    -0.325 OA
HETATM   16  C   UNL     1     -43.235  55.661 -59.599  1.00  0.00     0.142 A 
HETATM   17  C   UNL     1     -44.141  56.663 -59.847  1.00  0.00     0.027 A 
HETATM   18  C   UNL     1     -44.270  57.391 -58.640  1.00  0.00     0.037 A 
ENDBRANCH   6  14
ENDBRANCH   5   6
ENDBRANCH   2   5
BRANCH   1  19
HETATM   19  C   UNL     1     -43.051  60.268 -52.838  1.00  0.00     0.075 C 
HETATM   20  C   UNL     1     -43.132  59.703 -51.624  1.00  0.00     0.020 C 
BRANCH  20  21
HETATM   21  C   UNL     1     -42.505  58.438 -51.226  1.00  0.00    -0.001 A 
HETATM   22  C   UNL     1     -41.210  58.407 -50.686  1.00  0.00     0.078 A 
HETATM   23  C   UNL     1     -40.609  57.191 -50.349  1.00  0.00     0.039 A 
HETATM   24  C   UNL     1     -41.316  55.998 -50.503  1.00  0.00     0.022 A 
HETATM   25  C   UNL     1     -42.616  56.028 -51.005  1.00  0.00     0.012 A 
HETATM   26  C   UNL     1     -43.214  57.236 -51.365  1.00  0.00     0.033 A 
HETATM   27 BR   UNL     1     -43.578  54.414 -51.215  1.00  0.00    -0.051 Br
BRANCH  22  28
HETATM   28  O   UNL     1     -40.490  59.569 -50.569  1.00  0.00    -0.355 OA
HETATM   29  C   UNL     1     -39.120  59.345 -50.901  1.00  0.00     0.210 C 
ENDBRANCH  22  28
ENDBRANCH  20  21
ENDBRANCH   1  19
TORSDOF 7
ENDMDL
MODEL 8
REMARK VINA RESULT:      -6.5      2.347      7.189
REMARK  7 active torsions:
REMARK  status: ('A' for Active; 'I' for Inactive)
REMARK    1  A    between atoms: O_2  and  C_3 
REMARK    2  A    between atoms: C_4  and  C_5 
REMARK    3  A    between atoms: C_6  and  C_7 
REMARK       I    between atoms: C_7  and  N_8 
REMARK    4  A    between atoms: N_8  and  C_9 
REMARK    5  A    between atoms: C_9  and  C_10 
REMARK    6  A    between atoms: C_10  and  N_11 
REMARK    7  A    between atoms: C_10  and  C_18 
ROOT
HETATM    1  C   UNL     1     -41.662  55.754 -54.650  1.00  0.00     0.241 C 
HETATM    2  N   UNL     1     -42.695  56.517 -54.160  1.00  0.00    -0.355 N 
HETATM    3  O   UNL     1     -40.491  56.092 -54.565  1.00  0.00    -0.269 OA
HETATM    4  H   UNL     1     -43.644  56.213 -54.359  1.00  0.00     0.162 HD
ENDROOT
BRANCH   2   5
HETATM    5  C   UNL     1     -42.472  57.910 -53.793  1.00  0.00     0.163 C 
BRANCH   5   6
HETATM    6  C   UNL     1     -42.779  58.293 -52.323  1.00  0.00     0.262 C 
BRANCH   6   7
HETATM    7  N   UNL     1     -43.996  59.208 -52.143  1.00  0.00    -0.059 N 
HETATM    8  H   UNL     1     -43.561  60.051 -51.740  1.00  0.00     0.280 HD
HETATM    9  C   UNL     1     -44.673  59.690 -53.402  1.00  0.00     0.236 C 
HETATM   10  C   UNL     1     -45.578  60.864 -53.044  1.00  0.00     0.028 C 
HETATM   11  C   UNL     1     -46.600  60.474 -51.978  1.00  0.00     0.003 C 
HETATM   12  C   UNL     1     -45.931  59.847 -50.758  1.00  0.00     0.028 C 
HETATM   13  C   UNL     1     -45.001  58.701 -51.141  1.00  0.00     0.236 C 
ENDBRANCH   6   7
BRANCH   6  14
HETATM   14  C   UNL     1     -41.581  58.815 -51.583  1.00  0.00     0.085 A 
HETATM   15  O   UNL     1     -40.365  58.518 -52.140  1.00  0.00    -0.325 OA
HETATM   16  C   UNL     1     -39.415  59.083 -51.350  1.00  0.00     0.142 A 
HETATM   17  C   UNL     1     -39.999  59.750 -50.300  1.00  0.00     0.027 A 
HETATM   18  C   UNL     1     -41.397  59.589 -50.454  1.00  0.00     0.037 A 
ENDBRANCH   6  14
ENDBRANCH   5   6
ENDBRANCH   2   5
BRANCH   1  19
HETATM   19  C   UNL     1     -42.122  54.473 -55.232  1.00  0.00     0.075 C 
HETATM   20  C   UNL     1     -41.956  53.281 -54.641  1.00  0.00     0.020 C 
BRANCH  20  21
HETATM   21  C   UNL     1     -41.248  53.044 -53.377  1.00  0.00    -0.001 A 
HETATM   22  C   UNL     1     -40.188  52.129 -53.298  1.00  0.00     0.078 A 
HETATM   23  C   UNL     1     -39.550  51.882 -52.079  1.00  0.00     0.039 A 
HETATM   24  C   UNL     1     -39.933  52.587 -50.938  1.00  0.00     0.022 A 
HETATM   25  C   UNL     1     -40.962  53.523 -51.020  1.00  0.00     0.012 A 
HETATM   26  C   UNL     1     -41.620  53.757 -52.228  1.00  0.00     0.033 A 
HETATM   27 BR   UNL     1     -41.486  54.480 -49.475  1.00  0.00    -0.051 Br
BRANCH  22  28
HETATM   28  O   UNL     1     -39.830  51.401 -54.405  1.00  0.00    -0.355 OA
HETATM   29  C   UNL     1     -39.914  50.002 -54.132  1.00  0.00     0.210 C 
ENDBRANCH  22  28
ENDBRANCH  20  21
ENDBRANCH   1  19
TORSDOF 7
ENDMDL
MODEL 9
REMARK VINA RESULT:      -6.4      2.797      4.073
REMARK  7 active torsions:
REMARK  status: ('A' for Active; 'I' for Inactive)
REMARK    1  A    between atoms: O_2  and  C_3 
REMARK    2  A    between atoms: C_4  and  C_5 
REMARK    3  A    between atoms: C_6  and  C_7 
REMARK       I    between atoms: C_7  and  N_8 
REMARK    4  A    between atoms: N_8  and  C_9 
REMARK    5  A    between atoms: C_9  and  C_10 
REMARK    6  A    between atoms: C_10  and  N_11 
REMARK    7  A    between atoms: C_10  and  C_18 
ROOT
HETATM    1  C   UNL     1     -41.668  56.927 -54.145  1.00  0.00     0.241 C 
HETATM    2  N   UNL     1     -41.806  55.608 -54.508  1.00  0.00    -0.355 N 
HETATM    3  O   UNL     1     -40.581  57.448 -53.944  1.00  0.00    -0.269 OA
HETATM    4  H   UNL     1     -42.746  55.227 -54.559  1.00  0.00     0.162 HD
ENDROOT
BRANCH   2   5
HETATM    5  C   UNL     1     -40.687  54.684 -54.367  1.00  0.00     0.163 C 
BRANCH   5   6
HETATM    6  C   UNL     1     -40.474  54.066 -52.962  1.00  0.00     0.262 C 
BRANCH   6   7
HETATM    7  N   UNL     1     -40.038  52.597 -52.970  1.00  0.00    -0.059 N 
HETATM    8  H   UNL     1     -39.028  52.685 -53.155  1.00  0.00     0.280 HD
HETATM    9  C   UNL     1     -40.124  51.857 -51.658  1.00  0.00     0.236 C 
HETATM   10  C   UNL     1     -39.301  50.578 -51.771  1.00  0.00     0.028 C 
HETATM   11  C   UNL     1     -39.779  49.709 -52.931  1.00  0.00     0.003 C 
HETATM   12  C   UNL     1     -39.836  50.494 -54.238  1.00  0.00     0.028 C 
HETATM   13  C   UNL     1     -40.630  51.788 -54.094  1.00  0.00     0.236 C 
ENDBRANCH   6   7
BRANCH   6  14
HETATM   14  C   UNL     1     -41.631  54.295 -52.032  1.00  0.00     0.085 A 
HETATM   15  O   UNL     1     -41.376  55.102 -50.955  1.00  0.00    -0.325 OA
HETATM   16  C   UNL     1     -42.533  55.205 -50.251  1.00  0.00     0.142 A 
HETATM   17  C   UNL     1     -43.532  54.488 -50.862  1.00  0.00     0.027 A 
HETATM   18  C   UNL     1     -42.957  53.909 -52.018  1.00  0.00     0.037 A 
ENDBRANCH   6  14
ENDBRANCH   5   6
ENDBRANCH   2   5
BRANCH   1  19
HETATM   19  C   UNL     1     -42.962  57.642 -54.083  1.00  0.00     0.075 C 
HETATM   20  C   UNL     1     -43.626  58.081 -55.163  1.00  0.00     0.020 C 
BRANCH  20  21
HETATM   21  C   UNL     1     -43.159  57.987 -56.551  1.00  0.00    -0.001 A 
HETATM   22  C   UNL     1     -42.260  58.924 -57.081  1.00  0.00     0.078 A 
HETATM   23  C   UNL     1     -41.856  58.846 -58.417  1.00  0.00     0.039 A 
HETATM   24  C   UNL     1     -42.309  57.800 -59.221  1.00  0.00     0.022 A 
HETATM   25  C   UNL     1     -43.174  56.846 -58.688  1.00  0.00     0.012 A 
HETATM   26  C   UNL     1     -43.599  56.931 -57.362  1.00  0.00     0.033 A 
HETATM   27 BR   UNL     1     -43.789  55.426 -59.774  1.00  0.00    -0.051 Br
BRANCH  22  28
HETATM   28  O   UNL     1     -41.841  59.980 -56.312  1.00  0.00    -0.355 OA
HETATM   29  C   UNL     1     -42.195  61.219 -56.927  1.00  0.00     0.210 C 
ENDBRANCH  22  28
ENDBRANCH  20  21
ENDBRANCH   1  19
TORSDOF 7
ENDMDL
MODEL 10
REMARK VINA RESULT:      -6.4      4.356      6.063
REMARK  7 active torsions:
REMARK  status: ('A' for Active; 'I' for Inactive)
REMARK    1  A    between atoms: O_2  and  C_3 
REMARK    2  A    between atoms: C_4  and  C_5 
REMARK    3  A    between atoms: C_6  and  C_7 
REMARK       I    between atoms: C_7  and  N_8 
REMARK    4  A    between atoms: N_8  and  C_9 
REMARK    5  A    between atoms: C_9  and  C_10 
REMARK    6  A    between atoms: C_10  and  N_11 
REMARK    7  A    between atoms: C_10  and  C_18 
ROOT
HETATM    1  C   UNL     1     -42.816  57.356 -57.854  1.00  0.00     0.241 C 
HETATM    2  N   UNL     1     -42.179  56.245 -57.353  1.00  0.00    -0.355 N 
HETATM    3  O   UNL     1     -43.690  57.949 -57.242  1.00  0.00    -0.269 OA
HETATM    4  H   UNL     1     -41.535  55.752 -57.965  1.00  0.00     0.162 HD
ENDROOT
BRANCH   2   5
HETATM    5  C   UNL     1     -42.729  55.534 -56.205  1.00  0.00     0.163 C 
BRANCH   5   6
HETATM    6  C   UNL     1     -42.014  55.758 -54.848  1.00  0.00     0.262 C 
BRANCH   6   7
HETATM    7  N   UNL     1     -41.509  54.477 -54.175  1.00  0.00    -0.059 N 
HETATM    8  H   UNL     1     -42.371  53.913 -54.136  1.00  0.00     0.280 HD
HETATM    9  C   UNL     1     -40.537  53.635 -54.963  1.00  0.00     0.236 C 
HETATM   10  C   UNL     1     -40.463  52.254 -54.321  1.00  0.00     0.028 C 
HETATM   11  C   UNL     1     -40.056  52.344 -52.852  1.00  0.00     0.003 C 
HETATM   12  C   UNL     1     -40.947  53.311 -52.078  1.00  0.00     0.028 C 
HETATM   13  C   UNL     1     -41.039  54.673 -52.757  1.00  0.00     0.236 C 
ENDBRANCH   6   7
BRANCH   6  14
HETATM   14  C   UNL     1     -42.801  56.611 -53.896  1.00  0.00     0.085 A 
HETATM   15  O   UNL     1     -42.159  57.728 -53.430  1.00  0.00    -0.325 OA
HETATM   16  C   UNL     1     -43.026  58.373 -52.608  1.00  0.00     0.142 A 
HETATM   17  C   UNL     1     -44.221  57.698 -52.546  1.00  0.00     0.027 A 
HETATM   18  C   UNL     1     -44.083  56.567 -53.384  1.00  0.00     0.037 A 
ENDBRANCH   6  14
ENDBRANCH   5   6
ENDBRANCH   2   5
BRANCH   1  19
HETATM   19  C   UNL     1     -42.288  57.773 -59.172  1.00  0.00     0.075 C 
HETATM   20  C   UNL     1     -43.049  57.932 -60.265  1.00  0.00     0.020 C 
BRANCH  20  21
HETATM   21  C   UNL     1     -44.489  57.663 -60.351  1.00  0.00    -0.001 A 
HETATM   22  C   UNL     1     -44.976  56.359 -60.519  1.00  0.00     0.078 A 
HETATM   23  C   UNL     1     -46.348  56.121 -60.641  1.00  0.00     0.039 A 
HETATM   24  C   UNL     1     -47.249  57.182 -60.547  1.00  0.00     0.022 A 
HETATM   25  C   UNL     1     -46.772  58.476 -60.344  1.00  0.00     0.012 A 
HETATM   26  C   UNL     1     -45.402  58.723 -60.245  1.00  0.00     0.033 A 
HETATM   27 BR   UNL     1     -47.989  59.917 -60.215  1.00  0.00    -0.051 Br
BRANCH  22  28
HETATM   28  O   UNL     1     -44.098  55.313 -60.654  1.00  0.00    -0.355 OA
HETATM   29  C   UNL     1     -44.305  54.348 -59.622  1.00  0.00     0.210 C 
ENDBRANCH  22  28
ENDBRANCH  20  21
ENDBRANCH   1  19
TORSDOF 7
ENDMDL
