MODEL 1
REMARK VINA RESULT:      -8.5      0.000      0.000
REMARK  8 active torsions:
REMARK  status: ('A' for Active; 'I' for Inactive)
REMARK    1  A    between atoms: C_2  and  C_3 
REMARK    2  A    between atoms: C_6  and  N_7 
REMARK       I    between atoms: N_7  and  C_8 
REMARK    3  A    between atoms: C_8  and  C_9 
REMARK    4  A    between atoms: C_9  and  S_10 
REMARK    5  A    between atoms: S_10  and  C_11 
REMARK    6  A    between atoms: C_23  and  C_24 
REMARK    7  A    between atoms: C_24  and  C_25 
REMARK       I    between atoms: C_25  and  N_26 
REMARK    8  A    between atoms: N_26  and  C_27 
ROOT
HETATM    1  C   UNL     1     -43.080  59.227 -59.580  1.00  0.00     0.178 C 
HETATM    2  N   UNL     1     -42.842  59.630 -58.276  1.00  0.00    -0.241 N 
HETATM    3  C   UNL     1     -41.910  60.573 -57.988  1.00  0.00     0.147 C 
HETATM    4  N   UNL     1     -41.637  60.789 -56.737  1.00  0.00    -0.256 NA
HETATM    5  C   UNL     1     -41.300  61.286 -59.111  1.00  0.00     0.039 A 
HETATM    6  C   UNL     1     -41.687  60.886 -60.396  1.00  0.00     0.073 A 
HETATM    7  C   UNL     1     -40.427  62.358 -58.908  1.00  0.00     0.018 A 
HETATM    8  C   UNL     1     -39.930  63.049 -60.012  1.00  0.00     0.001 A 
HETATM    9  C   UNL     1     -40.310  62.669 -61.300  1.00  0.00     0.002 A 
HETATM   10  C   UNL     1     -41.184  61.594 -61.489  1.00  0.00     0.032 A 
HETATM   11  C   UNL     1     -43.405  59.228 -57.088  1.00  0.00     0.257 C 
HETATM   12  O   UNL     1     -44.411  58.562 -56.898  1.00  0.00    -0.270 OA
HETATM   13  C   UNL     1     -42.574  59.888 -56.003  1.00  0.00     0.211 C 
HETATM   14  N   UNL     1     -42.551  59.796 -60.618  1.00  0.00    -0.223 NA
ENDROOT
BRANCH   1  15
HETATM   15  S   UNL     1     -44.062  57.813 -59.864  1.00  0.00    -0.082 SA
BRANCH  15  16
HETATM   16  C   UNL     1     -42.833  56.526 -59.537  1.00  0.00     0.185 C 
BRANCH  16  17
HETATM   17  C   UNL     1     -43.128  55.676 -58.307  1.00  0.00     0.231 C 
HETATM   18  N   UNL     1     -42.450  56.049 -57.163  1.00  0.00    -0.327 N 
HETATM   19  H   UNL     1     -41.951  56.936 -57.203  1.00  0.00     0.169 HD
HETATM   20  O   UNL     1     -43.852  54.688 -58.417  1.00  0.00    -0.272 OA
BRANCH  18  21
HETATM   21  C   UNL     1     -42.296  55.317 -55.970  1.00  0.00     0.034 A 
HETATM   22  C   UNL     1     -41.125  54.658 -55.604  1.00  0.00     0.030 A 
HETATM   23  C   UNL     1     -41.006  54.076 -54.336  1.00  0.00     0.010 A 
HETATM   24  C   UNL     1     -42.059  54.132 -53.415  1.00  0.00    -0.055 A 
HETATM   25  C   UNL     1     -43.253  54.747 -53.808  1.00  0.00     0.010 A 
HETATM   26  C   UNL     1     -43.370  55.327 -55.075  1.00  0.00     0.030 A 
BRANCH  24  27
HETATM   27  C   UNL     1     -41.911  53.610 -51.997  1.00  0.00     0.010 C 
HETATM   28  C   UNL     1     -43.037  54.155 -51.113  1.00  0.00     0.015 C 
HETATM   29  C   UNL     1     -40.543  53.918 -51.385  1.00  0.00     0.015 C 
ENDBRANCH  24  27
ENDBRANCH  18  21
ENDBRANCH  16  17
ENDBRANCH  15  16
ENDBRANCH   1  15
BRANCH  13  30
HETATM   30  C   UNL     1     -43.403  60.719 -55.035  1.00  0.00     0.140 C 
BRANCH  30  31
HETATM   31  C   UNL     1     -43.826  60.011 -53.757  1.00  0.00     0.220 C 
HETATM   32  N   UNL     1     -42.915  60.018 -52.728  1.00  0.00    -0.356 N 
HETATM   33  H   UNL     1     -42.353  60.862 -52.673  1.00  0.00     0.162 HD
HETATM   34  O   UNL     1     -44.921  59.459 -53.689  1.00  0.00    -0.274 OA
BRANCH  32  35
HETATM   35  C   UNL     1     -43.098  59.319 -51.454  1.00  0.00     0.084 C 
HETATM   36  C   UNL     1     -42.812  57.807 -51.519  1.00  0.00     0.025 C 
HETATM   37  C   UNL     1     -41.347  57.507 -51.828  1.00  0.00     0.002 C 
HETATM   38  C   UNL     1     -40.415  58.174 -50.822  1.00  0.00     0.000 C 
HETATM   39  C   UNL     1     -40.693  59.669 -50.686  1.00  0.00     0.002 C 
HETATM   40  C   UNL     1     -42.172  59.954 -50.401  1.00  0.00     0.025 C 
ENDBRANCH  32  35
ENDBRANCH  30  31
ENDBRANCH  13  30
TORSDOF 8
ENDMDL
MODEL 2
REMARK VINA RESULT:      -8.5      2.888      5.715
REMARK  8 active torsions:
REMARK  status: ('A' for Active; 'I' for Inactive)
REMARK    1  A    between atoms: C_2  and  C_3 
REMARK    2  A    between atoms: C_6  and  N_7 
REMARK       I    between atoms: N_7  and  C_8 
REMARK    3  A    between atoms: C_8  and  C_9 
REMARK    4  A    between atoms: C_9  and  S_10 
REMARK    5  A    between atoms: S_10  and  C_11 
REMARK    6  A    between atoms: C_23  and  C_24 
REMARK    7  A    between atoms: C_24  and  C_25 
REMARK       I    between atoms: C_25  and  N_26 
REMARK    8  A    between atoms: N_26  and  C_27 
ROOT
HETATM    1  C   UNL     1     -43.988  58.030 -55.520  1.00  0.00     0.178 C 
HETATM    2  N   UNL     1     -43.888  59.282 -56.105  1.00  0.00    -0.241 N 
HETATM    3  C   UNL     1     -43.375  59.440 -57.351  1.00  0.00     0.147 C 
HETATM    4  N   UNL     1     -43.174  60.653 -57.771  1.00  0.00    -0.256 NA
HETATM    5  C   UNL     1     -43.105  58.231 -58.129  1.00  0.00     0.039 A 
HETATM    6  C   UNL     1     -43.343  57.006 -57.494  1.00  0.00     0.073 A 
HETATM    7  C   UNL     1     -42.696  58.298 -59.464  1.00  0.00     0.018 A 
HETATM    8  C   UNL     1     -42.522  57.116 -60.182  1.00  0.00     0.001 A 
HETATM    9  C   UNL     1     -42.760  55.886 -59.567  1.00  0.00     0.002 A 
HETATM   10  C   UNL     1     -43.168  55.834 -58.231  1.00  0.00     0.032 A 
HETATM   11  C   UNL     1     -44.232  60.529 -55.637  1.00  0.00     0.257 C 
HETATM   12  O   UNL     1     -44.907  60.828 -54.665  1.00  0.00    -0.270 OA
HETATM   13  C   UNL     1     -43.685  61.508 -56.659  1.00  0.00     0.211 C 
HETATM   14  N   UNL     1     -43.736  56.921 -56.144  1.00  0.00    -0.223 NA
ENDROOT
BRANCH   1  15
HETATM   15  S   UNL     1     -44.370  57.916 -53.822  1.00  0.00    -0.082 SA
BRANCH  15  16
HETATM   16  C   UNL     1     -42.773  58.401 -53.123  1.00  0.00     0.185 C 
BRANCH  16  17
HETATM   17  C   UNL     1     -41.675  57.358 -53.287  1.00  0.00     0.231 C 
HETATM   18  N   UNL     1     -42.120  56.061 -53.444  1.00  0.00    -0.327 N 
HETATM   19  H   UNL     1     -43.120  55.942 -53.596  1.00  0.00     0.169 HD
HETATM   20  O   UNL     1     -40.498  57.701 -53.180  1.00  0.00    -0.272 OA
BRANCH  18  21
HETATM   21  C   UNL     1     -41.373  54.871 -53.342  1.00  0.00     0.034 A 
HETATM   22  C   UNL     1     -41.130  54.203 -52.144  1.00  0.00     0.030 A 
HETATM   23  C   UNL     1     -40.504  52.951 -52.146  1.00  0.00     0.010 A 
HETATM   24  C   UNL     1     -40.100  52.347 -53.344  1.00  0.00    -0.055 A 
HETATM   25  C   UNL     1     -40.297  53.048 -54.538  1.00  0.00     0.010 A 
HETATM   26  C   UNL     1     -40.922  54.298 -54.535  1.00  0.00     0.030 A 
BRANCH  24  27
HETATM   27  C   UNL     1     -39.526  50.942 -53.378  1.00  0.00     0.010 C 
HETATM   28  C   UNL     1     -40.280  50.089 -54.403  1.00  0.00     0.015 C 
HETATM   29  C   UNL     1     -39.519  50.264 -52.007  1.00  0.00     0.015 C 
ENDBRANCH  24  27
ENDBRANCH  18  21
ENDBRANCH  16  17
ENDBRANCH  15  16
ENDBRANCH   1  15
BRANCH  13  30
HETATM   30  C   UNL     1     -44.744  62.453 -57.209  1.00  0.00     0.140 C 
BRANCH  30  31
HETATM   31  C   UNL     1     -46.098  61.825 -57.501  1.00  0.00     0.220 C 
HETATM   32  N   UNL     1     -46.136  60.914 -58.529  1.00  0.00    -0.356 N 
HETATM   33  H   UNL     1     -45.293  60.358 -58.626  1.00  0.00     0.162 HD
HETATM   34  O   UNL     1     -47.085  62.151 -56.846  1.00  0.00    -0.274 OA
BRANCH  32  35
HETATM   35  C   UNL     1     -47.357  60.269 -59.019  1.00  0.00     0.084 C 
HETATM   36  C   UNL     1     -47.189  59.545 -60.367  1.00  0.00     0.025 C 
HETATM   37  C   UNL     1     -46.230  58.360 -60.274  1.00  0.00     0.002 C 
HETATM   38  C   UNL     1     -46.666  57.371 -59.198  1.00  0.00     0.000 C 
HETATM   39  C   UNL     1     -46.893  58.052 -57.850  1.00  0.00     0.002 C 
HETATM   40  C   UNL     1     -47.838  59.253 -57.967  1.00  0.00     0.025 C 
ENDBRANCH  32  35
ENDBRANCH  30  31
ENDBRANCH  13  30
TORSDOF 8
ENDMDL
MODEL 3
REMARK VINA RESULT:      -8.5      2.603      8.591
REMARK  8 active torsions:
REMARK  status: ('A' for Active; 'I' for Inactive)
REMARK    1  A    between atoms: C_2  and  C_3 
REMARK    2  A    between atoms: C_6  and  N_7 
REMARK       I    between atoms: N_7  and  C_8 
REMARK    3  A    between atoms: C_8  and  C_9 
REMARK    4  A    between atoms: C_9  and  S_10 
REMARK    5  A    between atoms: S_10  and  C_11 
REMARK    6  A    between atoms: C_23  and  C_24 
REMARK    7  A    between atoms: C_24  and  C_25 
REMARK       I    between atoms: C_25  and  N_26 
REMARK    8  A    between atoms: N_26  and  C_27 
ROOT
HETATM    1  C   UNL     1     -42.501  55.613 -52.393  1.00  0.00     0.178 C 
HETATM    2  N   UNL     1     -42.327  55.440 -53.756  1.00  0.00    -0.241 N 
HETATM    3  C   UNL     1     -41.454  54.524 -54.246  1.00  0.00     0.147 C 
HETATM    4  N   UNL     1     -41.235  54.524 -55.526  1.00  0.00    -0.256 NA
HETATM    5  C   UNL     1     -40.844  53.596 -53.294  1.00  0.00     0.039 A 
HETATM    6  C   UNL     1     -41.167  53.775 -51.943  1.00  0.00     0.073 A 
HETATM    7  C   UNL     1     -40.034  52.540 -53.721  1.00  0.00     0.018 A 
HETATM    8  C   UNL     1     -39.535  51.642 -52.779  1.00  0.00     0.001 A 
HETATM    9  C   UNL     1     -39.851  51.801 -51.429  1.00  0.00     0.002 A 
HETATM   10  C   UNL     1     -40.663  52.862 -51.016  1.00  0.00     0.032 A 
HETATM   11  C   UNL     1     -42.910  56.072 -54.830  1.00  0.00     0.257 C 
HETATM   12  O   UNL     1     -43.886  56.805 -54.855  1.00  0.00    -0.270 OA
HETATM   13  C   UNL     1     -42.150  55.582 -56.048  1.00  0.00     0.211 C 
HETATM   14  N   UNL     1     -41.966  54.845 -51.495  1.00  0.00    -0.223 NA
ENDROOT
BRANCH   1  15
HETATM   15  S   UNL     1     -43.400  56.995 -51.821  1.00  0.00    -0.082 SA
BRANCH  15  16
HETATM   16  C   UNL     1     -42.025  58.099 -51.417  1.00  0.00     0.185 C 
BRANCH  16  17
HETATM   17  C   UNL     1     -41.736  59.154 -52.478  1.00  0.00     0.231 C 
HETATM   18  N   UNL     1     -42.806  59.472 -53.291  1.00  0.00    -0.327 N 
HETATM   19  H   UNL     1     -43.712  59.102 -53.011  1.00  0.00     0.169 HD
HETATM   20  O   UNL     1     -40.589  59.579 -52.608  1.00  0.00    -0.272 OA
BRANCH  18  21
HETATM   21  C   UNL     1     -42.788  60.183 -54.507  1.00  0.00     0.034 A 
HETATM   22  C   UNL     1     -43.393  61.423 -54.695  1.00  0.00     0.030 A 
HETATM   23  C   UNL     1     -43.206  62.129 -55.889  1.00  0.00     0.010 A 
HETATM   24  C   UNL     1     -42.419  61.604 -56.923  1.00  0.00    -0.055 A 
HETATM   25  C   UNL     1     -41.860  60.333 -56.750  1.00  0.00     0.010 A 
HETATM   26  C   UNL     1     -42.048  59.629 -55.557  1.00  0.00     0.030 A 
BRANCH  24  27
HETATM   27  C   UNL     1     -42.109  62.401 -58.177  1.00  0.00     0.010 C 
HETATM   28  C   UNL     1     -43.348  62.476 -59.074  1.00  0.00     0.015 C 
HETATM   29  C   UNL     1     -40.909  61.853 -58.953  1.00  0.00     0.015 C 
ENDBRANCH  24  27
ENDBRANCH  18  21
ENDBRANCH  16  17
ENDBRANCH  15  16
ENDBRANCH   1  15
BRANCH  13  30
HETATM   30  C   UNL     1     -43.052  54.974 -57.113  1.00  0.00     0.140 C 
BRANCH  30  31
HETATM   31  C   UNL     1     -43.442  55.904 -58.252  1.00  0.00     0.220 C 
HETATM   32  N   UNL     1     -44.582  56.647 -58.067  1.00  0.00    -0.356 N 
HETATM   33  H   UNL     1     -44.743  56.934 -57.107  1.00  0.00     0.162 HD
HETATM   34  O   UNL     1     -42.760  55.949 -59.273  1.00  0.00    -0.274 OA
BRANCH  32  35
HETATM   35  C   UNL     1     -45.169  57.530 -59.078  1.00  0.00     0.084 C 
HETATM   36  C   UNL     1     -46.708  57.522 -59.104  1.00  0.00     0.025 C 
HETATM   37  C   UNL     1     -47.314  58.080 -57.818  1.00  0.00     0.002 C 
HETATM   38  C   UNL     1     -46.802  59.486 -57.524  1.00  0.00     0.000 C 
HETATM   39  C   UNL     1     -45.277  59.555 -57.535  1.00  0.00     0.002 C 
HETATM   40  C   UNL     1     -44.685  58.969 -58.821  1.00  0.00     0.025 C 
ENDBRANCH  32  35
ENDBRANCH  30  31
ENDBRANCH  13  30
TORSDOF 8
ENDMDL
MODEL 4
REMARK VINA RESULT:      -8.1      2.773      5.942
REMARK  8 active torsions:
REMARK  status: ('A' for Active; 'I' for Inactive)
REMARK    1  A    between atoms: C_2  and  C_3 
REMARK    2  A    between atoms: C_6  and  N_7 
REMARK       I    between atoms: N_7  and  C_8 
REMARK    3  A    between atoms: C_8  and  C_9 
REMARK    4  A    between atoms: C_9  and  S_10 
REMARK    5  A    between atoms: S_10  and  C_11 
REMARK    6  A    between atoms: C_23  and  C_24 
REMARK    7  A    between atoms: C_24  and  C_25 
REMARK       I    between atoms: C_25  and  N_26 
REMARK    8  A    between atoms: N_26  and  C_27 
ROOT
HETATM    1  C   UNL     1     -42.241  58.557 -56.186  1.00  0.00     0.178 C 
HETATM    2  N   UNL     1     -42.233  59.425 -57.266  1.00  0.00    -0.241 N 
HETATM    3  C   UNL     1     -42.393  58.974 -58.536  1.00  0.00     0.147 C 
HETATM    4  N   UNL     1     -42.224  59.824 -59.504  1.00  0.00    -0.256 NA
HETATM    5  C   UNL     1     -42.763  57.569 -58.712  1.00  0.00     0.039 A 
HETATM    6  C   UNL     1     -42.858  56.792 -57.552  1.00  0.00     0.073 A 
HETATM    7  C   UNL     1     -43.072  57.049 -59.972  1.00  0.00     0.018 A 
HETATM    8  C   UNL     1     -43.488  55.722 -60.076  1.00  0.00     0.001 A 
HETATM    9  C   UNL     1     -43.595  54.934 -58.929  1.00  0.00     0.002 A 
HETATM   10  C   UNL     1     -43.281  55.468 -57.676  1.00  0.00     0.032 A 
HETATM   11  C   UNL     1     -42.074  60.790 -57.328  1.00  0.00     0.257 C 
HETATM   12  O   UNL     1     -42.109  61.611 -56.426  1.00  0.00    -0.270 OA
HETATM   13  C   UNL     1     -41.953  61.115 -58.805  1.00  0.00     0.211 C 
HETATM   14  N   UNL     1     -42.531  57.296 -56.278  1.00  0.00    -0.223 NA
ENDROOT
BRANCH   1  15
HETATM   15  S   UNL     1     -41.735  59.143 -54.624  1.00  0.00    -0.082 SA
BRANCH  15  16
HETATM   16  C   UNL     1     -43.060  58.454 -53.603  1.00  0.00     0.185 C 
BRANCH  16  17
HETATM   17  C   UNL     1     -42.900  56.973 -53.285  1.00  0.00     0.231 C 
HETATM   18  N   UNL     1     -41.624  56.474 -53.452  1.00  0.00    -0.327 N 
HETATM   19  H   UNL     1     -40.888  57.160 -53.610  1.00  0.00     0.169 HD
HETATM   20  O   UNL     1     -43.895  56.308 -53.001  1.00  0.00    -0.272 OA
BRANCH  18  21
HETATM   21  C   UNL     1     -41.221  55.125 -53.508  1.00  0.00     0.034 A 
HETATM   22  C   UNL     1     -40.890  54.459 -54.685  1.00  0.00     0.030 A 
HETATM   23  C   UNL     1     -40.360  53.163 -54.640  1.00  0.00     0.010 A 
HETATM   24  C   UNL     1     -40.162  52.506 -53.419  1.00  0.00    -0.055 A 
HETATM   25  C   UNL     1     -40.549  53.160 -52.244  1.00  0.00     0.010 A 
HETATM   26  C   UNL     1     -41.078  54.453 -52.291  1.00  0.00     0.030 A 
BRANCH  24  27
HETATM   27  C   UNL     1     -39.484  51.151 -53.340  1.00  0.00     0.010 C 
HETATM   28  C   UNL     1     -40.127  50.180 -54.335  1.00  0.00     0.015 C 
HETATM   29  C   UNL     1     -39.486  50.561 -51.928  1.00  0.00     0.015 C 
ENDBRANCH  24  27
ENDBRANCH  18  21
ENDBRANCH  16  17
ENDBRANCH  15  16
ENDBRANCH   1  15
BRANCH  13  30
HETATM   30  C   UNL     1     -42.963  62.152 -59.276  1.00  0.00     0.140 C 
BRANCH  30  31
HETATM   31  C   UNL     1     -44.110  61.617 -60.119  1.00  0.00     0.220 C 
HETATM   32  N   UNL     1     -45.102  60.950 -59.442  1.00  0.00    -0.356 N 
HETATM   33  H   UNL     1     -45.288  61.310 -58.511  1.00  0.00     0.162 HD
HETATM   34  O   UNL     1     -44.108  61.776 -61.337  1.00  0.00    -0.274 OA
BRANCH  32  35
HETATM   35  C   UNL     1     -46.241  60.288 -60.083  1.00  0.00     0.084 C 
HETATM   36  C   UNL     1     -46.204  58.751 -60.000  1.00  0.00     0.025 C 
HETATM   37  C   UNL     1     -46.320  58.243 -58.564  1.00  0.00     0.002 C 
HETATM   38  C   UNL     1     -47.577  58.775 -57.884  1.00  0.00     0.000 C 
HETATM   39  C   UNL     1     -47.683  60.295 -57.982  1.00  0.00     0.002 C 
HETATM   40  C   UNL     1     -47.540  60.788 -59.426  1.00  0.00     0.025 C 
ENDBRANCH  32  35
ENDBRANCH  30  31
ENDBRANCH  13  30
TORSDOF 8
ENDMDL
MODEL 5
REMARK VINA RESULT:      -8.0      2.641      6.185
REMARK  8 active torsions:
REMARK  status: ('A' for Active; 'I' for Inactive)
REMARK    1  A    between atoms: C_2  and  C_3 
REMARK    2  A    between atoms: C_6  and  N_7 
REMARK       I    between atoms: N_7  and  C_8 
REMARK    3  A    between atoms: C_8  and  C_9 
REMARK    4  A    between atoms: C_9  and  S_10 
REMARK    5  A    between atoms: S_10  and  C_11 
REMARK    6  A    between atoms: C_23  and  C_24 
REMARK    7  A    between atoms: C_24  and  C_25 
REMARK       I    between atoms: C_25  and  N_26 
REMARK    8  A    between atoms: N_26  and  C_27 
ROOT
HETATM    1  C   UNL     1     -43.998  57.778 -55.469  1.00  0.00     0.178 C 
HETATM    2  N   UNL     1     -43.487  59.005 -55.861  1.00  0.00    -0.241 N 
HETATM    3  C   UNL     1     -42.761  59.138 -56.999  1.00  0.00     0.147 C 
HETATM    4  N   UNL     1     -42.191  60.283 -57.222  1.00  0.00    -0.256 NA
HETATM    5  C   UNL     1     -42.696  57.983 -57.897  1.00  0.00     0.039 A 
HETATM    6  C   UNL     1     -43.339  56.816 -57.470  1.00  0.00     0.073 A 
HETATM    7  C   UNL     1     -42.080  58.066 -59.148  1.00  0.00     0.018 A 
HETATM    8  C   UNL     1     -42.108  56.958 -59.995  1.00  0.00     0.001 A 
HETATM    9  C   UNL     1     -42.750  55.789 -59.588  1.00  0.00     0.002 A 
HETATM   10  C   UNL     1     -43.362  55.719 -58.333  1.00  0.00     0.032 A 
HETATM   11  C   UNL     1     -43.564  60.246 -55.272  1.00  0.00     0.257 C 
HETATM   12  O   UNL     1     -44.283  60.623 -54.360  1.00  0.00    -0.270 OA
HETATM   13  C   UNL     1     -42.630  61.132 -56.075  1.00  0.00     0.211 C 
HETATM   14  N   UNL     1     -43.948  56.711 -56.204  1.00  0.00    -0.223 NA
ENDROOT
BRANCH   1  15
HETATM   15  S   UNL     1     -44.658  57.607 -53.864  1.00  0.00    -0.082 SA
BRANCH  15  16
HETATM   16  C   UNL     1     -43.120  57.577 -52.911  1.00  0.00     0.185 C 
BRANCH  16  17
HETATM   17  C   UNL     1     -42.657  56.180 -52.514  1.00  0.00     0.231 C 
HETATM   18  N   UNL     1     -41.382  55.848 -52.926  1.00  0.00    -0.327 N 
HETATM   19  H   UNL     1     -40.818  56.606 -53.307  1.00  0.00     0.169 HD
HETATM   20  O   UNL     1     -43.446  55.421 -51.953  1.00  0.00    -0.272 OA
BRANCH  18  21
HETATM   21  C   UNL     1     -40.787  54.572 -52.958  1.00  0.00     0.034 A 
HETATM   22  C   UNL     1     -40.443  53.843 -51.822  1.00  0.00     0.030 A 
HETATM   23  C   UNL     1     -39.990  52.523 -51.937  1.00  0.00     0.010 A 
HETATM   24  C   UNL     1     -39.863  51.911 -53.190  1.00  0.00    -0.055 A 
HETATM   25  C   UNL     1     -40.156  52.667 -54.331  1.00  0.00     0.010 A 
HETATM   26  C   UNL     1     -40.608  53.985 -54.214  1.00  0.00     0.030 A 
BRANCH  24  27
HETATM   27  C   UNL     1     -39.485  50.447 -53.332  1.00  0.00     0.010 C 
HETATM   28  C   UNL     1     -40.254  49.814 -54.495  1.00  0.00     0.015 C 
HETATM   29  C   UNL     1     -39.694  49.648 -52.043  1.00  0.00     0.015 C 
ENDBRANCH  24  27
ENDBRANCH  18  21
ENDBRANCH  16  17
ENDBRANCH  15  16
ENDBRANCH   1  15
BRANCH  13  30
HETATM   30  C   UNL     1     -43.308  62.382 -56.617  1.00  0.00     0.140 C 
BRANCH  30  31
HETATM   31  C   UNL     1     -42.586  63.077 -57.762  1.00  0.00     0.220 C 
HETATM   32  N   UNL     1     -42.880  62.627 -59.027  1.00  0.00    -0.356 N 
HETATM   33  H   UNL     1     -43.841  62.322 -59.149  1.00  0.00     0.162 HD
HETATM   34  O   UNL     1     -41.779  63.974 -57.531  1.00  0.00    -0.274 OA
BRANCH  32  35
HETATM   35  C   UNL     1     -42.227  63.105 -60.248  1.00  0.00     0.084 C 
HETATM   36  C   UNL     1     -41.151  62.153 -60.800  1.00  0.00     0.025 C 
HETATM   37  C   UNL     1     -41.736  60.821 -61.264  1.00  0.00     0.002 C 
HETATM   38  C   UNL     1     -42.836  61.024 -62.300  1.00  0.00     0.000 C 
HETATM   39  C   UNL     1     -43.906  62.000 -61.816  1.00  0.00     0.002 C 
HETATM   40  C   UNL     1     -43.300  63.322 -61.332  1.00  0.00     0.025 C 
ENDBRANCH  32  35
ENDBRANCH  30  31
ENDBRANCH  13  30
TORSDOF 8
ENDMDL
MODEL 6
REMARK VINA RESULT:      -8.0      2.863      6.174
REMARK  8 active torsions:
REMARK  status: ('A' for Active; 'I' for Inactive)
REMARK    1  A    between atoms: C_2  and  C_3 
REMARK    2  A    between atoms: C_6  and  N_7 
REMARK       I    between atoms: N_7  and  C_8 
REMARK    3  A    between atoms: C_8  and  C_9 
REMARK    4  A    between atoms: C_9  and  S_10 
REMARK    5  A    between atoms: S_10  and  C_11 
REMARK    6  A    between atoms: C_23  and  C_24 
REMARK    7  A    between atoms: C_24  and  C_25 
REMARK       I    between atoms: C_25  and  N_26 
REMARK    8  A    between atoms: N_26  and  C_27 
ROOT
HETATM    1  C   UNL     1     -43.868  57.576 -53.087  1.00  0.00     0.178 C 
HETATM    2  N   UNL     1     -43.408  58.835 -53.438  1.00  0.00    -0.241 N 
HETATM    3  C   UNL     1     -42.778  59.053 -54.619  1.00  0.00     0.147 C 
HETATM    4  N   UNL     1     -42.243  60.221 -54.811  1.00  0.00    -0.256 NA
HETATM    5  C   UNL     1     -42.767  57.958 -55.591  1.00  0.00     0.039 A 
HETATM    6  C   UNL     1     -43.357  56.754 -55.191  1.00  0.00     0.073 A 
HETATM    7  C   UNL     1     -42.254  58.132 -56.879  1.00  0.00     0.018 A 
HETATM    8  C   UNL     1     -42.333  57.079 -57.790  1.00  0.00     0.001 A 
HETATM    9  C   UNL     1     -42.924  55.873 -57.410  1.00  0.00     0.002 A 
HETATM   10  C   UNL     1     -43.432  55.713 -56.118  1.00  0.00     0.032 A 
HETATM   11  C   UNL     1     -43.457  60.034 -52.766  1.00  0.00     0.257 C 
HETATM   12  O   UNL     1     -44.105  60.339 -51.778  1.00  0.00    -0.270 OA
HETATM   13  C   UNL     1     -42.602  60.987 -53.582  1.00  0.00     0.211 C 
HETATM   14  N   UNL     1     -43.861  56.557 -53.890  1.00  0.00    -0.223 NA
ENDROOT
BRANCH   1  15
HETATM   15  S   UNL     1     -44.395  57.291 -51.449  1.00  0.00    -0.082 SA
BRANCH  15  16
HETATM   16  C   UNL     1     -42.788  57.031 -50.659  1.00  0.00     0.185 C 
BRANCH  16  17
HETATM   17  C   UNL     1     -42.280  55.596 -50.730  1.00  0.00     0.231 C 
HETATM   18  N   UNL     1     -41.142  55.417 -51.491  1.00  0.00    -0.327 N 
HETATM   19  H   UNL     1     -40.663  56.263 -51.793  1.00  0.00     0.169 HD
HETATM   20  O   UNL     1     -42.938  54.698 -50.206  1.00  0.00    -0.272 OA
BRANCH  18  21
HETATM   21  C   UNL     1     -40.600  54.207 -51.967  1.00  0.00     0.034 A 
HETATM   22  C   UNL     1     -39.953  53.272 -51.163  1.00  0.00     0.030 A 
HETATM   23  C   UNL     1     -39.573  52.030 -51.686  1.00  0.00     0.010 A 
HETATM   24  C   UNL     1     -39.823  51.704 -53.025  1.00  0.00    -0.055 A 
HETATM   25  C   UNL     1     -40.423  52.668 -53.841  1.00  0.00     0.010 A 
HETATM   26  C   UNL     1     -40.802  53.908 -53.318  1.00  0.00     0.030 A 
BRANCH  24  27
HETATM   27  C   UNL     1     -39.525  50.323 -53.582  1.00  0.00     0.010 C 
HETATM   28  C   UNL     1     -40.528  49.971 -54.684  1.00  0.00     0.015 C 
HETATM   29  C   UNL     1     -39.496  49.237 -52.505  1.00  0.00     0.015 C 
ENDBRANCH  24  27
ENDBRANCH  18  21
ENDBRANCH  16  17
ENDBRANCH  15  16
ENDBRANCH   1  15
BRANCH  13  30
HETATM   30  C   UNL     1     -43.339  62.255 -53.988  1.00  0.00     0.140 C 
BRANCH  30  31
HETATM   31  C   UNL     1     -43.740  62.342 -55.452  1.00  0.00     0.220 C 
HETATM   32  N   UNL     1     -42.736  62.644 -56.340  1.00  0.00    -0.356 N 
HETATM   33  H   UNL     1     -41.829  62.266 -56.089  1.00  0.00     0.162 HD
HETATM   34  O   UNL     1     -44.910  62.163 -55.785  1.00  0.00    -0.274 OA
BRANCH  32  35
HETATM   35  C   UNL     1     -42.937  62.858 -57.775  1.00  0.00     0.084 C 
HETATM   36  C   UNL     1     -42.176  64.070 -58.344  1.00  0.00     0.025 C 
HETATM   37  C   UNL     1     -40.661  63.893 -58.266  1.00  0.00     0.002 C 
HETATM   38  C   UNL     1     -40.212  62.615 -58.968  1.00  0.00     0.000 C 
HETATM   39  C   UNL     1     -40.974  61.389 -58.472  1.00  0.00     0.002 C 
HETATM   40  C   UNL     1     -42.492  61.594 -58.533  1.00  0.00     0.025 C 
ENDBRANCH  32  35
ENDBRANCH  30  31
ENDBRANCH  13  30
TORSDOF 8
ENDMDL
MODEL 7
REMARK VINA RESULT:      -7.9      3.162      6.764
REMARK  8 active torsions:
REMARK  status: ('A' for Active; 'I' for Inactive)
REMARK    1  A    between atoms: C_2  and  C_3 
REMARK    2  A    between atoms: C_6  and  N_7 
REMARK       I    between atoms: N_7  and  C_8 
REMARK    3  A    between atoms: C_8  and  C_9 
REMARK    4  A    between atoms: C_9  and  S_10 
REMARK    5  A    between atoms: S_10  and  C_11 
REMARK    6  A    between atoms: C_23  and  C_24 
REMARK    7  A    between atoms: C_24  and  C_25 
REMARK       I    between atoms: C_25  and  N_26 
REMARK    8  A    between atoms: N_26  and  C_27 
ROOT
HETATM    1  C   UNL     1     -43.251  59.029 -52.939  1.00  0.00     0.178 C 
HETATM    2  N   UNL     1     -43.344  58.426 -54.182  1.00  0.00    -0.241 N 
HETATM    3  C   UNL     1     -44.243  58.847 -55.107  1.00  0.00     0.147 C 
HETATM    4  N   UNL     1     -44.374  58.140 -56.188  1.00  0.00    -0.256 NA
HETATM    5  C   UNL     1     -44.981  60.078 -54.819  1.00  0.00     0.039 A 
HETATM    6  C   UNL     1     -44.739  60.683 -53.580  1.00  0.00     0.073 A 
HETATM    7  C   UNL     1     -45.833  60.656 -55.764  1.00  0.00     0.018 A 
HETATM    8  C   UNL     1     -46.457  61.867 -55.467  1.00  0.00     0.001 A 
HETATM    9  C   UNL     1     -46.222  62.488 -54.240  1.00  0.00     0.002 A 
HETATM   10  C   UNL     1     -45.369  61.898 -53.303  1.00  0.00     0.032 A 
HETATM   11  C   UNL     1     -42.646  57.376 -54.732  1.00  0.00     0.257 C 
HETATM   12  O   UNL     1     -41.621  56.842 -54.339  1.00  0.00    -0.270 OA
HETATM   13  C   UNL     1     -43.354  57.061 -56.037  1.00  0.00     0.211 C 
HETATM   14  N   UNL     1     -43.899  60.104 -52.610  1.00  0.00    -0.223 NA
ENDROOT
BRANCH   1  15
HETATM   15  S   UNL     1     -42.299  58.264 -51.694  1.00  0.00    -0.082 SA
BRANCH  15  16
HETATM   16  C   UNL     1     -43.469  56.989 -51.164  1.00  0.00     0.185 C 
BRANCH  16  17
HETATM   17  C   UNL     1     -42.892  55.579 -51.147  1.00  0.00     0.231 C 
HETATM   18  N   UNL     1     -41.630  55.457 -51.694  1.00  0.00    -0.327 N 
HETATM   19  H   UNL     1     -41.143  56.326 -51.905  1.00  0.00     0.169 HD
HETATM   20  O   UNL     1     -43.591  54.647 -50.750  1.00  0.00    -0.272 OA
BRANCH  18  21
HETATM   21  C   UNL     1     -40.959  54.277 -52.069  1.00  0.00     0.034 A 
HETATM   22  C   UNL     1     -40.229  53.481 -51.189  1.00  0.00     0.030 A 
HETATM   23  C   UNL     1     -39.714  52.248 -51.609  1.00  0.00     0.010 A 
HETATM   24  C   UNL     1     -39.910  51.794 -52.919  1.00  0.00    -0.055 A 
HETATM   25  C   UNL     1     -40.595  52.623 -53.814  1.00  0.00     0.010 A 
HETATM   26  C   UNL     1     -41.108  53.853 -53.393  1.00  0.00     0.030 A 
BRANCH  24  27
HETATM   27  C   UNL     1     -39.461  50.413 -53.363  1.00  0.00     0.010 C 
HETATM   28  C   UNL     1     -40.257  49.970 -54.595  1.00  0.00     0.015 C 
HETATM   29  C   UNL     1     -39.555  49.367 -52.250  1.00  0.00     0.015 C 
ENDBRANCH  24  27
ENDBRANCH  18  21
ENDBRANCH  16  17
ENDBRANCH  15  16
ENDBRANCH   1  15
BRANCH  13  30
HETATM   30  C   UNL     1     -42.426  57.085 -57.243  1.00  0.00     0.140 C 
BRANCH  30  31
HETATM   31  C   UNL     1     -43.108  56.974 -58.598  1.00  0.00     0.220 C 
HETATM   32  N   UNL     1     -43.796  58.084 -59.025  1.00  0.00    -0.356 N 
HETATM   33  H   UNL     1     -43.383  58.967 -58.742  1.00  0.00     0.162 HD
HETATM   34  O   UNL     1     -43.040  55.928 -59.240  1.00  0.00    -0.274 OA
BRANCH  32  35
HETATM   35  C   UNL     1     -44.588  58.144 -60.256  1.00  0.00     0.084 C 
HETATM   36  C   UNL     1     -45.977  57.490 -60.143  1.00  0.00     0.025 C 
HETATM   37  C   UNL     1     -46.885  58.220 -59.155  1.00  0.00     0.002 C 
HETATM   38  C   UNL     1     -47.028  59.695 -59.514  1.00  0.00     0.000 C 
HETATM   39  C   UNL     1     -45.673  60.378 -59.684  1.00  0.00     0.002 C 
HETATM   40  C   UNL     1     -44.766  59.619 -60.660  1.00  0.00     0.025 C 
ENDBRANCH  32  35
ENDBRANCH  30  31
ENDBRANCH  13  30
TORSDOF 8
ENDMDL
MODEL 8
REMARK VINA RESULT:      -7.9      4.080      9.929
REMARK  8 active torsions:
REMARK  status: ('A' for Active; 'I' for Inactive)
REMARK    1  A    between atoms: C_2  and  C_3 
REMARK    2  A    between atoms: C_6  and  N_7 
REMARK       I    between atoms: N_7  and  C_8 
REMARK    3  A    between atoms: C_8  and  C_9 
REMARK    4  A    between atoms: C_9  and  S_10 
REMARK    5  A    between atoms: S_10  and  C_11 
REMARK    6  A    between atoms: C_23  and  C_24 
REMARK    7  A    between atoms: C_24  and  C_25 
REMARK       I    between atoms: C_25  and  N_26 
REMARK    8  A    between atoms: N_26  and  C_27 
ROOT
HETATM    1  C   UNL     1     -43.828  56.606 -51.513  1.00  0.00     0.178 C 
HETATM    2  N   UNL     1     -43.260  56.527 -52.774  1.00  0.00    -0.241 N 
HETATM    3  C   UNL     1     -42.093  55.866 -52.983  1.00  0.00     0.147 C 
HETATM    4  N   UNL     1     -41.547  55.962 -54.157  1.00  0.00    -0.256 NA
HETATM    5  C   UNL     1     -41.554  55.081 -51.872  1.00  0.00     0.039 A 
HETATM    6  C   UNL     1     -42.258  55.131 -50.663  1.00  0.00     0.073 A 
HETATM    7  C   UNL     1     -40.428  54.269 -52.032  1.00  0.00     0.018 A 
HETATM    8  C   UNL     1     -39.996  53.486 -50.961  1.00  0.00     0.001 A 
HETATM    9  C   UNL     1     -40.691  53.519 -49.752  1.00  0.00     0.002 A 
HETATM   10  C   UNL     1     -41.814  54.337 -49.605  1.00  0.00     0.032 A 
HETATM   11  C   UNL     1     -43.670  57.035 -53.985  1.00  0.00     0.257 C 
HETATM   12  O   UNL     1     -44.751  57.510 -54.294  1.00  0.00    -0.270 OA
HETATM   13  C   UNL     1     -42.518  56.784 -54.939  1.00  0.00     0.211 C 
HETATM   14  N   UNL     1     -43.383  55.960 -50.481  1.00  0.00    -0.223 NA
ENDROOT
BRANCH   1  15
HETATM   15  S   UNL     1     -45.153  57.709 -51.248  1.00  0.00    -0.082 SA
BRANCH  15  16
HETATM   16  C   UNL     1     -44.224  59.247 -51.038  1.00  0.00     0.185 C 
BRANCH  16  17
HETATM   17  C   UNL     1     -44.930  60.294 -50.185  1.00  0.00     0.231 C 
HETATM   18  N   UNL     1     -44.172  60.817 -49.157  1.00  0.00    -0.327 N 
HETATM   19  H   UNL     1     -43.182  60.582 -49.160  1.00  0.00     0.169 HD
HETATM   20  O   UNL     1     -46.118  60.538 -50.393  1.00  0.00    -0.272 OA
BRANCH  18  21
HETATM   21  C   UNL     1     -44.614  61.575 -48.054  1.00  0.00     0.034 A 
HETATM   22  C   UNL     1     -44.864  61.042 -46.792  1.00  0.00     0.030 A 
HETATM   23  C   UNL     1     -45.160  61.884 -45.713  1.00  0.00     0.010 A 
HETATM   24  C   UNL     1     -45.222  63.274 -45.878  1.00  0.00    -0.055 A 
HETATM   25  C   UNL     1     -45.025  63.798 -47.161  1.00  0.00     0.010 A 
HETATM   26  C   UNL     1     -44.731  62.956 -48.236  1.00  0.00     0.030 A 
BRANCH  24  27
HETATM   27  C   UNL     1     -45.426  64.211 -44.702  1.00  0.00     0.010 C 
HETATM   28  C   UNL     1     -44.687  63.681 -43.470  1.00  0.00     0.015 C 
HETATM   29  C   UNL     1     -46.902  64.460 -44.385  1.00  0.00     0.015 C 
ENDBRANCH  24  27
ENDBRANCH  18  21
ENDBRANCH  16  17
ENDBRANCH  15  16
ENDBRANCH   1  15
BRANCH  13  30
HETATM   30  C   UNL     1     -42.928  56.013 -56.185  1.00  0.00     0.140 C 
BRANCH  30  31
HETATM   31  C   UNL     1     -43.022  56.832 -57.463  1.00  0.00     0.220 C 
HETATM   32  N   UNL     1     -44.146  56.636 -58.229  1.00  0.00    -0.356 N 
HETATM   33  H   UNL     1     -44.986  56.440 -57.695  1.00  0.00     0.162 HD
HETATM   34  O   UNL     1     -42.116  57.603 -57.772  1.00  0.00    -0.274 OA
BRANCH  32  35
HETATM   35  C   UNL     1     -44.379  57.262 -59.533  1.00  0.00     0.084 C 
HETATM   36  C   UNL     1     -44.483  56.264 -60.700  1.00  0.00     0.025 C 
HETATM   37  C   UNL     1     -45.699  55.348 -60.576  1.00  0.00     0.002 C 
HETATM   38  C   UNL     1     -46.991  56.149 -60.454  1.00  0.00     0.000 C 
HETATM   39  C   UNL     1     -46.919  57.187 -59.337  1.00  0.00     0.002 C 
HETATM   40  C   UNL     1     -45.681  58.082 -59.464  1.00  0.00     0.025 C 
ENDBRANCH  32  35
ENDBRANCH  30  31
ENDBRANCH  13  30
TORSDOF 8
ENDMDL
MODEL 9
REMARK VINA RESULT:      -7.8      2.789      6.427
REMARK  8 active torsions:
REMARK  status: ('A' for Active; 'I' for Inactive)
REMARK    1  A    between atoms: C_2  and  C_3 
REMARK    2  A    between atoms: C_6  and  N_7 
REMARK       I    between atoms: N_7  and  C_8 
REMARK    3  A    between atoms: C_8  and  C_9 
REMARK    4  A    between atoms: C_9  and  S_10 
REMARK    5  A    between atoms: S_10  and  C_11 
REMARK    6  A    between atoms: C_23  and  C_24 
REMARK    7  A    between atoms: C_24  and  C_25 
REMARK       I    between atoms: C_25  and  N_26 
REMARK    8  A    between atoms: N_26  and  C_27 
ROOT
HETATM    1  C   UNL     1     -43.672  59.111 -54.394  1.00  0.00     0.178 C 
HETATM    2  N   UNL     1     -43.676  58.350 -55.552  1.00  0.00    -0.241 N 
HETATM    3  C   UNL     1     -44.590  58.560 -56.532  1.00  0.00     0.147 C 
HETATM    4  N   UNL     1     -44.627  57.713 -57.515  1.00  0.00    -0.256 NA
HETATM    5  C   UNL     1     -45.450  59.739 -56.412  1.00  0.00     0.039 A 
HETATM    6  C   UNL     1     -45.297  60.516 -55.258  1.00  0.00     0.073 A 
HETATM    7  C   UNL     1     -46.331  60.106 -57.433  1.00  0.00     0.018 A 
HETATM    8  C   UNL     1     -47.076  61.277 -57.299  1.00  0.00     0.001 A 
HETATM    9  C   UNL     1     -46.931  62.067 -56.159  1.00  0.00     0.002 A 
HETATM   10  C   UNL     1     -46.047  61.687 -55.145  1.00  0.00     0.032 A 
HETATM   11  C   UNL     1     -42.868  57.313 -55.955  1.00  0.00     0.257 C 
HETATM   12  O   UNL     1     -41.806  56.936 -55.486  1.00  0.00    -0.270 OA
HETATM   13  C   UNL     1     -43.511  56.767 -57.217  1.00  0.00     0.211 C 
HETATM   14  N   UNL     1     -44.428  60.149 -54.212  1.00  0.00    -0.223 NA
ENDROOT
BRANCH   1  15
HETATM   15  S   UNL     1     -42.679  58.606 -53.051  1.00  0.00    -0.082 SA
BRANCH  15  16
HETATM   16  C   UNL     1     -43.825  57.458 -52.249  1.00  0.00     0.185 C 
BRANCH  16  17
HETATM   17  C   UNL     1     -43.229  56.088 -51.947  1.00  0.00     0.231 C 
HETATM   18  N   UNL     1     -42.222  55.688 -52.803  1.00  0.00    -0.327 N 
HETATM   19  H   UNL     1     -41.865  56.395 -53.442  1.00  0.00     0.169 HD
HETATM   20  O   UNL     1     -43.722  55.401 -51.053  1.00  0.00    -0.272 OA
BRANCH  18  21
HETATM   21  C   UNL     1     -41.678  54.398 -52.956  1.00  0.00     0.034 A 
HETATM   22  C   UNL     1     -41.780  53.642 -54.122  1.00  0.00     0.030 A 
HETATM   23  C   UNL     1     -41.088  52.431 -54.243  1.00  0.00     0.010 A 
HETATM   24  C   UNL     1     -40.290  51.947 -53.198  1.00  0.00    -0.055 A 
HETATM   25  C   UNL     1     -40.236  52.683 -52.010  1.00  0.00     0.010 A 
HETATM   26  C   UNL     1     -40.928  53.892 -51.890  1.00  0.00     0.030 A 
BRANCH  24  27
HETATM   27  C   UNL     1     -39.441  50.698 -53.351  1.00  0.00     0.010 C 
HETATM   28  C   UNL     1     -39.847  49.937 -54.618  1.00  0.00     0.015 C 
HETATM   29  C   UNL     1     -39.497  49.783 -52.126  1.00  0.00     0.015 C 
ENDBRANCH  24  27
ENDBRANCH  18  21
ENDBRANCH  16  17
ENDBRANCH  15  16
ENDBRANCH   1  15
BRANCH  13  30
HETATM   30  C   UNL     1     -42.562  56.731 -58.406  1.00  0.00     0.140 C 
BRANCH  30  31
HETATM   31  C   UNL     1     -43.064  57.415 -59.668  1.00  0.00     0.220 C 
HETATM   32  N   UNL     1     -42.918  58.781 -59.718  1.00  0.00    -0.356 N 
HETATM   33  H   UNL     1     -42.085  59.130 -59.255  1.00  0.00     0.162 HD
HETATM   34  O   UNL     1     -43.581  56.755 -60.566  1.00  0.00    -0.274 OA
BRANCH  32  35
HETATM   35  C   UNL     1     -43.417  59.628 -60.804  1.00  0.00     0.084 C 
HETATM   36  C   UNL     1     -44.394  60.726 -60.349  1.00  0.00     0.025 C 
HETATM   37  C   UNL     1     -43.729  61.754 -59.436  1.00  0.00     0.002 C 
HETATM   38  C   UNL     1     -42.508  62.382 -60.099  1.00  0.00     0.000 C 
HETATM   39  C   UNL     1     -41.529  61.329 -60.612  1.00  0.00     0.002 C 
HETATM   40  C   UNL     1     -42.218  60.292 -61.506  1.00  0.00     0.025 C 
ENDBRANCH  32  35
ENDBRANCH  30  31
ENDBRANCH  13  30
TORSDOF 8
ENDMDL
MODEL 10
REMARK VINA RESULT:      -7.8      4.390      6.417
REMARK  8 active torsions:
REMARK  status: ('A' for Active; 'I' for Inactive)
REMARK    1  A    between atoms: C_2  and  C_3 
REMARK    2  A    between atoms: C_6  and  N_7 
REMARK       I    between atoms: N_7  and  C_8 
REMARK    3  A    between atoms: C_8  and  C_9 
REMARK    4  A    between atoms: C_9  and  S_10 
REMARK    5  A    between atoms: S_10  and  C_11 
REMARK    6  A    between atoms: C_23  and  C_24 
REMARK    7  A    between atoms: C_24  and  C_25 
REMARK       I    between atoms: C_25  and  N_26 
REMARK    8  A    between atoms: N_26  and  C_27 
ROOT
HETATM    1  C   UNL     1     -44.031  58.532 -57.101  1.00  0.00     0.178 C 
HETATM    2  N   UNL     1     -45.228  59.016 -57.605  1.00  0.00    -0.241 N 
HETATM    3  C   UNL     1     -45.820  58.449 -58.686  1.00  0.00     0.147 C 
HETATM    4  N   UNL     1     -46.856  59.047 -59.190  1.00  0.00    -0.256 NA
HETATM    5  C   UNL     1     -45.254  57.195 -59.186  1.00  0.00     0.039 A 
HETATM    6  C   UNL     1     -44.105  56.720 -58.541  1.00  0.00     0.073 A 
HETATM    7  C   UNL     1     -45.870  56.474 -60.212  1.00  0.00     0.018 A 
HETATM    8  C   UNL     1     -45.329  55.250 -60.603  1.00  0.00     0.001 A 
HETATM    9  C   UNL     1     -44.189  54.758 -59.967  1.00  0.00     0.002 A 
HETATM   10  C   UNL     1     -43.582  55.490 -58.943  1.00  0.00     0.032 A 
HETATM   11  C   UNL     1     -46.021  60.064 -57.200  1.00  0.00     0.257 C 
HETATM   12  O   UNL     1     -45.979  60.706 -56.163  1.00  0.00    -0.270 OA
HETATM   13  C   UNL     1     -47.078  60.210 -58.280  1.00  0.00     0.211 C 
HETATM   14  N   UNL     1     -43.462  57.444 -57.519  1.00  0.00    -0.223 NA
ENDROOT
BRANCH   1  15
HETATM   15  S   UNL     1     -43.170  59.473 -55.912  1.00  0.00    -0.082 SA
BRANCH  15  16
HETATM   16  C   UNL     1     -43.359  58.387 -54.477  1.00  0.00     0.185 C 
BRANCH  16  17
HETATM   17  C   UNL     1     -42.168  57.470 -54.224  1.00  0.00     0.231 C 
HETATM   18  N   UNL     1     -42.370  56.145 -54.556  1.00  0.00    -0.327 N 
HETATM   19  H   UNL     1     -43.218  55.934 -55.079  1.00  0.00     0.169 HD
HETATM   20  O   UNL     1     -41.166  57.924 -53.674  1.00  0.00    -0.272 OA
BRANCH  18  21
HETATM   21  C   UNL     1     -41.586  55.033 -54.194  1.00  0.00     0.034 A 
HETATM   22  C   UNL     1     -41.547  54.491 -52.911  1.00  0.00     0.030 A 
HETATM   23  C   UNL     1     -40.855  53.298 -52.666  1.00  0.00     0.010 A 
HETATM   24  C   UNL     1     -40.182  52.630 -53.697  1.00  0.00    -0.055 A 
HETATM   25  C   UNL     1     -40.179  53.209 -54.971  1.00  0.00     0.010 A 
HETATM   26  C   UNL     1     -40.869  54.400 -55.213  1.00  0.00     0.030 A 
BRANCH  24  27
HETATM   27  C   UNL     1     -39.525  51.279 -53.480  1.00  0.00     0.010 C 
HETATM   28  C   UNL     1     -40.215  50.213 -54.338  1.00  0.00     0.015 C 
HETATM   29  C   UNL     1     -39.496  50.857 -52.009  1.00  0.00     0.015 C 
ENDBRANCH  24  27
ENDBRANCH  18  21
ENDBRANCH  16  17
ENDBRANCH  15  16
ENDBRANCH   1  15
BRANCH  13  30
HETATM   30  C   UNL     1     -48.499  60.150 -57.740  1.00  0.00     0.140 C 
BRANCH  30  31
HETATM   31  C   UNL     1     -49.047  61.457 -57.187  1.00  0.00     0.220 C 
HETATM   32  N   UNL     1     -50.175  61.362 -56.409  1.00  0.00    -0.356 N 
HETATM   33  H   UNL     1     -50.225  60.519 -55.846  1.00  0.00     0.162 HD
HETATM   34  O   UNL     1     -48.496  62.522 -57.457  1.00  0.00    -0.274 OA
BRANCH  32  35
HETATM   35  C   UNL     1     -50.902  62.510 -55.860  1.00  0.00     0.084 C 
HETATM   36  C   UNL     1     -52.359  62.204 -55.469  1.00  0.00     0.025 C 
HETATM   37  C   UNL     1     -52.455  61.201 -54.321  1.00  0.00     0.002 C 
HETATM   38  C   UNL     1     -51.672  61.673 -53.100  1.00  0.00     0.000 C 
HETATM   39  C   UNL     1     -50.230  62.035 -53.447  1.00  0.00     0.002 C 
HETATM   40  C   UNL     1     -50.153  63.023 -54.616  1.00  0.00     0.025 C 
ENDBRANCH  32  35
ENDBRANCH  30  31
ENDBRANCH  13  30
TORSDOF 8
ENDMDL
