MODEL 1
REMARK VINA RESULT:      -8.5      0.000      0.000
REMARK  6 active torsions:
REMARK  status: ('A' for Active; 'I' for Inactive)
REMARK    1  A    between atoms: C_4  and  C_5 
REMARK    2  A    between atoms: C_9  and  C_10 
REMARK       I    between atoms: C_10  and  N_11 
REMARK    3  A    between atoms: N_11  and  C_12 
REMARK    4  A    between atoms: C_12  and  C_13 
REMARK    5  A    between atoms: C_13  and  N_14 
REMARK    6  A    between atoms: C_13  and  C_18 
ROOT
HETATM    1  C   UNL     1     -40.970  54.175 -52.710  1.00  0.00     0.092 A 
HETATM    2  N   UNL     1     -40.790  55.039 -51.687  1.00  0.00    -0.246 NA
HETATM    3  C   UNL     1     -41.254  56.293 -51.793  1.00  0.00     0.069 A 
HETATM    4  C   UNL     1     -41.943  56.765 -52.929  1.00  0.00     0.008 A 
HETATM    5  C   UNL     1     -42.164  55.815 -53.957  1.00  0.00     0.046 A 
HETATM    6  C   UNL     1     -41.654  54.519 -53.857  1.00  0.00     0.052 A 
HETATM    7  C   UNL     1     -41.028  57.158 -50.732  1.00  0.00     0.032 A 
HETATM    8  C   UNL     1     -41.443  58.489 -50.762  1.00  0.00     0.002 A 
HETATM    9  C   UNL     1     -42.084  58.982 -51.889  1.00  0.00     0.001 A 
HETATM   10  C   UNL     1     -42.326  58.132 -52.968  1.00  0.00     0.015 A 
ENDROOT
BRANCH   5  11
HETATM   11  C   UNL     1     -42.927  56.101 -55.195  1.00  0.00     0.252 C 
HETATM   12  N   UNL     1     -42.222  56.154 -56.375  1.00  0.00    -0.355 N 
HETATM   13  H   UNL     1     -41.226  55.950 -56.326  1.00  0.00     0.162 HD
HETATM   14  O   UNL     1     -44.112  56.414 -55.144  1.00  0.00    -0.268 OA
BRANCH  12  15
HETATM   15  C   UNL     1     -42.818  56.128 -57.718  1.00  0.00     0.161 C 
BRANCH  15  16
HETATM   16  C   UNL     1     -43.567  57.401 -58.255  1.00  0.00     0.237 C 
BRANCH  16  17
HETATM   17  N   UNL     1     -42.608  58.380 -58.934  1.00  0.00    -0.069 N 
HETATM   18  H   UNL     1     -43.262  58.972 -59.477  1.00  0.00     0.279 HD
HETATM   19  C   UNL     1     -41.819  59.268 -58.035  1.00  0.00     0.270 C 
HETATM   20  C   UNL     1     -41.753  57.744 -59.990  1.00  0.00     0.270 C 
ENDBRANCH  16  17
BRANCH  16  21
HETATM   21  C   UNL     1     -44.803  57.081 -59.085  1.00  0.00    -0.026 A 
HETATM   22  C   UNL     1     -44.863  55.859 -59.783  1.00  0.00     0.009 A 
HETATM   23  C   UNL     1     -45.990  55.513 -60.530  1.00  0.00     0.001 A 
HETATM   24  C   UNL     1     -47.073  56.383 -60.601  1.00  0.00     0.000 A 
HETATM   25  C   UNL     1     -47.032  57.597 -59.921  1.00  0.00     0.001 A 
HETATM   26  C   UNL     1     -45.909  57.944 -59.164  1.00  0.00     0.009 A 
ENDBRANCH  16  21
ENDBRANCH  15  16
ENDBRANCH  12  15
ENDBRANCH   5  11
BRANCH   1  27
HETATM   27  C   UNL     1     -40.387  52.856 -52.510  1.00  0.00     0.104 A 
HETATM   28  O   UNL     1     -40.255  52.064 -53.619  1.00  0.00    -0.313 OA
HETATM   29  C   UNL     1     -39.694  50.888 -53.213  1.00  0.00     0.050 A 
HETATM   30  C   UNL     1     -39.461  49.867 -54.253  1.00  0.00     0.076 C 
HETATM   31  C   UNL     1     -39.459  50.919 -51.856  1.00  0.00     0.035 A 
HETATM   32  C   UNL     1     -39.910  52.182 -51.403  1.00  0.00     0.042 A 
ENDBRANCH   1  27
TORSDOF 6
ENDMDL
MODEL 2
REMARK VINA RESULT:      -8.5      1.513      1.676
REMARK  6 active torsions:
REMARK  status: ('A' for Active; 'I' for Inactive)
REMARK    1  A    between atoms: C_4  and  C_5 
REMARK    2  A    between atoms: C_9  and  C_10 
REMARK       I    between atoms: C_10  and  N_11 
REMARK    3  A    between atoms: N_11  and  C_12 
REMARK    4  A    between atoms: C_12  and  C_13 
REMARK    5  A    between atoms: C_13  and  N_14 
REMARK    6  A    between atoms: C_13  and  C_18 
ROOT
HETATM    1  C   UNL     1     -41.608  54.050 -53.286  1.00  0.00     0.092 A 
HETATM    2  N   UNL     1     -42.250  54.598 -52.232  1.00  0.00    -0.246 NA
HETATM    3  C   UNL     1     -43.046  55.661 -52.425  1.00  0.00     0.069 A 
HETATM    4  C   UNL     1     -43.263  56.241 -53.691  1.00  0.00     0.008 A 
HETATM    5  C   UNL     1     -42.618  55.604 -54.780  1.00  0.00     0.046 A 
HETATM    6  C   UNL     1     -41.767  54.517 -54.574  1.00  0.00     0.052 A 
HETATM    7  C   UNL     1     -43.670  56.211 -51.314  1.00  0.00     0.032 A 
HETATM    8  C   UNL     1     -44.489  57.336 -51.408  1.00  0.00     0.002 A 
HETATM    9  C   UNL     1     -44.679  57.945 -52.639  1.00  0.00     0.001 A 
HETATM   10  C   UNL     1     -44.066  57.410 -53.772  1.00  0.00     0.015 A 
ENDROOT
BRANCH   5  11
HETATM   11  C   UNL     1     -42.778  56.024 -56.194  1.00  0.00     0.252 C 
HETATM   12  N   UNL     1     -42.539  57.345 -56.493  1.00  0.00    -0.355 N 
HETATM   13  H   UNL     1     -42.224  57.940 -55.729  1.00  0.00     0.162 HD
HETATM   14  O   UNL     1     -43.238  55.253 -57.029  1.00  0.00    -0.268 OA
BRANCH  12  15
HETATM   15  C   UNL     1     -42.354  57.886 -57.846  1.00  0.00     0.161 C 
BRANCH  15  16
HETATM   16  C   UNL     1     -43.560  58.589 -58.568  1.00  0.00     0.237 C 
BRANCH  16  17
HETATM   17  N   UNL     1     -43.094  59.739 -59.461  1.00  0.00    -0.069 N 
HETATM   18  H   UNL     1     -42.816  59.236 -60.324  1.00  0.00     0.279 HD
HETATM   19  C   UNL     1     -44.121  60.754 -59.830  1.00  0.00     0.270 C 
HETATM   20  C   UNL     1     -41.816  60.374 -59.000  1.00  0.00     0.270 C 
ENDBRANCH  16  17
BRANCH  16  21
HETATM   21  C   UNL     1     -44.509  57.623 -59.262  1.00  0.00    -0.026 A 
HETATM   22  C   UNL     1     -43.984  56.663 -60.149  1.00  0.00     0.009 A 
HETATM   23  C   UNL     1     -44.815  55.738 -60.783  1.00  0.00     0.001 A 
HETATM   24  C   UNL     1     -46.185  55.758 -60.548  1.00  0.00     0.000 A 
HETATM   25  C   UNL     1     -46.725  56.701 -59.677  1.00  0.00     0.001 A 
HETATM   26  C   UNL     1     -45.896  57.623 -59.033  1.00  0.00     0.009 A 
ENDBRANCH  16  21
ENDBRANCH  15  16
ENDBRANCH  12  15
ENDBRANCH   5  11
BRANCH   1  27
HETATM   27  C   UNL     1     -40.734  52.932 -52.959  1.00  0.00     0.104 A 
HETATM   28  O   UNL     1     -40.573  51.972 -53.921  1.00  0.00    -0.313 OA
HETATM   29  C   UNL     1     -39.727  51.029 -53.416  1.00  0.00     0.050 A 
HETATM   30  C   UNL     1     -39.410  49.881 -54.288  1.00  0.00     0.076 C 
HETATM   31  C   UNL     1     -39.339  51.376 -52.141  1.00  0.00     0.035 A 
HETATM   32  C   UNL     1     -39.991  52.597 -51.845  1.00  0.00     0.042 A 
ENDBRANCH   1  27
TORSDOF 6
ENDMDL
MODEL 3
REMARK VINA RESULT:      -8.4      2.298      8.057
REMARK  6 active torsions:
REMARK  status: ('A' for Active; 'I' for Inactive)
REMARK    1  A    between atoms: C_4  and  C_5 
REMARK    2  A    between atoms: C_9  and  C_10 
REMARK       I    between atoms: C_10  and  N_11 
REMARK    3  A    between atoms: N_11  and  C_12 
REMARK    4  A    between atoms: C_12  and  C_13 
REMARK    5  A    between atoms: C_13  and  N_14 
REMARK    6  A    between atoms: C_13  and  C_18 
ROOT
HETATM    1  C   UNL     1     -41.942  57.856 -53.487  1.00  0.00     0.092 A 
HETATM    2  N   UNL     1     -42.521  58.486 -54.533  1.00  0.00    -0.246 NA
HETATM    3  C   UNL     1     -42.789  57.796 -55.652  1.00  0.00     0.069 A 
HETATM    4  C   UNL     1     -42.507  56.422 -55.796  1.00  0.00     0.008 A 
HETATM    5  C   UNL     1     -41.953  55.783 -54.659  1.00  0.00     0.046 A 
HETATM    6  C   UNL     1     -41.647  56.508 -53.507  1.00  0.00     0.052 A 
HETATM    7  C   UNL     1     -43.362  58.483 -56.712  1.00  0.00     0.032 A 
HETATM    8  C   UNL     1     -43.648  57.861 -57.928  1.00  0.00     0.002 A 
HETATM    9  C   UNL     1     -43.337  56.521 -58.102  1.00  0.00     0.001 A 
HETATM   10  C   UNL     1     -42.764  55.807 -57.050  1.00  0.00     0.015 A 
ENDROOT
BRANCH   5  11
HETATM   11  C   UNL     1     -41.652  54.332 -54.593  1.00  0.00     0.252 C 
HETATM   12  N   UNL     1     -40.365  53.967 -54.274  1.00  0.00    -0.355 N 
HETATM   13  H   UNL     1     -39.712  54.719 -54.061  1.00  0.00     0.162 HD
HETATM   14  O   UNL     1     -42.484  53.502 -54.944  1.00  0.00    -0.268 OA
BRANCH  12  15
HETATM   15  C   UNL     1     -39.944  52.618 -53.873  1.00  0.00     0.161 C 
BRANCH  15  16
HETATM   16  C   UNL     1     -40.438  52.030 -52.503  1.00  0.00     0.237 C 
BRANCH  16  17
HETATM   17  N   UNL     1     -39.614  50.813 -52.078  1.00  0.00    -0.069 N 
HETATM   18  H   UNL     1     -38.651  51.195 -52.093  1.00  0.00     0.279 HD
HETATM   19  C   UNL     1     -39.876  50.276 -50.713  1.00  0.00     0.270 C 
HETATM   20  C   UNL     1     -39.575  49.727 -53.112  1.00  0.00     0.270 C 
ENDBRANCH  16  17
BRANCH  16  21
HETATM   21  C   UNL     1     -40.594  53.074 -51.407  1.00  0.00    -0.026 A 
HETATM   22  C   UNL     1     -41.879  53.567 -51.108  1.00  0.00     0.009 A 
HETATM   23  C   UNL     1     -42.071  54.503 -50.090  1.00  0.00     0.001 A 
HETATM   24  C   UNL     1     -40.985  54.968 -49.357  1.00  0.00     0.000 A 
HETATM   25  C   UNL     1     -39.706  54.495 -49.639  1.00  0.00     0.001 A 
HETATM   26  C   UNL     1     -39.510  53.552 -50.652  1.00  0.00     0.009 A 
ENDBRANCH  16  21
ENDBRANCH  15  16
ENDBRANCH  12  15
ENDBRANCH   5  11
BRANCH   1  27
HETATM   27  C   UNL     1     -41.651  58.707 -52.342  1.00  0.00     0.104 A 
HETATM   28  O   UNL     1     -40.355  58.728 -51.901  1.00  0.00    -0.313 OA
HETATM   29  C   UNL     1     -40.304  59.578 -50.835  1.00  0.00     0.050 A 
HETATM   30  C   UNL     1     -38.990  59.754 -50.187  1.00  0.00     0.076 C 
HETATM   31  C   UNL     1     -41.552  60.106 -50.590  1.00  0.00     0.035 A 
HETATM   32  C   UNL     1     -42.419  59.542 -51.555  1.00  0.00     0.042 A 
ENDBRANCH   1  27
TORSDOF 6
ENDMDL
MODEL 4
REMARK VINA RESULT:      -8.2      2.176      5.649
REMARK  6 active torsions:
REMARK  status: ('A' for Active; 'I' for Inactive)
REMARK    1  A    between atoms: C_4  and  C_5 
REMARK    2  A    between atoms: C_9  and  C_10 
REMARK       I    between atoms: C_10  and  N_11 
REMARK    3  A    between atoms: N_11  and  C_12 
REMARK    4  A    between atoms: C_12  and  C_13 
REMARK    5  A    between atoms: C_13  and  N_14 
REMARK    6  A    between atoms: C_13  and  C_18 
ROOT
HETATM    1  C   UNL     1     -41.745  57.517 -51.440  1.00  0.00     0.092 A 
HETATM    2  N   UNL     1     -41.356  56.725 -50.417  1.00  0.00    -0.246 NA
HETATM    3  C   UNL     1     -40.996  55.456 -50.665  1.00  0.00     0.069 A 
HETATM    4  C   UNL     1     -40.990  54.897 -51.960  1.00  0.00     0.008 A 
HETATM    5  C   UNL     1     -41.349  55.774 -53.013  1.00  0.00     0.046 A 
HETATM    6  C   UNL     1     -41.751  57.084 -52.750  1.00  0.00     0.052 A 
HETATM    7  C   UNL     1     -40.626  54.667 -49.586  1.00  0.00     0.032 A 
HETATM    8  C   UNL     1     -40.268  53.327 -49.738  1.00  0.00     0.002 A 
HETATM    9  C   UNL     1     -40.298  52.749 -50.998  1.00  0.00     0.001 A 
HETATM   10  C   UNL     1     -40.664  53.522 -52.101  1.00  0.00     0.015 A 
ENDROOT
BRANCH   5  11
HETATM   11  C   UNL     1     -41.336  55.391 -54.446  1.00  0.00     0.252 C 
HETATM   12  N   UNL     1     -42.552  55.237 -55.071  1.00  0.00    -0.355 N 
HETATM   13  H   UNL     1     -43.382  55.440 -54.518  1.00  0.00     0.162 HD
HETATM   14  O   UNL     1     -40.287  55.091 -55.006  1.00  0.00    -0.268 OA
BRANCH  12  15
HETATM   15  C   UNL     1     -42.751  55.157 -56.524  1.00  0.00     0.161 C 
BRANCH  15  16
HETATM   16  C   UNL     1     -43.070  56.465 -57.334  1.00  0.00     0.237 C 
BRANCH  16  17
HETATM   17  N   UNL     1     -44.155  56.230 -58.386  1.00  0.00    -0.069 N 
HETATM   18  H   UNL     1     -44.987  56.051 -57.794  1.00  0.00     0.279 HD
HETATM   19  C   UNL     1     -44.467  57.376 -59.287  1.00  0.00     0.270 C 
HETATM   20  C   UNL     1     -43.984  54.948 -59.145  1.00  0.00     0.270 C 
ENDBRANCH  16  17
BRANCH  16  21
HETATM   21  C   UNL     1     -43.323  57.683 -56.457  1.00  0.00    -0.026 A 
HETATM   22  C   UNL     1     -44.558  57.804 -55.791  1.00  0.00     0.009 A 
HETATM   23  C   UNL     1     -44.820  58.890 -54.953  1.00  0.00     0.001 A 
HETATM   24  C   UNL     1     -43.857  59.877 -54.772  1.00  0.00     0.000 A 
HETATM   25  C   UNL     1     -42.631  59.778 -55.424  1.00  0.00     0.001 A 
HETATM   26  C   UNL     1     -42.362  58.688 -56.257  1.00  0.00     0.009 A 
ENDBRANCH  16  21
ENDBRANCH  15  16
ENDBRANCH  12  15
ENDBRANCH   5  11
BRANCH   1  27
HETATM   27  C   UNL     1     -42.159  58.859 -51.055  1.00  0.00     0.104 A 
HETATM   28  O   UNL     1     -43.449  59.214 -51.344  1.00  0.00    -0.313 OA
HETATM   29  C   UNL     1     -43.625  60.493 -50.903  1.00  0.00     0.050 A 
HETATM   30  C   UNL     1     -44.956  61.094 -51.117  1.00  0.00     0.076 C 
HETATM   31  C   UNL     1     -42.464  60.961 -50.330  1.00  0.00     0.035 A 
HETATM   32  C   UNL     1     -41.519  59.912 -50.432  1.00  0.00     0.042 A 
ENDBRANCH   1  27
TORSDOF 6
ENDMDL
MODEL 5
REMARK VINA RESULT:      -8.2      2.382      6.748
REMARK  6 active torsions:
REMARK  status: ('A' for Active; 'I' for Inactive)
REMARK    1  A    between atoms: C_4  and  C_5 
REMARK    2  A    between atoms: C_9  and  C_10 
REMARK       I    between atoms: C_10  and  N_11 
REMARK    3  A    between atoms: N_11  and  C_12 
REMARK    4  A    between atoms: C_12  and  C_13 
REMARK    5  A    between atoms: C_13  and  N_14 
REMARK    6  A    between atoms: C_13  and  C_18 
ROOT
HETATM    1  C   UNL     1     -41.783  55.387 -55.132  1.00  0.00     0.092 A 
HETATM    2  N   UNL     1     -42.253  55.031 -56.347  1.00  0.00    -0.246 NA
HETATM    3  C   UNL     1     -42.872  55.946 -57.110  1.00  0.00     0.069 A 
HETATM    4  C   UNL     1     -43.051  57.287 -56.710  1.00  0.00     0.008 A 
HETATM    5  C   UNL     1     -42.494  57.636 -55.455  1.00  0.00     0.046 A 
HETATM    6  C   UNL     1     -41.878  56.677 -54.651  1.00  0.00     0.052 A 
HETATM    7  C   UNL     1     -43.362  55.536 -58.341  1.00  0.00     0.032 A 
HETATM    8  C   UNL     1     -44.049  56.406 -59.190  1.00  0.00     0.002 A 
HETATM    9  C   UNL     1     -44.272  57.716 -58.795  1.00  0.00     0.001 A 
HETATM   10  C   UNL     1     -43.786  58.154 -57.562  1.00  0.00     0.015 A 
ENDROOT
BRANCH   5  11
HETATM   11  C   UNL     1     -42.520  59.010 -54.896  1.00  0.00     0.252 C 
HETATM   12  N   UNL     1     -43.658  59.400 -54.228  1.00  0.00    -0.355 N 
HETATM   13  H   UNL     1     -44.393  58.703 -54.124  1.00  0.00     0.162 HD
HETATM   14  O   UNL     1     -41.618  59.804 -55.141  1.00  0.00    -0.268 OA
BRANCH  12  15
HETATM   15  C   UNL     1     -43.767  60.582 -53.363  1.00  0.00     0.161 C 
BRANCH  15  16
HETATM   16  C   UNL     1     -43.659  60.412 -51.804  1.00  0.00     0.237 C 
BRANCH  16  17
HETATM   17  N   UNL     1     -45.037  60.317 -51.148  1.00  0.00    -0.069 N 
HETATM   18  H   UNL     1     -45.190  59.292 -51.127  1.00  0.00     0.279 HD
HETATM   19  C   UNL     1     -45.145  60.828 -49.752  1.00  0.00     0.270 C 
HETATM   20  C   UNL     1     -46.150  60.819 -52.019  1.00  0.00     0.270 C 
ENDBRANCH  16  17
BRANCH  16  21
HETATM   21  C   UNL     1     -42.699  59.313 -51.372  1.00  0.00    -0.026 A 
HETATM   22  C   UNL     1     -43.170  57.988 -51.279  1.00  0.00     0.009 A 
HETATM   23  C   UNL     1     -42.316  56.946 -50.916  1.00  0.00     0.001 A 
HETATM   24  C   UNL     1     -40.980  57.207 -50.632  1.00  0.00     0.000 A 
HETATM   25  C   UNL     1     -40.495  58.509 -50.714  1.00  0.00     0.001 A 
HETATM   26  C   UNL     1     -41.345  59.555 -51.086  1.00  0.00     0.009 A 
ENDBRANCH  16  21
ENDBRANCH  15  16
ENDBRANCH  12  15
ENDBRANCH   5  11
BRANCH   1  27
HETATM   27  C   UNL     1     -41.172  54.308 -54.370  1.00  0.00     0.104 A 
HETATM   28  O   UNL     1     -41.096  54.476 -53.013  1.00  0.00    -0.313 OA
HETATM   29  C   UNL     1     -40.498  53.362 -52.500  1.00  0.00     0.050 A 
HETATM   30  C   UNL     1     -40.303  53.325 -51.037  1.00  0.00     0.076 C 
HETATM   31  C   UNL     1     -40.194  52.479 -53.512  1.00  0.00     0.035 A 
HETATM   32  C   UNL     1     -40.623  53.089 -54.714  1.00  0.00     0.042 A 
ENDBRANCH   1  27
TORSDOF 6
ENDMDL
MODEL 6
REMARK VINA RESULT:      -8.2      2.764      7.107
REMARK  6 active torsions:
REMARK  status: ('A' for Active; 'I' for Inactive)
REMARK    1  A    between atoms: C_4  and  C_5 
REMARK    2  A    between atoms: C_9  and  C_10 
REMARK       I    between atoms: C_10  and  N_11 
REMARK    3  A    between atoms: N_11  and  C_12 
REMARK    4  A    between atoms: C_12  and  C_13 
REMARK    5  A    between atoms: C_13  and  N_14 
REMARK    6  A    between atoms: C_13  and  C_18 
ROOT
HETATM    1  C   UNL     1     -41.115  54.729 -54.261  1.00  0.00     0.092 A 
HETATM    2  N   UNL     1     -41.724  54.563 -55.456  1.00  0.00    -0.246 NA
HETATM    3  C   UNL     1     -42.253  55.626 -56.080  1.00  0.00     0.069 A 
HETATM    4  C   UNL     1     -42.197  56.933 -55.555  1.00  0.00     0.008 A 
HETATM    5  C   UNL     1     -41.501  57.077 -54.330  1.00  0.00     0.046 A 
HETATM    6  C   UNL     1     -40.977  55.966 -53.667  1.00  0.00     0.052 A 
HETATM    7  C   UNL     1     -42.891  55.411 -57.293  1.00  0.00     0.032 A 
HETATM    8  C   UNL     1     -43.501  56.447 -58.001  1.00  0.00     0.002 A 
HETATM    9  C   UNL     1     -43.493  57.732 -57.479  1.00  0.00     0.001 A 
HETATM   10  C   UNL     1     -42.855  57.975 -56.262  1.00  0.00     0.015 A 
ENDROOT
BRANCH   5  11
HETATM   11  C   UNL     1     -41.276  58.380 -53.657  1.00  0.00     0.252 C 
HETATM   12  N   UNL     1     -42.387  59.080 -53.246  1.00  0.00    -0.355 N 
HETATM   13  H   UNL     1     -43.291  58.636 -53.393  1.00  0.00     0.162 HD
HETATM   14  O   UNL     1     -40.153  58.870 -53.596  1.00  0.00    -0.268 OA
BRANCH  12  15
HETATM   15  C   UNL     1     -42.374  60.218 -52.317  1.00  0.00     0.161 C 
BRANCH  15  16
HETATM   16  C   UNL     1     -42.731  59.985 -50.805  1.00  0.00     0.237 C 
BRANCH  16  17
HETATM   17  N   UNL     1     -41.600  59.275 -50.058  1.00  0.00    -0.069 N 
HETATM   18  H   UNL     1     -41.819  59.510 -49.073  1.00  0.00     0.279 HD
HETATM   19  C   UNL     1     -41.553  57.790 -50.180  1.00  0.00     0.270 C 
HETATM   20  C   UNL     1     -40.254  59.901 -50.276  1.00  0.00     0.270 C 
ENDBRANCH  16  17
BRANCH  16  21
HETATM   21  C   UNL     1     -43.243  61.231 -50.096  1.00  0.00    -0.026 A 
HETATM   22  C   UNL     1     -42.754  62.493 -50.487  1.00  0.00     0.009 A 
HETATM   23  C   UNL     1     -43.220  63.662 -49.884  1.00  0.00     0.001 A 
HETATM   24  C   UNL     1     -44.176  63.593 -48.876  1.00  0.00     0.000 A 
HETATM   25  C   UNL     1     -44.669  62.355 -48.473  1.00  0.00     0.001 A 
HETATM   26  C   UNL     1     -44.212  61.182 -49.080  1.00  0.00     0.009 A 
ENDBRANCH  16  21
ENDBRANCH  15  16
ENDBRANCH  12  15
ENDBRANCH   5  11
BRANCH   1  27
HETATM   27  C   UNL     1     -40.618  53.504 -53.650  1.00  0.00     0.104 A 
HETATM   28  O   UNL     1     -40.450  52.426 -54.476  1.00  0.00    -0.313 OA
HETATM   29  C   UNL     1     -39.982  51.398 -53.709  1.00  0.00     0.050 A 
HETATM   30  C   UNL     1     -39.730  50.116 -54.396  1.00  0.00     0.076 C 
HETATM   31  C   UNL     1     -39.843  51.807 -52.402  1.00  0.00     0.035 A 
HETATM   32  C   UNL     1     -40.258  53.160 -52.363  1.00  0.00     0.042 A 
ENDBRANCH   1  27
TORSDOF 6
ENDMDL
MODEL 7
REMARK VINA RESULT:      -8.1      1.802      3.463
REMARK  6 active torsions:
REMARK  status: ('A' for Active; 'I' for Inactive)
REMARK    1  A    between atoms: C_4  and  C_5 
REMARK    2  A    between atoms: C_9  and  C_10 
REMARK       I    between atoms: C_10  and  N_11 
REMARK    3  A    between atoms: N_11  and  C_12 
REMARK    4  A    between atoms: C_12  and  C_13 
REMARK    5  A    between atoms: C_13  and  N_14 
REMARK    6  A    between atoms: C_13  and  C_18 
ROOT
HETATM    1  C   UNL     1     -41.124  55.032 -54.258  1.00  0.00     0.092 A 
HETATM    2  N   UNL     1     -40.917  56.020 -53.361  1.00  0.00    -0.246 NA
HETATM    3  C   UNL     1     -41.285  57.275 -53.665  1.00  0.00     0.069 A 
HETATM    4  C   UNL     1     -41.898  57.623 -54.886  1.00  0.00     0.008 A 
HETATM    5  C   UNL     1     -42.152  56.551 -55.777  1.00  0.00     0.046 A 
HETATM    6  C   UNL     1     -41.741  55.252 -55.472  1.00  0.00     0.052 A 
HETATM    7  C   UNL     1     -41.034  58.266 -52.727  1.00  0.00     0.032 A 
HETATM    8  C   UNL     1     -41.350  59.604 -52.964  1.00  0.00     0.002 A 
HETATM    9  C   UNL     1     -41.914  59.971 -54.176  1.00  0.00     0.001 A 
HETATM   10  C   UNL     1     -42.180  58.993 -55.135  1.00  0.00     0.015 A 
ENDROOT
BRANCH   5  11
HETATM   11  C   UNL     1     -42.849  56.706 -57.077  1.00  0.00     0.252 C 
HETATM   12  N   UNL     1     -42.069  56.877 -58.197  1.00  0.00    -0.355 N 
HETATM   13  H   UNL     1     -41.060  56.842 -58.065  1.00  0.00     0.162 HD
HETATM   14  O   UNL     1     -44.070  56.816 -57.125  1.00  0.00    -0.268 OA
BRANCH  12  15
HETATM   15  C   UNL     1     -42.540  56.752 -59.583  1.00  0.00     0.161 C 
BRANCH  15  16
HETATM   16  C   UNL     1     -43.234  57.980 -60.276  1.00  0.00     0.237 C 
BRANCH  16  17
HETATM   17  N   UNL     1     -44.727  58.045 -59.952  1.00  0.00    -0.069 N 
HETATM   18  H   UNL     1     -44.715  58.114 -58.918  1.00  0.00     0.279 HD
HETATM   19  C   UNL     1     -45.472  59.221 -60.485  1.00  0.00     0.270 C 
HETATM   20  C   UNL     1     -45.451  56.757 -60.208  1.00  0.00     0.270 C 
ENDBRANCH  16  17
BRANCH  16  21
HETATM   21  C   UNL     1     -42.504  59.298 -60.063  1.00  0.00    -0.026 A 
HETATM   22  C   UNL     1     -42.052  60.022 -61.184  1.00  0.00     0.009 A 
HETATM   23  C   UNL     1     -41.406  61.250 -61.034  1.00  0.00     0.001 A 
HETATM   24  C   UNL     1     -41.193  61.775 -59.764  1.00  0.00     0.000 A 
HETATM   25  C   UNL     1     -41.629  61.074 -58.642  1.00  0.00     0.001 A 
HETATM   26  C   UNL     1     -42.284  59.848 -58.788  1.00  0.00     0.009 A 
ENDBRANCH  16  21
ENDBRANCH  15  16
ENDBRANCH  12  15
ENDBRANCH   5  11
BRANCH   1  27
HETATM   27  C   UNL     1     -40.645  53.720 -53.848  1.00  0.00     0.104 A 
HETATM   28  O   UNL     1     -40.534  53.496 -52.502  1.00  0.00    -0.313 OA
HETATM   29  C   UNL     1     -40.075  52.221 -52.340  1.00  0.00     0.050 A 
HETATM   30  C   UNL     1     -39.872  51.758 -50.953  1.00  0.00     0.076 C 
HETATM   31  C   UNL     1     -39.894  51.623 -53.567  1.00  0.00     0.035 A 
HETATM   32  C   UNL     1     -40.255  52.589 -54.537  1.00  0.00     0.042 A 
ENDBRANCH   1  27
TORSDOF 6
ENDMDL
MODEL 8
REMARK VINA RESULT:      -8.1      1.197      2.866
REMARK  6 active torsions:
REMARK  status: ('A' for Active; 'I' for Inactive)
REMARK    1  A    between atoms: C_4  and  C_5 
REMARK    2  A    between atoms: C_9  and  C_10 
REMARK       I    between atoms: C_10  and  N_11 
REMARK    3  A    between atoms: N_11  and  C_12 
REMARK    4  A    between atoms: C_12  and  C_13 
REMARK    5  A    between atoms: C_13  and  N_14 
REMARK    6  A    between atoms: C_13  and  C_18 
ROOT
HETATM    1  C   UNL     1     -41.197  54.141 -53.112  1.00  0.00     0.092 A 
HETATM    2  N   UNL     1     -40.820  54.820 -52.007  1.00  0.00    -0.246 NA
HETATM    3  C   UNL     1     -41.270  56.070 -51.815  1.00  0.00     0.069 A 
HETATM    4  C   UNL     1     -42.141  56.721 -52.713  1.00  0.00     0.008 A 
HETATM    5  C   UNL     1     -42.560  55.956 -53.830  1.00  0.00     0.046 A 
HETATM    6  C   UNL     1     -42.068  54.668 -54.043  1.00  0.00     0.052 A 
HETATM    7  C   UNL     1     -40.841  56.743 -50.681  1.00  0.00     0.032 A 
HETATM    8  C   UNL     1     -41.227  58.057 -50.411  1.00  0.00     0.002 A 
HETATM    9  C   UNL     1     -42.049  58.727 -51.304  1.00  0.00     0.001 A 
HETATM   10  C   UNL     1     -42.496  58.071 -52.451  1.00  0.00     0.015 A 
ENDROOT
BRANCH   5  11
HETATM   11  C   UNL     1     -43.526  56.442 -54.846  1.00  0.00     0.252 C 
HETATM   12  N   UNL     1     -43.021  56.827 -56.066  1.00  0.00    -0.355 N 
HETATM   13  H   UNL     1     -42.019  56.712 -56.207  1.00  0.00     0.162 HD
HETATM   14  O   UNL     1     -44.704  56.620 -54.556  1.00  0.00    -0.268 OA
BRANCH  12  15
HETATM   15  C   UNL     1     -43.819  57.049 -57.279  1.00  0.00     0.161 C 
BRANCH  15  16
HETATM   16  C   UNL     1     -43.127  56.954 -58.687  1.00  0.00     0.237 C 
BRANCH  16  17
HETATM   17  N   UNL     1     -43.958  56.132 -59.673  1.00  0.00    -0.069 N 
HETATM   18  H   UNL     1     -43.414  56.241 -60.549  1.00  0.00     0.279 HD
HETATM   19  C   UNL     1     -44.083  54.675 -59.386  1.00  0.00     0.270 C 
HETATM   20  C   UNL     1     -45.281  56.756 -60.005  1.00  0.00     0.270 C 
ENDBRANCH  16  17
BRANCH  16  21
HETATM   21  C   UNL     1     -42.674  58.297 -59.240  1.00  0.00    -0.026 A 
HETATM   22  C   UNL     1     -42.688  59.426 -58.398  1.00  0.00     0.009 A 
HETATM   23  C   UNL     1     -42.252  60.670 -58.856  1.00  0.00     0.001 A 
HETATM   24  C   UNL     1     -41.801  60.812 -60.164  1.00  0.00     0.000 A 
HETATM   25  C   UNL     1     -41.782  59.709 -61.014  1.00  0.00     0.001 A 
HETATM   26  C   UNL     1     -42.210  58.460 -60.557  1.00  0.00     0.009 A 
ENDBRANCH  16  21
ENDBRANCH  15  16
ENDBRANCH  12  15
ENDBRANCH   5  11
BRANCH   1  27
HETATM   27  C   UNL     1     -40.615  52.813 -53.246  1.00  0.00     0.104 A 
HETATM   28  O   UNL     1     -40.273  52.169 -52.087  1.00  0.00    -0.313 OA
HETATM   29  C   UNL     1     -39.753  50.957 -52.435  1.00  0.00     0.050 A 
HETATM   30  C   UNL     1     -39.305  50.083 -51.334  1.00  0.00     0.076 C 
HETATM   31  C   UNL     1     -39.762  50.814 -53.805  1.00  0.00     0.035 A 
HETATM   32  C   UNL     1     -40.311  52.009 -54.326  1.00  0.00     0.042 A 
ENDBRANCH   1  27
TORSDOF 6
ENDMDL
MODEL 9
REMARK VINA RESULT:      -8.0      1.829      3.517
REMARK  6 active torsions:
REMARK  status: ('A' for Active; 'I' for Inactive)
REMARK    1  A    between atoms: C_4  and  C_5 
REMARK    2  A    between atoms: C_9  and  C_10 
REMARK       I    between atoms: C_10  and  N_11 
REMARK    3  A    between atoms: N_11  and  C_12 
REMARK    4  A    between atoms: C_12  and  C_13 
REMARK    5  A    between atoms: C_13  and  N_14 
REMARK    6  A    between atoms: C_13  and  C_18 
ROOT
HETATM    1  C   UNL     1     -41.857  54.177 -54.155  1.00  0.00     0.092 A 
HETATM    2  N   UNL     1     -42.469  54.983 -53.260  1.00  0.00    -0.246 NA
HETATM    3  C   UNL     1     -43.241  55.989 -53.697  1.00  0.00     0.069 A 
HETATM    4  C   UNL     1     -43.464  56.250 -55.065  1.00  0.00     0.008 A 
HETATM    5  C   UNL     1     -42.853  55.350 -55.972  1.00  0.00     0.046 A 
HETATM    6  C   UNL     1     -42.026  54.322 -55.516  1.00  0.00     0.052 A 
HETATM    7  C   UNL     1     -43.833  56.809 -52.747  1.00  0.00     0.032 A 
HETATM    8  C   UNL     1     -44.626  57.900 -53.104  1.00  0.00     0.002 A 
HETATM    9  C   UNL     1     -44.821  58.197 -54.444  1.00  0.00     0.001 A 
HETATM   10  C   UNL     1     -44.239  57.386 -55.419  1.00  0.00     0.015 A 
ENDROOT
BRANCH   5  11
HETATM   11  C   UNL     1     -43.026  55.418 -57.444  1.00  0.00     0.252 C 
HETATM   12  N   UNL     1     -42.355  56.414 -58.114  1.00  0.00    -0.355 N 
HETATM   13  H   UNL     1     -41.749  57.015 -57.560  1.00  0.00     0.162 HD
HETATM   14  O   UNL     1     -43.841  54.700 -58.014  1.00  0.00    -0.268 OA
BRANCH  12  15
HETATM   15  C   UNL     1     -42.159  56.470 -59.569  1.00  0.00     0.161 C 
BRANCH  15  16
HETATM   16  C   UNL     1     -42.771  57.666 -60.386  1.00  0.00     0.237 C 
BRANCH  16  17
HETATM   17  N   UNL     1     -44.293  57.557 -60.495  1.00  0.00    -0.069 N 
HETATM   18  H   UNL     1     -44.487  58.153 -61.320  1.00  0.00     0.279 HD
HETATM   19  C   UNL     1     -44.845  56.200 -60.766  1.00  0.00     0.270 C 
HETATM   20  C   UNL     1     -45.023  58.251 -59.383  1.00  0.00     0.270 C 
ENDBRANCH  16  17
BRANCH  16  21
HETATM   21  C   UNL     1     -42.287  59.034 -59.927  1.00  0.00    -0.026 A 
HETATM   22  C   UNL     1     -41.963  59.228 -58.571  1.00  0.00     0.009 A 
HETATM   23  C   UNL     1     -41.486  60.458 -58.114  1.00  0.00     0.001 A 
HETATM   24  C   UNL     1     -41.332  61.518 -59.001  1.00  0.00     0.000 A 
HETATM   25  C   UNL     1     -41.650  61.348 -60.346  1.00  0.00     0.001 A 
HETATM   26  C   UNL     1     -42.119  60.115 -60.809  1.00  0.00     0.009 A 
ENDBRANCH  16  21
ENDBRANCH  15  16
ENDBRANCH  12  15
ENDBRANCH   5  11
BRANCH   1  27
HETATM   27  C   UNL     1     -41.006  53.148 -53.574  1.00  0.00     0.104 A 
HETATM   28  O   UNL     1     -40.730  52.061 -54.358  1.00  0.00    -0.313 OA
HETATM   29  C   UNL     1     -39.927  51.231 -53.631  1.00  0.00     0.050 A 
HETATM   30  C   UNL     1     -39.502  49.976 -54.282  1.00  0.00     0.076 C 
HETATM   31  C   UNL     1     -39.681  51.777 -52.391  1.00  0.00     0.035 A 
HETATM   32  C   UNL     1     -40.380  53.007 -52.352  1.00  0.00     0.042 A 
ENDBRANCH   1  27
TORSDOF 6
ENDMDL
MODEL 10
REMARK VINA RESULT:      -7.9      1.422      2.737
REMARK  6 active torsions:
REMARK  status: ('A' for Active; 'I' for Inactive)
REMARK    1  A    between atoms: C_4  and  C_5 
REMARK    2  A    between atoms: C_9  and  C_10 
REMARK       I    between atoms: C_10  and  N_11 
REMARK    3  A    between atoms: N_11  and  C_12 
REMARK    4  A    between atoms: C_12  and  C_13 
REMARK    5  A    between atoms: C_13  and  N_14 
REMARK    6  A    between atoms: C_13  and  C_18 
ROOT
HETATM    1  C   UNL     1     -41.375  55.280 -52.412  1.00  0.00     0.092 A 
HETATM    2  N   UNL     1     -40.950  56.156 -51.475  1.00  0.00    -0.246 NA
HETATM    3  C   UNL     1     -41.427  57.410 -51.480  1.00  0.00     0.069 A 
HETATM    4  C   UNL     1     -42.374  57.870 -52.418  1.00  0.00     0.008 A 
HETATM    5  C   UNL     1     -42.839  56.908 -53.348  1.00  0.00     0.046 A 
HETATM    6  C   UNL     1     -42.320  55.613 -53.361  1.00  0.00     0.052 A 
HETATM    7  C   UNL     1     -40.948  58.287 -50.516  1.00  0.00     0.032 A 
HETATM    8  C   UNL     1     -41.359  59.619 -50.460  1.00  0.00     0.002 A 
HETATM    9  C   UNL     1     -42.257  60.100 -51.401  1.00  0.00     0.001 A 
HETATM   10  C   UNL     1     -42.756  59.238 -52.378  1.00  0.00     0.015 A 
ENDROOT
BRANCH   5  11
HETATM   11  C   UNL     1     -43.883  57.182 -54.366  1.00  0.00     0.252 C 
HETATM   12  N   UNL     1     -43.461  57.588 -55.611  1.00  0.00    -0.355 N 
HETATM   13  H   UNL     1     -42.456  57.631 -55.765  1.00  0.00     0.162 HD
HETATM   14  O   UNL     1     -45.071  57.179 -54.062  1.00  0.00    -0.268 OA
BRANCH  12  15
HETATM   15  C   UNL     1     -44.299  57.620 -56.818  1.00  0.00     0.161 C 
BRANCH  15  16
HETATM   16  C   UNL     1     -43.715  57.089 -58.177  1.00  0.00     0.237 C 
BRANCH  16  17
HETATM   17  N   UNL     1     -44.688  56.141 -58.880  1.00  0.00    -0.069 N 
HETATM   18  H   UNL     1     -45.157  55.687 -58.075  1.00  0.00     0.279 HD
HETATM   19  C   UNL     1     -45.737  56.773 -59.729  1.00  0.00     0.270 C 
HETATM   20  C   UNL     1     -44.010  54.999 -59.578  1.00  0.00     0.270 C 
ENDBRANCH  16  17
BRANCH  16  21
HETATM   21  C   UNL     1     -43.170  58.185 -59.081  1.00  0.00    -0.026 A 
HETATM   22  C   UNL     1     -43.558  59.520 -58.852  1.00  0.00     0.009 A 
HETATM   23  C   UNL     1     -43.058  60.559 -59.638  1.00  0.00     0.001 A 
HETATM   24  C   UNL     1     -42.169  60.285 -60.671  1.00  0.00     0.000 A 
HETATM   25  C   UNL     1     -41.775  58.972 -60.917  1.00  0.00     0.001 A 
HETATM   26  C   UNL     1     -42.267  57.930 -60.126  1.00  0.00     0.009 A 
ENDBRANCH  16  21
ENDBRANCH  15  16
ENDBRANCH  12  15
ENDBRANCH   5  11
BRANCH   1  27
HETATM   27  C   UNL     1     -40.759  53.963 -52.345  1.00  0.00     0.104 A 
HETATM   28  O   UNL     1     -40.786  53.210 -53.488  1.00  0.00    -0.313 OA
HETATM   29  C   UNL     1     -40.163  52.028 -53.209  1.00  0.00     0.050 A 
HETATM   30  C   UNL     1     -40.077  51.045 -54.307  1.00  0.00     0.076 C 
HETATM   31  C   UNL     1     -39.733  52.016 -51.901  1.00  0.00     0.035 A 
HETATM   32  C   UNL     1     -40.122  53.258 -51.344  1.00  0.00     0.042 A 
ENDBRANCH   1  27
TORSDOF 6
ENDMDL
