MODEL 1
REMARK VINA RESULT:      -8.5      0.000      0.000
REMARK  4 active torsions:
REMARK  status: ('A' for Active; 'I' for Inactive)
REMARK    1  A    between atoms: C_8  and  C_9 
REMARK       I    between atoms: C_9  and  N_10 
REMARK    2  A    between atoms: N_10  and  C_11 
REMARK    3  A    between atoms: C_13  and  C_14 
REMARK       I    between atoms: C_14  and  N_15 
REMARK    4  A    between atoms: N_15  and  C_16 
ROOT
HETATM    1  C   UNL     1     -40.955  54.731 -53.783  1.00  0.00     0.277 C 
HETATM    2  N   UNL     1     -42.306  54.998 -53.649  1.00  0.00    -0.322 N 
HETATM    3  O   UNL     1     -40.188  55.270 -54.574  1.00  0.00    -0.266 OA
HETATM    4  H   UNL     1     -42.768  54.396 -52.969  1.00  0.00     0.169 HD
ENDROOT
BRANCH   2   5
HETATM    5  C   UNL     1     -43.081  55.953 -54.328  1.00  0.00     0.036 A 
HETATM    6  C   UNL     1     -43.100  56.082 -55.720  1.00  0.00     0.046 A 
HETATM    7  C   UNL     1     -43.903  57.056 -56.331  1.00  0.00     0.034 A 
HETATM    8  C   UNL     1     -44.665  57.925 -55.542  1.00  0.00     0.017 A 
HETATM    9  C   UNL     1     -44.642  57.806 -54.153  1.00  0.00     0.003 A 
HETATM   10  C   UNL     1     -43.854  56.823 -53.551  1.00  0.00     0.029 A 
BRANCH   7  11
HETATM   11  C   UNL     1     -43.942  57.227 -57.812  1.00  0.00     0.252 C 
HETATM   12  N   UNL     1     -44.705  56.313 -58.515  1.00  0.00    -0.352 N 
HETATM   13  H   UNL     1     -45.273  55.642 -58.012  1.00  0.00     0.163 HD
HETATM   14  O   UNL     1     -43.337  58.157 -58.333  1.00  0.00    -0.268 OA
BRANCH  12  15
HETATM   15  C   UNL     1     -44.798  56.328 -59.940  1.00  0.00     0.084 A 
HETATM   16  C   UNL     1     -44.807  55.036 -60.707  1.00  0.00     0.027 A 
HETATM   17  C   UNL     1     -46.051  55.870 -60.633  1.00  0.00     0.027 A 
ENDBRANCH  12  15
ENDBRANCH   7  11
ENDBRANCH   2   5
BRANCH   1  18
HETATM   18  C   UNL     1     -40.512  53.676 -52.852  1.00  0.00     0.157 A 
HETATM   19  C   UNL     1     -40.252  52.307 -53.152  1.00  0.00     0.028 A 
HETATM   20  C   UNL     1     -40.307  51.490 -54.298  1.00  0.00     0.016 A 
HETATM   21  C   UNL     1     -39.852  51.742 -51.946  1.00  0.00     0.063 A 
HETATM   22  C   UNL     1     -39.957  50.139 -54.187  1.00  0.00     0.001 A 
HETATM   23  C   UNL     1     -39.558  49.604 -52.964  1.00  0.00     0.002 A 
HETATM   24  C   UNL     1     -39.496  50.396 -51.812  1.00  0.00     0.032 A 
HETATM   25  N   UNL     1     -39.900  52.762 -51.037  1.00  0.00    -0.277 N 
HETATM   26  H   UNL     1     -39.669  52.713 -50.050  1.00  0.00     0.189 HD
HETATM   27  N   UNL     1     -40.298  53.944 -51.542  1.00  0.00    -0.168 NA
ENDBRANCH   1  18
TORSDOF 4
ENDMDL
MODEL 2
REMARK VINA RESULT:      -7.9      1.808      8.301
REMARK  4 active torsions:
REMARK  status: ('A' for Active; 'I' for Inactive)
REMARK    1  A    between atoms: C_8  and  C_9 
REMARK       I    between atoms: C_9  and  N_10 
REMARK    2  A    between atoms: N_10  and  C_11 
REMARK    3  A    between atoms: C_13  and  C_14 
REMARK       I    between atoms: C_14  and  N_15 
REMARK    4  A    between atoms: N_15  and  C_16 
ROOT
HETATM    1  C   UNL     1     -43.210  56.057 -57.601  1.00  0.00     0.277 C 
HETATM    2  N   UNL     1     -43.537  55.242 -56.531  1.00  0.00    -0.322 N 
HETATM    3  O   UNL     1     -42.337  56.920 -57.610  1.00  0.00    -0.266 OA
HETATM    4  H   UNL     1     -44.329  54.631 -56.720  1.00  0.00     0.169 HD
ENDROOT
BRANCH   2   5
HETATM    5  C   UNL     1     -42.934  55.178 -55.264  1.00  0.00     0.036 A 
HETATM    6  C   UNL     1     -42.039  54.173 -54.885  1.00  0.00     0.046 A 
HETATM    7  C   UNL     1     -41.470  54.175 -53.604  1.00  0.00     0.034 A 
HETATM    8  C   UNL     1     -41.824  55.171 -52.687  1.00  0.00     0.017 A 
HETATM    9  C   UNL     1     -42.723  56.170 -53.056  1.00  0.00     0.003 A 
HETATM   10  C   UNL     1     -43.273  56.172 -54.340  1.00  0.00     0.029 A 
BRANCH   7  11
HETATM   11  C   UNL     1     -40.518  53.114 -53.164  1.00  0.00     0.252 C 
HETATM   12  N   UNL     1     -40.175  52.168 -54.111  1.00  0.00    -0.352 N 
HETATM   13  H   UNL     1     -40.491  52.277 -55.067  1.00  0.00     0.163 HD
HETATM   14  O   UNL     1     -40.069  53.135 -52.023  1.00  0.00    -0.268 OA
BRANCH  12  15
HETATM   15  C   UNL     1     -39.310  51.069 -53.817  1.00  0.00     0.084 A 
HETATM   16  C   UNL     1     -39.821  49.901 -53.022  1.00  0.00     0.027 A 
HETATM   17  C   UNL     1     -39.512  49.735 -54.480  1.00  0.00     0.027 A 
ENDBRANCH  12  15
ENDBRANCH   7  11
ENDBRANCH   2   5
BRANCH   1  18
HETATM   18  C   UNL     1     -44.061  55.785 -58.774  1.00  0.00     0.157 A 
HETATM   19  C   UNL     1     -45.168  56.553 -59.239  1.00  0.00     0.028 A 
HETATM   20  C   UNL     1     -45.834  57.726 -58.833  1.00  0.00     0.016 A 
HETATM   21  C   UNL     1     -45.616  55.889 -60.376  1.00  0.00     0.063 A 
HETATM   22  C   UNL     1     -46.922  58.185 -59.583  1.00  0.00     0.001 A 
HETATM   23  C   UNL     1     -47.346  57.497 -60.719  1.00  0.00     0.002 A 
HETATM   24  C   UNL     1     -46.700  56.330 -61.142  1.00  0.00     0.032 A 
HETATM   25  N   UNL     1     -44.790  54.809 -60.512  1.00  0.00    -0.277 N 
HETATM   26  H   UNL     1     -44.823  54.101 -61.238  1.00  0.00     0.189 HD
HETATM   27  N   UNL     1     -43.841  54.707 -59.563  1.00  0.00    -0.168 NA
ENDBRANCH   1  18
TORSDOF 4
ENDMDL
MODEL 3
REMARK VINA RESULT:      -7.9      1.714      7.667
REMARK  4 active torsions:
REMARK  status: ('A' for Active; 'I' for Inactive)
REMARK    1  A    between atoms: C_8  and  C_9 
REMARK       I    between atoms: C_9  and  N_10 
REMARK    2  A    between atoms: N_10  and  C_11 
REMARK    3  A    between atoms: C_13  and  C_14 
REMARK       I    between atoms: C_14  and  N_15 
REMARK    4  A    between atoms: N_15  and  C_16 
ROOT
HETATM    1  C   UNL     1     -43.091  57.120 -56.279  1.00  0.00     0.277 C 
HETATM    2  N   UNL     1     -43.615  56.089 -55.518  1.00  0.00    -0.322 N 
HETATM    3  O   UNL     1     -42.113  57.803 -55.992  1.00  0.00    -0.266 OA
HETATM    4  H   UNL     1     -44.463  55.689 -55.915  1.00  0.00     0.169 HD
ENDROOT
BRANCH   2   5
HETATM    5  C   UNL     1     -43.137  55.568 -54.305  1.00  0.00     0.036 A 
HETATM    6  C   UNL     1     -42.121  54.611 -54.222  1.00  0.00     0.046 A 
HETATM    7  C   UNL     1     -41.690  54.139 -52.974  1.00  0.00     0.034 A 
HETATM    8  C   UNL     1     -42.302  54.605 -51.805  1.00  0.00     0.017 A 
HETATM    9  C   UNL     1     -43.322  55.551 -51.882  1.00  0.00     0.003 A 
HETATM   10  C   UNL     1     -43.735  56.030 -53.127  1.00  0.00     0.029 A 
BRANCH   7  11
HETATM   11  C   UNL     1     -40.614  53.113 -52.850  1.00  0.00     0.252 C 
HETATM   12  N   UNL     1     -40.483  52.232 -53.907  1.00  0.00    -0.352 N 
HETATM   13  H   UNL     1     -41.035  52.368 -54.746  1.00  0.00     0.163 HD
HETATM   14  O   UNL     1     -39.892  53.106 -51.860  1.00  0.00    -0.268 OA
BRANCH  12  15
HETATM   15  C   UNL     1     -39.527  51.171 -53.905  1.00  0.00     0.084 A 
HETATM   16  C   UNL     1     -39.809  49.905 -53.145  1.00  0.00     0.027 A 
HETATM   17  C   UNL     1     -39.801  49.890 -54.644  1.00  0.00     0.027 A 
ENDBRANCH  12  15
ENDBRANCH   7  11
ENDBRANCH   2   5
BRANCH   1  18
HETATM   18  C   UNL     1     -43.867  57.334 -57.515  1.00  0.00     0.157 A 
HETATM   19  C   UNL     1     -44.167  56.377 -58.528  1.00  0.00     0.028 A 
HETATM   20  C   UNL     1     -43.887  55.016 -58.755  1.00  0.00     0.016 A 
HETATM   21  C   UNL     1     -44.929  57.068 -59.463  1.00  0.00     0.063 A 
HETATM   22  C   UNL     1     -44.382  54.403 -59.912  1.00  0.00     0.001 A 
HETATM   23  C   UNL     1     -45.144  55.123 -60.830  1.00  0.00     0.002 A 
HETATM   24  C   UNL     1     -45.436  56.476 -60.625  1.00  0.00     0.032 A 
HETATM   25  N   UNL     1     -45.029  58.342 -58.978  1.00  0.00    -0.277 N 
HETATM   26  H   UNL     1     -45.519  59.122 -59.402  1.00  0.00     0.189 HD
HETATM   27  N   UNL     1     -44.398  58.545 -57.806  1.00  0.00    -0.168 NA
ENDBRANCH   1  18
TORSDOF 4
ENDMDL
MODEL 4
REMARK VINA RESULT:      -7.7      3.676      5.830
REMARK  4 active torsions:
REMARK  status: ('A' for Active; 'I' for Inactive)
REMARK    1  A    between atoms: C_8  and  C_9 
REMARK       I    between atoms: C_9  and  N_10 
REMARK    2  A    between atoms: N_10  and  C_11 
REMARK    3  A    between atoms: C_13  and  C_14 
REMARK       I    between atoms: C_14  and  N_15 
REMARK    4  A    between atoms: N_15  and  C_16 
ROOT
HETATM    1  C   UNL     1     -41.368  55.430 -51.251  1.00  0.00     0.277 C 
HETATM    2  N   UNL     1     -42.497  55.505 -52.048  1.00  0.00    -0.322 N 
HETATM    3  O   UNL     1     -40.829  56.370 -50.675  1.00  0.00    -0.266 OA
HETATM    4  H   UNL     1     -42.745  54.614 -52.475  1.00  0.00     0.169 HD
ENDROOT
BRANCH   2   5
HETATM    5  C   UNL     1     -43.294  56.625 -52.334  1.00  0.00     0.036 A 
HETATM    6  C   UNL     1     -44.007  57.334 -51.362  1.00  0.00     0.046 A 
HETATM    7  C   UNL     1     -44.778  58.449 -51.720  1.00  0.00     0.034 A 
HETATM    8  C   UNL     1     -44.861  58.836 -53.062  1.00  0.00     0.017 A 
HETATM    9  C   UNL     1     -44.160  58.127 -54.036  1.00  0.00     0.003 A 
HETATM   10  C   UNL     1     -43.380  57.028 -53.672  1.00  0.00     0.029 A 
BRANCH   7  11
HETATM   11  C   UNL     1     -45.558  59.222 -50.711  1.00  0.00     0.252 C 
HETATM   12  N   UNL     1     -45.088  60.488 -50.413  1.00  0.00    -0.352 N 
HETATM   13  H   UNL     1     -44.317  60.875 -50.942  1.00  0.00     0.163 HD
HETATM   14  O   UNL     1     -46.569  58.734 -50.219  1.00  0.00    -0.268 OA
BRANCH  12  15
HETATM   15  C   UNL     1     -45.708  61.323 -49.433  1.00  0.00     0.084 A 
HETATM   16  C   UNL     1     -45.002  62.555 -48.939  1.00  0.00     0.027 A 
HETATM   17  C   UNL     1     -46.221  62.688 -49.802  1.00  0.00     0.027 A 
ENDBRANCH  12  15
ENDBRANCH   7  11
ENDBRANCH   2   5
BRANCH   1  18
HETATM   18  C   UNL     1     -40.845  54.053 -51.172  1.00  0.00     0.157 A 
HETATM   19  C   UNL     1     -40.500  53.193 -52.255  1.00  0.00     0.028 A 
HETATM   20  C   UNL     1     -40.515  53.274 -53.661  1.00  0.00     0.016 A 
HETATM   21  C   UNL     1     -40.049  52.022 -51.656  1.00  0.00     0.063 A 
HETATM   22  C   UNL     1     -40.076  52.175 -54.410  1.00  0.00     0.001 A 
HETATM   23  C   UNL     1     -39.627  51.016 -53.779  1.00  0.00     0.002 A 
HETATM   24  C   UNL     1     -39.603  50.914 -52.384  1.00  0.00     0.032 A 
HETATM   25  N   UNL     1     -40.152  52.242 -50.312  1.00  0.00    -0.277 N 
HETATM   26  H   UNL     1     -39.906  51.599 -49.566  1.00  0.00     0.189 HD
HETATM   27  N   UNL     1     -40.633  53.453 -49.977  1.00  0.00    -0.168 NA
ENDBRANCH   1  18
TORSDOF 4
ENDMDL
MODEL 5
REMARK VINA RESULT:      -7.7     14.731     18.188
REMARK  4 active torsions:
REMARK  status: ('A' for Active; 'I' for Inactive)
REMARK    1  A    between atoms: C_8  and  C_9 
REMARK       I    between atoms: C_9  and  N_10 
REMARK    2  A    between atoms: N_10  and  C_11 
REMARK    3  A    between atoms: C_13  and  C_14 
REMARK       I    between atoms: C_14  and  N_15 
REMARK    4  A    between atoms: N_15  and  C_16 
ROOT
HETATM    1  C   UNL     1     -35.691  41.805 -53.801  1.00  0.00     0.277 C 
HETATM    2  N   UNL     1     -35.097  40.631 -53.372  1.00  0.00    -0.322 N 
HETATM    3  O   UNL     1     -36.199  42.661 -53.083  1.00  0.00    -0.266 OA
HETATM    4  H   UNL     1     -34.787  40.036 -54.138  1.00  0.00     0.169 HD
ENDROOT
BRANCH   2   5
HETATM    5  C   UNL     1     -34.897  40.182 -52.056  1.00  0.00     0.036 A 
HETATM    6  C   UNL     1     -33.642  40.124 -51.443  1.00  0.00     0.046 A 
HETATM    7  C   UNL     1     -33.518  39.670 -50.122  1.00  0.00     0.034 A 
HETATM    8  C   UNL     1     -34.653  39.242 -49.424  1.00  0.00     0.017 A 
HETATM    9  C   UNL     1     -35.905  39.289 -50.034  1.00  0.00     0.003 A 
HETATM   10  C   UNL     1     -36.024  39.758 -51.344  1.00  0.00     0.029 A 
BRANCH   7  11
HETATM   11  C   UNL     1     -32.194  39.586 -49.440  1.00  0.00     0.252 C 
HETATM   12  N   UNL     1     -32.201  39.102 -48.145  1.00  0.00    -0.352 N 
HETATM   13  H   UNL     1     -33.060  38.739 -47.750  1.00  0.00     0.163 HD
HETATM   14  O   UNL     1     -31.178  39.915 -50.042  1.00  0.00    -0.268 OA
BRANCH  12  15
HETATM   15  C   UNL     1     -31.014  39.010 -47.355  1.00  0.00     0.084 A 
HETATM   16  C   UNL     1     -30.492  40.223 -46.638  1.00  0.00     0.027 A 
HETATM   17  C   UNL     1     -31.083  39.089 -45.855  1.00  0.00     0.027 A 
ENDBRANCH  12  15
ENDBRANCH   7  11
ENDBRANCH   2   5
BRANCH   1  18
HETATM   18  C   UNL     1     -35.666  41.924 -55.271  1.00  0.00     0.157 A 
HETATM   19  C   UNL     1     -36.633  41.435 -56.197  1.00  0.00     0.028 A 
HETATM   20  C   UNL     1     -37.846  40.724 -56.119  1.00  0.00     0.016 A 
HETATM   21  C   UNL     1     -36.158  41.813 -57.448  1.00  0.00     0.063 A 
HETATM   22  C   UNL     1     -38.534  40.422 -57.300  1.00  0.00     0.001 A 
HETATM   23  C   UNL     1     -38.033  40.817 -58.539  1.00  0.00     0.002 A 
HETATM   24  C   UNL     1     -36.830  41.524 -58.641  1.00  0.00     0.032 A 
HETATM   25  N   UNL     1     -34.986  42.472 -57.205  1.00  0.00    -0.277 N 
HETATM   26  H   UNL     1     -34.366  42.890 -57.891  1.00  0.00     0.189 HD
HETATM   27  N   UNL     1     -34.650  42.556 -55.904  1.00  0.00    -0.168 NA
ENDBRANCH   1  18
TORSDOF 4
ENDMDL
MODEL 6
REMARK VINA RESULT:      -7.7      2.169      2.372
REMARK  4 active torsions:
REMARK  status: ('A' for Active; 'I' for Inactive)
REMARK    1  A    between atoms: C_8  and  C_9 
REMARK       I    between atoms: C_9  and  N_10 
REMARK    2  A    between atoms: N_10  and  C_11 
REMARK    3  A    between atoms: C_13  and  C_14 
REMARK       I    between atoms: C_14  and  N_15 
REMARK    4  A    between atoms: N_15  and  C_16 
ROOT
HETATM    1  C   UNL     1     -41.865  55.177 -52.621  1.00  0.00     0.277 C 
HETATM    2  N   UNL     1     -41.150  55.853 -53.594  1.00  0.00    -0.322 N 
HETATM    3  O   UNL     1     -42.992  55.462 -52.226  1.00  0.00    -0.266 OA
HETATM    4  H   UNL     1     -40.211  55.482 -53.731  1.00  0.00     0.169 HD
ENDROOT
BRANCH   2   5
HETATM    5  C   UNL     1     -41.550  56.954 -54.369  1.00  0.00     0.036 A 
HETATM    6  C   UNL     1     -42.040  56.842 -55.673  1.00  0.00     0.046 A 
HETATM    7  C   UNL     1     -42.428  57.986 -56.386  1.00  0.00     0.034 A 
HETATM    8  C   UNL     1     -42.294  59.249 -55.800  1.00  0.00     0.017 A 
HETATM    9  C   UNL     1     -41.797  59.367 -54.504  1.00  0.00     0.003 A 
HETATM   10  C   UNL     1     -41.429  58.223 -53.792  1.00  0.00     0.029 A 
BRANCH   7  11
HETATM   11  C   UNL     1     -42.947  57.904 -57.782  1.00  0.00     0.252 C 
HETATM   12  N   UNL     1     -42.138  58.437 -58.769  1.00  0.00    -0.352 N 
HETATM   13  H   UNL     1     -41.209  58.765 -58.533  1.00  0.00     0.163 HD
HETATM   14  O   UNL     1     -44.024  57.361 -58.000  1.00  0.00    -0.268 OA
BRANCH  12  15
HETATM   15  C   UNL     1     -42.527  58.470 -60.143  1.00  0.00     0.084 A 
HETATM   16  C   UNL     1     -43.338  59.621 -60.668  1.00  0.00     0.027 A 
HETATM   17  C   UNL     1     -41.909  59.459 -61.092  1.00  0.00     0.027 A 
ENDBRANCH  12  15
ENDBRANCH   7  11
ENDBRANCH   2   5
BRANCH   1  18
HETATM   18  C   UNL     1     -41.101  54.043 -52.070  1.00  0.00     0.157 A 
HETATM   19  C   UNL     1     -40.689  52.861 -52.753  1.00  0.00     0.028 A 
HETATM   20  C   UNL     1     -40.822  52.342 -54.056  1.00  0.00     0.016 A 
HETATM   21  C   UNL     1     -39.992  52.120 -51.805  1.00  0.00     0.063 A 
HETATM   22  C   UNL     1     -40.251  51.099 -54.354  1.00  0.00     0.001 A 
HETATM   23  C   UNL     1     -39.557  50.381 -53.381  1.00  0.00     0.002 A 
HETATM   24  C   UNL     1     -39.412  50.878 -52.081  1.00  0.00     0.032 A 
HETATM   25  N   UNL     1     -40.033  52.868 -50.662  1.00  0.00    -0.277 N 
HETATM   26  H   UNL     1     -39.622  52.635 -49.764  1.00  0.00     0.189 HD
HETATM   27  N   UNL     1     -40.697  54.033 -50.778  1.00  0.00    -0.168 NA
ENDBRANCH   1  18
TORSDOF 4
ENDMDL
MODEL 7
REMARK VINA RESULT:      -7.6      2.230      2.824
REMARK  4 active torsions:
REMARK  status: ('A' for Active; 'I' for Inactive)
REMARK    1  A    between atoms: C_8  and  C_9 
REMARK       I    between atoms: C_9  and  N_10 
REMARK    2  A    between atoms: N_10  and  C_11 
REMARK    3  A    between atoms: C_13  and  C_14 
REMARK       I    between atoms: C_14  and  N_15 
REMARK    4  A    between atoms: N_15  and  C_16 
ROOT
HETATM    1  C   UNL     1     -41.514  55.588 -51.206  1.00  0.00     0.277 C 
HETATM    2  N   UNL     1     -42.751  55.584 -51.828  1.00  0.00    -0.322 N 
HETATM    3  O   UNL     1     -40.924  56.575 -50.779  1.00  0.00    -0.266 OA
HETATM    4  H   UNL     1     -43.032  54.661 -52.154  1.00  0.00     0.169 HD
ENDROOT
BRANCH   2   5
HETATM    5  C   UNL     1     -43.614  56.666 -52.063  1.00  0.00     0.036 A 
HETATM    6  C   UNL     1     -43.802  57.245 -53.322  1.00  0.00     0.046 A 
HETATM    7  C   UNL     1     -44.686  58.321 -53.483  1.00  0.00     0.034 A 
HETATM    8  C   UNL     1     -45.361  58.840 -52.373  1.00  0.00     0.017 A 
HETATM    9  C   UNL     1     -45.170  58.273 -51.114  1.00  0.00     0.003 A 
HETATM   10  C   UNL     1     -44.301  57.191 -50.962  1.00  0.00     0.029 A 
BRANCH   7  11
HETATM   11  C   UNL     1     -44.904  58.968 -54.810  1.00  0.00     0.252 C 
HETATM   12  N   UNL     1     -45.765  58.317 -55.675  1.00  0.00    -0.352 N 
HETATM   13  H   UNL     1     -46.279  57.506 -55.355  1.00  0.00     0.163 HD
HETATM   14  O   UNL     1     -44.351  60.031 -55.067  1.00  0.00    -0.268 OA
BRANCH  12  15
HETATM   15  C   UNL     1     -46.032  58.797 -56.994  1.00  0.00     0.084 A 
HETATM   16  C   UNL     1     -45.767  57.916 -58.182  1.00  0.00     0.027 A 
HETATM   17  C   UNL     1     -47.178  58.243 -57.794  1.00  0.00     0.027 A 
ENDBRANCH  12  15
ENDBRANCH   7  11
ENDBRANCH   2   5
BRANCH   1  18
HETATM   18  C   UNL     1     -40.944  54.230 -51.118  1.00  0.00     0.157 A 
HETATM   19  C   UNL     1     -40.571  53.375 -52.196  1.00  0.00     0.028 A 
HETATM   20  C   UNL     1     -40.591  53.444 -53.602  1.00  0.00     0.016 A 
HETATM   21  C   UNL     1     -40.078  52.224 -51.589  1.00  0.00     0.063 A 
HETATM   22  C   UNL     1     -40.116  52.356 -54.343  1.00  0.00     0.001 A 
HETATM   23  C   UNL     1     -39.626  51.217 -53.706  1.00  0.00     0.002 A 
HETATM   24  C   UNL     1     -39.596  51.127 -52.310  1.00  0.00     0.032 A 
HETATM   25  N   UNL     1     -40.186  52.450 -50.246  1.00  0.00    -0.277 N 
HETATM   26  H   UNL     1     -39.917  51.822 -49.496  1.00  0.00     0.189 HD
HETATM   27  N   UNL     1     -40.709  53.647 -49.920  1.00  0.00    -0.168 NA
ENDBRANCH   1  18
TORSDOF 4
ENDMDL
MODEL 8
REMARK VINA RESULT:      -7.5      4.455      6.925
REMARK  4 active torsions:
REMARK  status: ('A' for Active; 'I' for Inactive)
REMARK    1  A    between atoms: C_8  and  C_9 
REMARK       I    between atoms: C_9  and  N_10 
REMARK    2  A    between atoms: N_10  and  C_11 
REMARK    3  A    between atoms: C_13  and  C_14 
REMARK       I    between atoms: C_14  and  N_15 
REMARK    4  A    between atoms: N_15  and  C_16 
ROOT
HETATM    1  C   UNL     1     -42.069  56.951 -52.125  1.00  0.00     0.277 C 
HETATM    2  N   UNL     1     -43.447  57.073 -52.088  1.00  0.00    -0.322 N 
HETATM    3  O   UNL     1     -41.265  57.872 -52.233  1.00  0.00    -0.266 OA
HETATM    4  H   UNL     1     -43.927  56.176 -52.049  1.00  0.00     0.169 HD
ENDROOT
BRANCH   2   5
HETATM    5  C   UNL     1     -44.222  58.244 -52.114  1.00  0.00     0.036 A 
HETATM    6  C   UNL     1     -44.614  58.935 -50.964  1.00  0.00     0.046 A 
HETATM    7  C   UNL     1     -45.385  60.102 -51.065  1.00  0.00     0.034 A 
HETATM    8  C   UNL     1     -45.790  60.561 -52.323  1.00  0.00     0.017 A 
HETATM    9  C   UNL     1     -45.411  59.870 -53.472  1.00  0.00     0.003 A 
HETATM   10  C   UNL     1     -44.629  58.718 -53.366  1.00  0.00     0.029 A 
BRANCH   7  11
HETATM   11  C   UNL     1     -45.827  60.860 -49.859  1.00  0.00     0.252 C 
HETATM   12  N   UNL     1     -45.312  60.438 -48.647  1.00  0.00    -0.352 N 
HETATM   13  H   UNL     1     -44.600  59.719 -48.628  1.00  0.00     0.163 HD
HETATM   14  O   UNL     1     -46.586  61.815 -49.985  1.00  0.00    -0.268 OA
BRANCH  12  15
HETATM   15  C   UNL     1     -45.683  61.041 -47.406  1.00  0.00     0.084 A 
HETATM   16  C   UNL     1     -46.054  60.179 -46.232  1.00  0.00     0.027 A 
HETATM   17  C   UNL     1     -44.773  60.959 -46.212  1.00  0.00     0.027 A 
ENDBRANCH  12  15
ENDBRANCH   7  11
ENDBRANCH   2   5
BRANCH   1  18
HETATM   18  C   UNL     1     -41.643  55.542 -52.033  1.00  0.00     0.157 A 
HETATM   19  C   UNL     1     -41.083  54.736 -53.067  1.00  0.00     0.028 A 
HETATM   20  C   UNL     1     -40.751  54.911 -54.425  1.00  0.00     0.016 A 
HETATM   21  C   UNL     1     -40.843  53.502 -52.474  1.00  0.00     0.063 A 
HETATM   22  C   UNL     1     -40.192  53.840 -55.132  1.00  0.00     0.001 A 
HETATM   23  C   UNL     1     -39.963  52.615 -54.507  1.00  0.00     0.002 A 
HETATM   24  C   UNL     1     -40.284  52.419 -53.160  1.00  0.00     0.032 A 
HETATM   25  N   UNL     1     -41.261  53.636 -51.180  1.00  0.00    -0.277 N 
HETATM   26  H   UNL     1     -41.234  52.931 -50.451  1.00  0.00     0.189 HD
HETATM   27  N   UNL     1     -41.755  54.851 -50.875  1.00  0.00    -0.168 NA
ENDBRANCH   1  18
TORSDOF 4
ENDMDL
MODEL 9
REMARK VINA RESULT:      -7.4      4.098      6.153
REMARK  4 active torsions:
REMARK  status: ('A' for Active; 'I' for Inactive)
REMARK    1  A    between atoms: C_8  and  C_9 
REMARK       I    between atoms: C_9  and  N_10 
REMARK    2  A    between atoms: N_10  and  C_11 
REMARK    3  A    between atoms: C_13  and  C_14 
REMARK       I    between atoms: C_14  and  N_15 
REMARK    4  A    between atoms: N_15  and  C_16 
ROOT
HETATM    1  C   UNL     1     -41.908  55.577 -52.521  1.00  0.00     0.277 C 
HETATM    2  N   UNL     1     -41.439  56.776 -52.013  1.00  0.00    -0.322 N 
HETATM    3  O   UNL     1     -42.842  55.442 -53.305  1.00  0.00    -0.266 OA
HETATM    4  H   UNL     1     -40.689  56.656 -51.334  1.00  0.00     0.169 HD
ENDROOT
BRANCH   2   5
HETATM    5  C   UNL     1     -41.873  58.079 -52.305  1.00  0.00     0.036 A 
HETATM    6  C   UNL     1     -42.662  58.841 -51.439  1.00  0.00     0.046 A 
HETATM    7  C   UNL     1     -43.054  60.140 -51.795  1.00  0.00     0.034 A 
HETATM    8  C   UNL     1     -42.679  60.664 -53.037  1.00  0.00     0.017 A 
HETATM    9  C   UNL     1     -41.900  59.905 -53.907  1.00  0.00     0.003 A 
HETATM   10  C   UNL     1     -41.499  58.619 -53.541  1.00  0.00     0.029 A 
BRANCH   7  11
HETATM   11  C   UNL     1     -43.903  60.978 -50.899  1.00  0.00     0.252 C 
HETATM   12  N   UNL     1     -44.432  60.347 -49.789  1.00  0.00    -0.352 N 
HETATM   13  H   UNL     1     -44.156  59.397 -49.573  1.00  0.00     0.163 HD
HETATM   14  O   UNL     1     -44.073  62.165 -51.158  1.00  0.00    -0.268 OA
BRANCH  12  15
HETATM   15  C   UNL     1     -45.299  61.013 -48.870  1.00  0.00     0.084 A 
HETATM   16  C   UNL     1     -45.688  60.344 -47.582  1.00  0.00     0.027 A 
HETATM   17  C   UNL     1     -44.775  61.533 -47.560  1.00  0.00     0.027 A 
ENDBRANCH  12  15
ENDBRANCH   7  11
ENDBRANCH   2   5
BRANCH   1  18
HETATM   18  C   UNL     1     -41.153  54.426 -51.991  1.00  0.00     0.157 A 
HETATM   19  C   UNL     1     -40.767  53.246 -52.691  1.00  0.00     0.028 A 
HETATM   20  C   UNL     1     -40.924  52.741 -53.996  1.00  0.00     0.016 A 
HETATM   21  C   UNL     1     -40.069  52.486 -51.759  1.00  0.00     0.063 A 
HETATM   22  C   UNL     1     -40.374  51.494 -54.314  1.00  0.00     0.001 A 
HETATM   23  C   UNL     1     -39.678  50.756 -53.357  1.00  0.00     0.002 A 
HETATM   24  C   UNL     1     -39.509  51.238 -52.054  1.00  0.00     0.032 A 
HETATM   25  N   UNL     1     -40.084  53.222 -50.608  1.00  0.00    -0.277 N 
HETATM   26  H   UNL     1     -39.665  52.975 -49.718  1.00  0.00     0.189 HD
HETATM   27  N   UNL     1     -40.733  54.398 -50.705  1.00  0.00    -0.168 NA
ENDBRANCH   1  18
TORSDOF 4
ENDMDL
MODEL 10
REMARK VINA RESULT:      -7.4     14.491     18.578
REMARK  4 active torsions:
REMARK  status: ('A' for Active; 'I' for Inactive)
REMARK    1  A    between atoms: C_8  and  C_9 
REMARK       I    between atoms: C_9  and  N_10 
REMARK    2  A    between atoms: N_10  and  C_11 
REMARK    3  A    between atoms: C_13  and  C_14 
REMARK       I    between atoms: C_14  and  N_15 
REMARK    4  A    between atoms: N_15  and  C_16 
ROOT
HETATM    1  C   UNL     1     -35.684  41.224 -52.051  1.00  0.00     0.277 C 
HETATM    2  N   UNL     1     -35.794  39.966 -51.485  1.00  0.00    -0.322 N 
HETATM    3  O   UNL     1     -34.973  42.138 -51.645  1.00  0.00    -0.266 OA
HETATM    4  H   UNL     1     -36.482  39.377 -51.949  1.00  0.00     0.169 HD
ENDROOT
BRANCH   2   5
HETATM    5  C   UNL     1     -35.104  39.440 -50.380  1.00  0.00     0.036 A 
HETATM    6  C   UNL     1     -33.787  39.783 -50.059  1.00  0.00     0.046 A 
HETATM    7  C   UNL     1     -33.162  39.222 -48.936  1.00  0.00     0.034 A 
HETATM    8  C   UNL     1     -33.849  38.290 -48.150  1.00  0.00     0.017 A 
HETATM    9  C   UNL     1     -35.158  37.938 -48.472  1.00  0.00     0.003 A 
HETATM   10  C   UNL     1     -35.781  38.512 -49.581  1.00  0.00     0.029 A 
BRANCH   7  11
HETATM   11  C   UNL     1     -31.756  39.559 -48.568  1.00  0.00     0.252 C 
HETATM   12  N   UNL     1     -31.424  39.429 -47.232  1.00  0.00    -0.352 N 
HETATM   13  H   UNL     1     -32.092  39.029 -46.586  1.00  0.00     0.163 HD
HETATM   14  O   UNL     1     -30.965  39.902 -49.440  1.00  0.00    -0.268 OA
BRANCH  12  15
HETATM   15  C   UNL     1     -30.128  39.760 -46.730  1.00  0.00     0.084 A 
HETATM   16  C   UNL     1     -29.837  41.158 -46.262  1.00  0.00     0.027 A 
HETATM   17  C   UNL     1     -29.920  40.039 -45.267  1.00  0.00     0.027 A 
ENDBRANCH  12  15
ENDBRANCH   7  11
ENDBRANCH   2   5
BRANCH   1  18
HETATM   18  C   UNL     1     -36.555  41.369 -53.232  1.00  0.00     0.157 A 
HETATM   19  C   UNL     1     -36.157  41.630 -54.576  1.00  0.00     0.028 A 
HETATM   20  C   UNL     1     -34.940  41.838 -55.254  1.00  0.00     0.016 A 
HETATM   21  C   UNL     1     -37.341  41.659 -55.304  1.00  0.00     0.063 A 
HETATM   22  C   UNL     1     -34.960  42.068 -56.634  1.00  0.00     0.001 A 
HETATM   23  C   UNL     1     -36.165  42.090 -57.336  1.00  0.00     0.002 A 
HETATM   24  C   UNL     1     -37.386  41.885 -56.684  1.00  0.00     0.032 A 
HETATM   25  N   UNL     1     -38.332  41.431 -54.391  1.00  0.00    -0.277 N 
HETATM   26  H   UNL     1     -39.329  41.380 -54.570  1.00  0.00     0.189 HD
HETATM   27  N   UNL     1     -37.899  41.255 -53.128  1.00  0.00    -0.168 NA
ENDBRANCH   1  18
TORSDOF 4
ENDMDL
