MODEL 1
REMARK VINA RESULT:      -8.5      0.000      0.000
REMARK  5 active torsions:
REMARK  status: ('A' for Active; 'I' for Inactive)
REMARK    1  A    between atoms: C_9  and  C_10 
REMARK    2  A    between atoms: C_10  and  N_11 
REMARK    3  A    between atoms: N_11  and  C_12 
REMARK    4  A    between atoms: C_13  and  O_14 
REMARK    5  A    between atoms: C_16  and  O_17 
ROOT
HETATM    1  C   UNL     1     -39.503  49.861 -54.226  1.00  0.00     0.048 C 
HETATM    2  C   UNL     1     -39.932  51.189 -53.672  1.00  0.00    -0.061 A 
HETATM    3  C   UNL     1     -40.767  52.037 -54.415  1.00  0.00     0.020 A 
HETATM    4  C   UNL     1     -41.191  53.258 -53.881  1.00  0.00    -0.008 A 
HETATM    5  C   UNL     1     -40.785  53.622 -52.594  1.00  0.00     0.045 A 
HETATM    6  N   UNL     1     -41.224  54.838 -52.059  1.00  0.00    -0.322 N 
HETATM    7  C   UNL     1     -42.045  55.712 -52.721  1.00  0.00     0.253 A 
HETATM    8  O   UNL     1     -42.434  56.740 -52.176  1.00  0.00    -0.268 OA
HETATM    9  C   UNL     1     -42.452  55.341 -54.110  1.00  0.00     0.024 A 
HETATM   10  C   UNL     1     -42.055  54.166 -54.635  1.00  0.00     0.027 A 
HETATM   11  C   UNL     1     -39.966  52.786 -51.840  1.00  0.00     0.031 A 
HETATM   12  C   UNL     1     -39.545  51.569 -52.379  1.00  0.00     0.009 A 
HETATM   13  H   UNL     1     -40.955  55.110 -51.123  1.00  0.00     0.169 HD
ENDROOT
BRANCH   9  14
HETATM   14  C   UNL     1     -43.356  56.299 -54.830  1.00  0.00     0.136 C 
BRANCH  14  15
HETATM   15  N   UNL     1     -43.650  55.754 -56.156  1.00  0.00    -0.286 NA
HETATM   16  H   UNL     1     -44.656  55.636 -56.294  1.00  0.00     0.128 HD
BRANCH  15  17
HETATM   17  C   UNL     1     -43.119  56.399 -57.289  1.00  0.00     0.042 A 
HETATM   18  C   UNL     1     -43.355  55.806 -58.544  1.00  0.00     0.089 A 
HETATM   19  C   UNL     1     -42.914  56.366 -59.738  1.00  0.00     0.074 A 
HETATM   20  C   UNL     1     -42.185  57.545 -59.679  1.00  0.00     0.068 A 
HETATM   21  C   UNL     1     -41.900  58.145 -58.457  1.00  0.00     0.038 A 
HETATM   22  C   UNL     1     -42.358  57.570 -57.265  1.00  0.00     0.029 A 
BRANCH  18  23
HETATM   23  O   UNL     1     -44.005  54.599 -58.593  1.00  0.00    -0.359 OA
HETATM   24  H   UNL     1     -43.280  53.946 -58.525  1.00  0.00     0.218 HD
ENDBRANCH  18  23
BRANCH  20  25
HETATM   25  O   UNL     1     -41.714  58.147 -60.809  1.00  0.00    -0.361 OA
HETATM   26  H   UNL     1     -42.474  58.428 -61.345  1.00  0.00     0.217 HD
ENDBRANCH  20  25
ENDBRANCH  15  17
ENDBRANCH  14  15
ENDBRANCH   9  14
TORSDOF 5
ENDMDL
MODEL 2
REMARK VINA RESULT:      -8.4      3.887      4.992
REMARK  5 active torsions:
REMARK  status: ('A' for Active; 'I' for Inactive)
REMARK    1  A    between atoms: C_9  and  C_10 
REMARK    2  A    between atoms: C_10  and  N_11 
REMARK    3  A    between atoms: N_11  and  C_12 
REMARK    4  A    between atoms: C_13  and  O_14 
REMARK    5  A    between atoms: C_16  and  O_17 
ROOT
HETATM    1  C   UNL     1     -39.499  49.783 -54.423  1.00  0.00     0.048 C 
HETATM    2  C   UNL     1     -39.836  50.994 -53.604  1.00  0.00    -0.061 A 
HETATM    3  C   UNL     1     -40.554  52.060 -54.169  1.00  0.00     0.020 A 
HETATM    4  C   UNL     1     -40.895  53.173 -53.394  1.00  0.00    -0.008 A 
HETATM    5  C   UNL     1     -40.526  53.210 -52.046  1.00  0.00     0.045 A 
HETATM    6  N   UNL     1     -40.882  54.318 -51.270  1.00  0.00    -0.322 N 
HETATM    7  C   UNL     1     -41.588  55.390 -51.750  1.00  0.00     0.253 A 
HETATM    8  O   UNL     1     -41.912  56.309 -51.004  1.00  0.00    -0.268 OA
HETATM    9  C   UNL     1     -41.953  55.370 -53.198  1.00  0.00     0.024 A 
HETATM   10  C   UNL     1     -41.636  54.301 -53.956  1.00  0.00     0.027 A 
HETATM   11  C   UNL     1     -39.823  52.154 -51.469  1.00  0.00     0.031 A 
HETATM   12  C   UNL     1     -39.484  51.048 -52.249  1.00  0.00     0.009 A 
HETATM   13  H   UNL     1     -40.639  54.355 -50.290  1.00  0.00     0.169 HD
ENDROOT
BRANCH   9  14
HETATM   14  C   UNL     1     -42.731  56.543 -53.718  1.00  0.00     0.136 C 
BRANCH  14  15
HETATM   15  N   UNL     1     -44.085  56.486 -53.166  1.00  0.00    -0.286 NA
HETATM   16  H   UNL     1     -44.159  55.772 -52.438  1.00  0.00     0.128 HD
BRANCH  15  17
HETATM   17  C   UNL     1     -44.675  57.672 -52.687  1.00  0.00     0.042 A 
HETATM   18  C   UNL     1     -45.074  57.700 -51.337  1.00  0.00     0.089 A 
HETATM   19  C   UNL     1     -45.634  58.823 -50.740  1.00  0.00     0.074 A 
HETATM   20  C   UNL     1     -45.832  59.952 -51.522  1.00  0.00     0.068 A 
HETATM   21  C   UNL     1     -45.485  59.955 -52.869  1.00  0.00     0.038 A 
HETATM   22  C   UNL     1     -44.915  58.816 -53.452  1.00  0.00     0.029 A 
BRANCH  18  23
HETATM   23  O   UNL     1     -44.951  56.557 -50.588  1.00  0.00    -0.359 OA
HETATM   24  H   UNL     1     -44.008  56.316 -50.693  1.00  0.00     0.218 HD
ENDBRANCH  18  23
BRANCH  20  25
HETATM   25  O   UNL     1     -46.383  61.088 -51.005  1.00  0.00    -0.361 OA
HETATM   26  H   UNL     1     -46.810  60.864 -50.162  1.00  0.00     0.217 HD
ENDBRANCH  20  25
ENDBRANCH  15  17
ENDBRANCH  14  15
ENDBRANCH   9  14
TORSDOF 5
ENDMDL
MODEL 3
REMARK VINA RESULT:      -8.2      3.786      4.831
REMARK  5 active torsions:
REMARK  status: ('A' for Active; 'I' for Inactive)
REMARK    1  A    between atoms: C_9  and  C_10 
REMARK    2  A    between atoms: C_10  and  N_11 
REMARK    3  A    between atoms: N_11  and  C_12 
REMARK    4  A    between atoms: C_13  and  O_14 
REMARK    5  A    between atoms: C_16  and  O_17 
ROOT
HETATM    1  C   UNL     1     -39.634  50.174 -54.461  1.00  0.00     0.048 C 
HETATM    2  C   UNL     1     -39.828  50.917 -53.171  1.00  0.00    -0.061 A 
HETATM    3  C   UNL     1     -40.192  52.273 -53.176  1.00  0.00     0.020 A 
HETATM    4  C   UNL     1     -40.404  52.953 -51.973  1.00  0.00    -0.008 A 
HETATM    5  C   UNL     1     -40.262  52.267 -50.763  1.00  0.00     0.045 A 
HETATM    6  N   UNL     1     -40.489  52.948 -49.562  1.00  0.00    -0.322 N 
HETATM    7  C   UNL     1     -40.855  54.266 -49.489  1.00  0.00     0.253 A 
HETATM    8  O   UNL     1     -41.087  54.791 -48.405  1.00  0.00    -0.268 OA
HETATM    9  C   UNL     1     -40.972  55.011 -50.779  1.00  0.00     0.024 A 
HETATM   10  C   UNL     1     -40.777  54.366 -51.946  1.00  0.00     0.027 A 
HETATM   11  C   UNL     1     -39.912  50.919 -50.743  1.00  0.00     0.031 A 
HETATM   12  C   UNL     1     -39.701  50.246 -51.947  1.00  0.00     0.009 A 
HETATM   13  H   UNL     1     -40.409  52.465 -48.678  1.00  0.00     0.169 HD
ENDROOT
BRANCH   9  14
HETATM   14  C   UNL     1     -41.378  56.453 -50.695  1.00  0.00     0.136 C 
BRANCH  14  15
HETATM   15  N   UNL     1     -42.839  56.524 -50.649  1.00  0.00    -0.286 NA
HETATM   16  H   UNL     1     -43.161  56.993 -49.801  1.00  0.00     0.128 HD
BRANCH  15  17
HETATM   17  C   UNL     1     -43.528  57.072 -51.749  1.00  0.00     0.042 A 
HETATM   18  C   UNL     1     -43.995  58.394 -51.629  1.00  0.00     0.089 A 
HETATM   19  C   UNL     1     -44.655  59.057 -52.657  1.00  0.00     0.074 A 
HETATM   20  C   UNL     1     -44.888  58.368 -53.839  1.00  0.00     0.068 A 
HETATM   21  C   UNL     1     -44.475  57.047 -53.985  1.00  0.00     0.038 A 
HETATM   22  C   UNL     1     -43.804  56.398 -52.941  1.00  0.00     0.029 A 
BRANCH  18  23
HETATM   23  O   UNL     1     -43.835  59.046 -50.433  1.00  0.00    -0.359 OA
HETATM   24  H   UNL     1     -44.094  59.967 -50.638  1.00  0.00     0.218 HD
ENDBRANCH  18  23
BRANCH  20  25
HETATM   25  O   UNL     1     -45.537  58.951 -54.887  1.00  0.00    -0.361 OA
HETATM   26  H   UNL     1     -46.188  58.318 -55.234  1.00  0.00     0.217 HD
ENDBRANCH  20  25
ENDBRANCH  15  17
ENDBRANCH  14  15
ENDBRANCH   9  14
TORSDOF 5
ENDMDL
MODEL 4
REMARK VINA RESULT:      -8.1      1.165      1.706
REMARK  5 active torsions:
REMARK  status: ('A' for Active; 'I' for Inactive)
REMARK    1  A    between atoms: C_9  and  C_10 
REMARK    2  A    between atoms: C_10  and  N_11 
REMARK    3  A    between atoms: N_11  and  C_12 
REMARK    4  A    between atoms: C_13  and  O_14 
REMARK    5  A    between atoms: C_16  and  O_17 
ROOT
HETATM    1  C   UNL     1     -39.466  49.820 -54.219  1.00  0.00     0.048 C 
HETATM    2  C   UNL     1     -39.850  51.133 -53.600  1.00  0.00    -0.061 A 
HETATM    3  C   UNL     1     -40.582  52.081 -54.331  1.00  0.00     0.020 A 
HETATM    4  C   UNL     1     -40.966  53.288 -53.739  1.00  0.00    -0.008 A 
HETATM    5  C   UNL     1     -40.623  53.539 -52.407  1.00  0.00     0.045 A 
HETATM    6  N   UNL     1     -41.022  54.742 -51.815  1.00  0.00    -0.322 N 
HETATM    7  C   UNL     1     -41.744  55.709 -52.463  1.00  0.00     0.253 A 
HETATM    8  O   UNL     1     -42.104  56.722 -51.871  1.00  0.00    -0.268 OA
HETATM    9  C   UNL     1     -42.081  55.459 -53.897  1.00  0.00     0.024 A 
HETATM   10  C   UNL     1     -41.723  54.298 -54.478  1.00  0.00     0.027 A 
HETATM   11  C   UNL     1     -39.906  52.603 -51.666  1.00  0.00     0.031 A 
HETATM   12  C   UNL     1     -39.525  51.400 -52.263  1.00  0.00     0.009 A 
HETATM   13  H   UNL     1     -40.798  54.934 -50.848  1.00  0.00     0.169 HD
ENDROOT
BRANCH   9  14
HETATM   14  C   UNL     1     -42.878  56.519 -54.601  1.00  0.00     0.136 C 
BRANCH  14  15
HETATM   15  N   UNL     1     -42.098  57.008 -55.738  1.00  0.00    -0.286 NA
HETATM   16  H   UNL     1     -41.137  56.662 -55.706  1.00  0.00     0.128 HD
BRANCH  15  17
HETATM   17  C   UNL     1     -42.599  56.810 -57.040  1.00  0.00     0.042 A 
HETATM   18  C   UNL     1     -42.624  57.924 -57.902  1.00  0.00     0.089 A 
HETATM   19  C   UNL     1     -43.060  57.847 -59.219  1.00  0.00     0.074 A 
HETATM   20  C   UNL     1     -43.517  56.624 -59.690  1.00  0.00     0.068 A 
HETATM   21  C   UNL     1     -43.541  55.507 -58.861  1.00  0.00     0.038 A 
HETATM   22  C   UNL     1     -43.091  55.601 -57.537  1.00  0.00     0.029 A 
BRANCH  18  23
HETATM   23  O   UNL     1     -42.249  59.148 -57.411  1.00  0.00    -0.359 OA
HETATM   24  H   UNL     1     -42.966  59.743 -57.710  1.00  0.00     0.218 HD
ENDBRANCH  18  23
BRANCH  20  25
HETATM   25  O   UNL     1     -43.967  56.476 -60.969  1.00  0.00    -0.361 OA
HETATM   26  H   UNL     1     -43.298  55.983 -61.473  1.00  0.00     0.217 HD
ENDBRANCH  20  25
ENDBRANCH  15  17
ENDBRANCH  14  15
ENDBRANCH   9  14
TORSDOF 5
ENDMDL
MODEL 5
REMARK VINA RESULT:      -8.0      2.439      7.285
REMARK  5 active torsions:
REMARK  status: ('A' for Active; 'I' for Inactive)
REMARK    1  A    between atoms: C_9  and  C_10 
REMARK    2  A    between atoms: C_10  and  N_11 
REMARK    3  A    between atoms: N_11  and  C_12 
REMARK    4  A    between atoms: C_13  and  O_14 
REMARK    5  A    between atoms: C_16  and  O_17 
ROOT
HETATM    1  C   UNL     1     -44.375  55.194 -60.548  1.00  0.00     0.048 C 
HETATM    2  C   UNL     1     -43.813  55.772 -59.282  1.00  0.00    -0.061 A 
HETATM    3  C   UNL     1     -43.581  54.956 -58.165  1.00  0.00     0.020 A 
HETATM    4  C   UNL     1     -43.026  55.492 -56.999  1.00  0.00    -0.008 A 
HETATM    5  C   UNL     1     -42.692  56.850 -56.959  1.00  0.00     0.045 A 
HETATM    6  N   UNL     1     -42.123  57.379 -55.796  1.00  0.00    -0.322 N 
HETATM    7  C   UNL     1     -41.860  56.642 -54.671  1.00  0.00     0.253 A 
HETATM    8  O   UNL     1     -41.315  57.157 -53.700  1.00  0.00    -0.268 OA
HETATM    9  C   UNL     1     -42.249  55.200 -54.698  1.00  0.00     0.024 A 
HETATM   10  C   UNL     1     -42.779  54.668 -55.817  1.00  0.00     0.027 A 
HETATM   11  C   UNL     1     -42.906  57.670 -58.064  1.00  0.00     0.031 A 
HETATM   12  C   UNL     1     -43.462  57.128 -59.224  1.00  0.00     0.009 A 
HETATM   13  H   UNL     1     -41.859  58.354 -55.755  1.00  0.00     0.169 HD
ENDROOT
BRANCH   9  14
HETATM   14  C   UNL     1     -41.954  54.395 -53.466  1.00  0.00     0.136 C 
BRANCH  14  15
HETATM   15  N   UNL     1     -40.551  53.983 -53.504  1.00  0.00    -0.286 NA
HETATM   16  H   UNL     1     -39.982  54.541 -52.864  1.00  0.00     0.128 HD
BRANCH  15  17
HETATM   17  C   UNL     1     -40.236  52.624 -53.307  1.00  0.00     0.042 A 
HETATM   18  C   UNL     1     -39.819  52.234 -52.021  1.00  0.00     0.089 A 
HETATM   19  C   UNL     1     -39.516  50.917 -51.693  1.00  0.00     0.074 A 
HETATM   20  C   UNL     1     -39.602  49.956 -52.691  1.00  0.00     0.068 A 
HETATM   21  C   UNL     1     -39.975  50.306 -53.985  1.00  0.00     0.038 A 
HETATM   22  C   UNL     1     -40.284  51.637 -54.295  1.00  0.00     0.029 A 
BRANCH  18  23
HETATM   23  O   UNL     1     -39.658  53.197 -51.058  1.00  0.00    -0.359 OA
HETATM   24  H   UNL     1     -38.770  53.007 -50.692  1.00  0.00     0.218 HD
ENDBRANCH  18  23
BRANCH  20  25
HETATM   25  O   UNL     1     -39.312  48.647 -52.445  1.00  0.00    -0.361 OA
HETATM   26  H   UNL     1     -39.603  48.121 -53.209  1.00  0.00     0.217 HD
ENDBRANCH  20  25
ENDBRANCH  15  17
ENDBRANCH  14  15
ENDBRANCH   9  14
TORSDOF 5
ENDMDL
MODEL 6
REMARK VINA RESULT:      -7.9      4.419      5.408
REMARK  5 active torsions:
REMARK  status: ('A' for Active; 'I' for Inactive)
REMARK    1  A    between atoms: C_9  and  C_10 
REMARK    2  A    between atoms: C_10  and  N_11 
REMARK    3  A    between atoms: N_11  and  C_12 
REMARK    4  A    between atoms: C_13  and  O_14 
REMARK    5  A    between atoms: C_16  and  O_17 
ROOT
HETATM    1  C   UNL     1     -39.578  49.958 -54.596  1.00  0.00     0.048 C 
HETATM    2  C   UNL     1     -39.825  51.064 -53.612  1.00  0.00    -0.061 A 
HETATM    3  C   UNL     1     -40.395  52.277 -54.029  1.00  0.00     0.020 A 
HETATM    4  C   UNL     1     -40.655  53.292 -53.103  1.00  0.00    -0.008 A 
HETATM    5  C   UNL     1     -40.352  53.084 -51.754  1.00  0.00     0.045 A 
HETATM    6  N   UNL     1     -40.627  54.097 -50.829  1.00  0.00    -0.322 N 
HETATM    7  C   UNL     1     -41.189  55.302 -51.160  1.00  0.00     0.253 A 
HETATM    8  O   UNL     1     -41.449  56.129 -50.293  1.00  0.00    -0.268 OA
HETATM    9  C   UNL     1     -41.480  55.540 -52.606  1.00  0.00     0.024 A 
HETATM   10  C   UNL     1     -41.241  54.569 -53.508  1.00  0.00     0.027 A 
HETATM   11  C   UNL     1     -39.796  51.881 -51.324  1.00  0.00     0.031 A 
HETATM   12  C   UNL     1     -39.539  50.873 -52.253  1.00  0.00     0.009 A 
HETATM   13  H   UNL     1     -40.431  53.959 -49.847  1.00  0.00     0.169 HD
ENDROOT
BRANCH   9  14
HETATM   14  C   UNL     1     -42.101  56.859 -52.964  1.00  0.00     0.136 C 
BRANCH  14  15
HETATM   15  N   UNL     1     -41.259  57.930 -52.430  1.00  0.00    -0.286 NA
HETATM   16  H   UNL     1     -40.435  58.080 -53.015  1.00  0.00     0.128 HD
BRANCH  15  17
HETATM   17  C   UNL     1     -41.844  59.182 -52.156  1.00  0.00     0.042 A 
HETATM   18  C   UNL     1     -41.826  59.628 -50.821  1.00  0.00     0.089 A 
HETATM   19  C   UNL     1     -42.338  60.861 -50.432  1.00  0.00     0.074 A 
HETATM   20  C   UNL     1     -42.917  61.667 -51.401  1.00  0.00     0.068 A 
HETATM   21  C   UNL     1     -42.988  61.247 -52.726  1.00  0.00     0.038 A 
HETATM   22  C   UNL     1     -42.460  60.005 -53.102  1.00  0.00     0.029 A 
BRANCH  18  23
HETATM   23  O   UNL     1     -41.325  58.796 -49.853  1.00  0.00    -0.359 OA
HETATM   24  H   UNL     1     -40.499  58.453 -50.251  1.00  0.00     0.218 HD
ENDBRANCH  18  23
BRANCH  20  25
HETATM   25  O   UNL     1     -43.447  62.885 -51.091  1.00  0.00    -0.361 OA
HETATM   26  H   UNL     1     -44.336  62.746 -50.725  1.00  0.00     0.217 HD
ENDBRANCH  20  25
ENDBRANCH  15  17
ENDBRANCH  14  15
ENDBRANCH   9  14
TORSDOF 5
ENDMDL
MODEL 7
REMARK VINA RESULT:      -7.8      3.219      3.761
REMARK  5 active torsions:
REMARK  status: ('A' for Active; 'I' for Inactive)
REMARK    1  A    between atoms: C_9  and  C_10 
REMARK    2  A    between atoms: C_10  and  N_11 
REMARK    3  A    between atoms: N_11  and  C_12 
REMARK    4  A    between atoms: C_13  and  O_14 
REMARK    5  A    between atoms: C_16  and  O_17 
ROOT
HETATM    1  C   UNL     1     -39.150  49.762 -50.954  1.00  0.00     0.048 C 
HETATM    2  C   UNL     1     -39.646  50.784 -51.935  1.00  0.00    -0.061 A 
HETATM    3  C   UNL     1     -40.019  52.066 -51.504  1.00  0.00     0.020 A 
HETATM    4  C   UNL     1     -40.448  53.026 -52.426  1.00  0.00    -0.008 A 
HETATM    5  C   UNL     1     -40.492  52.701 -53.785  1.00  0.00     0.045 A 
HETATM    6  N   UNL     1     -40.908  53.669 -54.706  1.00  0.00    -0.322 N 
HETATM    7  C   UNL     1     -41.278  54.942 -54.360  1.00  0.00     0.253 A 
HETATM    8  O   UNL     1     -41.587  55.759 -55.222  1.00  0.00    -0.268 OA
HETATM    9  C   UNL     1     -41.267  55.281 -52.905  1.00  0.00     0.024 A 
HETATM   10  C   UNL     1     -40.850  54.368 -52.006  1.00  0.00     0.027 A 
HETATM   11  C   UNL     1     -40.114  51.436 -54.229  1.00  0.00     0.031 A 
HETATM   12  C   UNL     1     -39.687  50.482 -53.303  1.00  0.00     0.009 A 
HETATM   13  H   UNL     1     -40.929  53.458 -55.694  1.00  0.00     0.169 HD
ENDROOT
BRANCH   9  14
HETATM   14  C   UNL     1     -41.668  56.678 -52.531  1.00  0.00     0.136 C 
BRANCH  14  15
HETATM   15  N   UNL     1     -43.128  56.743 -52.472  1.00  0.00    -0.286 NA
HETATM   16  H   UNL     1     -43.455  56.886 -51.514  1.00  0.00     0.128 HD
BRANCH  15  17
HETATM   17  C   UNL     1     -43.804  57.650 -53.312  1.00  0.00     0.042 A 
HETATM   18  C   UNL     1     -44.644  57.113 -54.306  1.00  0.00     0.089 A 
HETATM   19  C   UNL     1     -45.390  57.904 -55.170  1.00  0.00     0.074 A 
HETATM   20  C   UNL     1     -45.274  59.283 -55.063  1.00  0.00     0.068 A 
HETATM   21  C   UNL     1     -44.427  59.854 -54.119  1.00  0.00     0.038 A 
HETATM   22  C   UNL     1     -43.688  59.041 -53.251  1.00  0.00     0.029 A 
BRANCH  18  23
HETATM   23  O   UNL     1     -44.696  55.751 -54.462  1.00  0.00    -0.359 OA
HETATM   24  H   UNL     1     -45.308  55.463 -53.755  1.00  0.00     0.218 HD
ENDBRANCH  18  23
BRANCH  20  25
HETATM   25  O   UNL     1     -45.970  60.122 -55.883  1.00  0.00    -0.361 OA
HETATM   26  H   UNL     1     -45.494  60.187 -56.728  1.00  0.00     0.217 HD
ENDBRANCH  20  25
ENDBRANCH  15  17
ENDBRANCH  14  15
ENDBRANCH   9  14
TORSDOF 5
ENDMDL
MODEL 8
REMARK VINA RESULT:      -7.7      3.475      5.083
REMARK  5 active torsions:
REMARK  status: ('A' for Active; 'I' for Inactive)
REMARK    1  A    between atoms: C_9  and  C_10 
REMARK    2  A    between atoms: C_10  and  N_11 
REMARK    3  A    between atoms: N_11  and  C_12 
REMARK    4  A    between atoms: C_13  and  O_14 
REMARK    5  A    between atoms: C_16  and  O_17 
ROOT
HETATM    1  C   UNL     1     -39.083  51.254 -51.794  1.00  0.00     0.048 C 
HETATM    2  C   UNL     1     -40.116  52.120 -52.454  1.00  0.00    -0.061 A 
HETATM    3  C   UNL     1     -40.777  53.123 -51.728  1.00  0.00     0.020 A 
HETATM    4  C   UNL     1     -41.715  53.949 -52.355  1.00  0.00    -0.008 A 
HETATM    5  C   UNL     1     -41.981  53.775 -53.716  1.00  0.00     0.045 A 
HETATM    6  N   UNL     1     -42.909  54.614 -54.343  1.00  0.00    -0.322 N 
HETATM    7  C   UNL     1     -43.585  55.618 -53.702  1.00  0.00     0.253 A 
HETATM    8  O   UNL     1     -44.351  56.350 -54.321  1.00  0.00    -0.268 OA
HETATM    9  C   UNL     1     -43.330  55.782 -52.239  1.00  0.00     0.024 A 
HETATM   10  C   UNL     1     -42.424  54.998 -51.623  1.00  0.00     0.027 A 
HETATM   11  C   UNL     1     -41.324  52.792 -54.452  1.00  0.00     0.031 A 
HETATM   12  C   UNL     1     -40.390  51.970 -53.820  1.00  0.00     0.009 A 
HETATM   13  H   UNL     1     -43.101  54.515 -55.330  1.00  0.00     0.169 HD
ENDROOT
BRANCH   9  14
HETATM   14  C   UNL     1     -44.069  56.887 -51.542  1.00  0.00     0.136 C 
BRANCH  14  15
HETATM   15  N   UNL     1     -43.575  58.169 -52.046  1.00  0.00    -0.286 NA
HETATM   16  H   UNL     1     -44.151  58.945 -51.715  1.00  0.00     0.128 HD
BRANCH  15  17
HETATM   17  C   UNL     1     -42.221  58.502 -51.846  1.00  0.00     0.042 A 
HETATM   18  C   UNL     1     -41.409  58.633 -52.989  1.00  0.00     0.089 A 
HETATM   19  C   UNL     1     -40.068  58.993 -52.923  1.00  0.00     0.074 A 
HETATM   20  C   UNL     1     -39.505  59.203 -51.673  1.00  0.00     0.068 A 
HETATM   21  C   UNL     1     -40.264  59.050 -50.517  1.00  0.00     0.038 A 
HETATM   22  C   UNL     1     -41.615  58.692 -50.602  1.00  0.00     0.029 A 
BRANCH  18  23
HETATM   23  O   UNL     1     -41.946  58.347 -54.218  1.00  0.00    -0.359 OA
HETATM   24  H   UNL     1     -41.167  58.334 -54.810  1.00  0.00     0.218 HD
ENDBRANCH  18  23
BRANCH  20  25
HETATM   25  O   UNL     1     -38.194  59.552 -51.531  1.00  0.00    -0.361 OA
HETATM   26  H   UNL     1     -37.989  60.240 -52.186  1.00  0.00     0.217 HD
ENDBRANCH  20  25
ENDBRANCH  15  17
ENDBRANCH  14  15
ENDBRANCH   9  14
TORSDOF 5
ENDMDL
MODEL 9
REMARK VINA RESULT:      -7.6      4.000      7.571
REMARK  5 active torsions:
REMARK  status: ('A' for Active; 'I' for Inactive)
REMARK    1  A    between atoms: C_9  and  C_10 
REMARK    2  A    between atoms: C_10  and  N_11 
REMARK    3  A    between atoms: N_11  and  C_12 
REMARK    4  A    between atoms: C_13  and  O_14 
REMARK    5  A    between atoms: C_16  and  O_17 
ROOT
HETATM    1  C   UNL     1     -44.740  61.112 -52.845  1.00  0.00     0.048 C 
HETATM    2  C   UNL     1     -44.567  59.674 -52.451  1.00  0.00    -0.061 A 
HETATM    3  C   UNL     1     -43.825  58.797 -53.258  1.00  0.00     0.020 A 
HETATM    4  C   UNL     1     -43.638  57.466 -52.871  1.00  0.00    -0.008 A 
HETATM    5  C   UNL     1     -44.187  57.018 -51.666  1.00  0.00     0.045 A 
HETATM    6  N   UNL     1     -43.985  55.690 -51.275  1.00  0.00    -0.322 N 
HETATM    7  C   UNL     1     -43.266  54.781 -52.006  1.00  0.00     0.253 A 
HETATM    8  O   UNL     1     -43.085  53.643 -51.584  1.00  0.00    -0.268 OA
HETATM    9  C   UNL     1     -42.709  55.247 -53.312  1.00  0.00     0.024 A 
HETATM   10  C   UNL     1     -42.876  56.528 -53.694  1.00  0.00     0.027 A 
HETATM   11  C   UNL     1     -44.916  57.880 -50.849  1.00  0.00     0.031 A 
HETATM   12  C   UNL     1     -45.100  59.207 -51.242  1.00  0.00     0.009 A 
HETATM   13  H   UNL     1     -44.359  55.353 -50.399  1.00  0.00     0.169 HD
ENDROOT
BRANCH   9  14
HETATM   14  C   UNL     1     -41.918  54.249 -54.106  1.00  0.00     0.136 C 
BRANCH  14  15
HETATM   15  N   UNL     1     -40.691  53.938 -53.372  1.00  0.00    -0.286 NA
HETATM   16  H   UNL     1     -40.687  54.380 -52.451  1.00  0.00     0.128 HD
BRANCH  15  17
HETATM   17  C   UNL     1     -40.313  52.589 -53.220  1.00  0.00     0.042 A 
HETATM   18  C   UNL     1     -39.923  52.165 -51.936  1.00  0.00     0.089 A 
HETATM   19  C   UNL     1     -39.565  50.853 -51.651  1.00  0.00     0.074 A 
HETATM   20  C   UNL     1     -39.565  49.933 -52.690  1.00  0.00     0.068 A 
HETATM   21  C   UNL     1     -39.909  50.318 -53.982  1.00  0.00     0.038 A 
HETATM   22  C   UNL     1     -40.275  51.644 -54.248  1.00  0.00     0.029 A 
BRANCH  18  23
HETATM   23  O   UNL     1     -39.847  53.093 -50.928  1.00  0.00    -0.359 OA
HETATM   24  H   UNL     1     -40.785  53.282 -50.720  1.00  0.00     0.218 HD
ENDBRANCH  18  23
BRANCH  20  25
HETATM   25  O   UNL     1     -39.217  48.630 -52.487  1.00  0.00    -0.361 OA
HETATM   26  H   UNL     1     -39.446  48.125 -53.286  1.00  0.00     0.217 HD
ENDBRANCH  20  25
ENDBRANCH  15  17
ENDBRANCH  14  15
ENDBRANCH   9  14
TORSDOF 5
ENDMDL
MODEL 10
REMARK VINA RESULT:      -7.6      3.444      5.454
REMARK  5 active torsions:
REMARK  status: ('A' for Active; 'I' for Inactive)
REMARK    1  A    between atoms: C_9  and  C_10 
REMARK    2  A    between atoms: C_10  and  N_11 
REMARK    3  A    between atoms: N_11  and  C_12 
REMARK    4  A    between atoms: C_13  and  O_14 
REMARK    5  A    between atoms: C_16  and  O_17 
ROOT
HETATM    1  C   UNL     1     -39.363  49.848 -50.925  1.00  0.00     0.048 C 
HETATM    2  C   UNL     1     -39.749  50.941 -51.878  1.00  0.00    -0.061 A 
HETATM    3  C   UNL     1     -40.206  52.178 -51.399  1.00  0.00     0.020 A 
HETATM    4  C   UNL     1     -40.533  53.205 -52.291  1.00  0.00    -0.008 A 
HETATM    5  C   UNL     1     -40.389  52.993 -53.665  1.00  0.00     0.045 A 
HETATM    6  N   UNL     1     -40.703  54.028 -54.552  1.00  0.00    -0.322 N 
HETATM    7  C   UNL     1     -41.146  55.263 -54.158  1.00  0.00     0.253 A 
HETATM    8  O   UNL     1     -41.358  56.144 -54.985  1.00  0.00    -0.268 OA
HETATM    9  C   UNL     1     -41.335  55.481 -52.692  1.00  0.00     0.024 A 
HETATM   10  C   UNL     1     -41.018  54.503 -51.822  1.00  0.00     0.027 A 
HETATM   11  C   UNL     1     -39.926  51.774 -54.154  1.00  0.00     0.031 A 
HETATM   12  C   UNL     1     -39.603  50.753 -53.260  1.00  0.00     0.009 A 
HETATM   13  H   UNL     1     -40.589  53.899 -55.548  1.00  0.00     0.169 HD
ENDROOT
BRANCH   9  14
HETATM   14  C   UNL     1     -41.814  56.837 -52.264  1.00  0.00     0.136 C 
BRANCH  14  15
HETATM   15  N   UNL     1     -43.171  57.033 -52.776  1.00  0.00    -0.286 NA
HETATM   16  H   UNL     1     -43.710  56.166 -52.741  1.00  0.00     0.128 HD
BRANCH  15  17
HETATM   17  C   UNL     1     -43.959  58.068 -52.234  1.00  0.00     0.042 A 
HETATM   18  C   UNL     1     -44.820  57.739 -51.170  1.00  0.00     0.089 A 
HETATM   19  C   UNL     1     -45.619  58.678 -50.529  1.00  0.00     0.074 A 
HETATM   20  C   UNL     1     -45.584  59.989 -50.982  1.00  0.00     0.068 A 
HETATM   21  C   UNL     1     -44.773  60.349 -52.054  1.00  0.00     0.038 A 
HETATM   22  C   UNL     1     -43.969  59.391 -52.684  1.00  0.00     0.029 A 
BRANCH  18  23
HETATM   23  O   UNL     1     -44.914  56.428 -50.777  1.00  0.00    -0.359 OA
HETATM   24  H   UNL     1     -45.585  56.451 -50.064  1.00  0.00     0.218 HD
ENDBRANCH  18  23
BRANCH  20  25
HETATM   25  O   UNL     1     -46.346  60.963 -50.407  1.00  0.00    -0.361 OA
HETATM   26  H   UNL     1     -46.774  61.473 -51.115  1.00  0.00     0.217 HD
ENDBRANCH  20  25
ENDBRANCH  15  17
ENDBRANCH  14  15
ENDBRANCH   9  14
TORSDOF 5
ENDMDL
