MODEL 1
REMARK VINA RESULT:      -9.3      0.000      0.000
REMARK  8 active torsions:
REMARK  status: ('A' for Active; 'I' for Inactive)
REMARK    1  A    between atoms: C_7  and  C_8 
REMARK       I    between atoms: C_8  and  N_9 
REMARK    2  A    between atoms: N_9  and  N_10 
REMARK    3  A    between atoms: N_10  and  C_11 
REMARK    4  A    between atoms: C_11  and  N_12 
REMARK    5  A    between atoms: N_12  and  C_13 
REMARK    6  A    between atoms: N_15  and  C_16 
REMARK    7  A    between atoms: C_16  and  C_17 
REMARK    8  A    between atoms: C_29  and  C_30 
ROOT
HETATM    1  C   UNL     1     -41.676  56.865 -54.423  1.00  0.00     0.290 C 
HETATM    2  N   UNL     1     -41.477  57.992 -53.651  1.00  0.00    -0.262 N 
HETATM    3  O   UNL     1     -41.132  55.780 -54.236  1.00  0.00    -0.264 OA
HETATM    4  H   UNL     1     -42.062  58.807 -53.831  1.00  0.00     0.190 HD
ENDROOT
BRANCH   2   5
HETATM    5  N   UNL     1     -40.752  57.940 -52.461  1.00  0.00    -0.273 N 
HETATM    6  H   UNL     1     -39.728  57.961 -52.525  1.00  0.00     0.189 HD
BRANCH   5   7
HETATM    7  C   UNL     1     -41.333  58.229 -51.255  1.00  0.00     0.192 C 
HETATM    8  S   UNL     1     -41.258  59.726 -50.495  1.00  0.00    -0.039 SA
BRANCH   7   9
HETATM    9  N   UNL     1     -42.011  57.226 -50.625  1.00  0.00    -0.315 N 
HETATM   10  H   UNL     1     -42.675  57.524 -49.922  1.00  0.00     0.170 HD
BRANCH   9  11
HETATM   11  C   UNL     1     -41.827  55.867 -50.764  1.00  0.00     0.151 A 
HETATM   12  N   UNL     1     -40.656  55.243 -50.607  1.00  0.00    -0.154 NA
HETATM   13  N   UNL     1     -40.947  53.937 -50.796  1.00  0.00    -0.275 N 
HETATM   14  C   UNL     1     -42.263  53.717 -51.085  1.00  0.00     0.116 A 
HETATM   15  C   UNL     1     -42.860  54.955 -51.077  1.00  0.00     0.071 A 
BRANCH  13  16
HETATM   16  C   UNL     1     -39.886  52.939 -50.756  1.00  0.00     0.192 C 
BRANCH  16  17
HETATM   17  C   UNL     1     -39.919  52.043 -51.961  1.00  0.00     0.000 A 
HETATM   18  C   UNL     1     -39.639  50.680 -51.836  1.00  0.00     0.124 A 
HETATM   19  F   UNL     1     -39.351  50.170 -50.630  1.00  0.00    -0.205 F 
HETATM   20  C   UNL     1     -39.657  49.832 -52.940  1.00  0.00     0.043 A 
HETATM   21  C   UNL     1     -39.956  50.347 -54.199  1.00  0.00     0.003 A 
HETATM   22  C   UNL     1     -40.229  51.707 -54.346  1.00  0.00     0.001 A 
HETATM   23  C   UNL     1     -40.206  52.554 -53.235  1.00  0.00     0.012 A 
ENDBRANCH  16  17
ENDBRANCH  13  16
ENDBRANCH   9  11
ENDBRANCH   7   9
ENDBRANCH   5   7
ENDBRANCH   2   5
BRANCH   1  24
HETATM   24  C   UNL     1     -42.623  57.114 -55.521  1.00  0.00     0.150 A 
HETATM   25  N   UNL     1     -42.207  57.221 -56.805  1.00  0.00    -0.165 NA
HETATM   26  N   UNL     1     -43.347  57.386 -57.492  1.00  0.00    -0.240 N 
HETATM   27  C   UNL     1     -44.462  57.494 -56.712  1.00  0.00     0.123 A 
HETATM   28  C   UNL     1     -43.360  57.486 -58.935  1.00  0.00     0.221 C 
HETATM   29  N   UNL     1     -45.675  57.750 -57.243  1.00  0.00    -0.371 N 
HETATM   30  C   UNL     1     -44.034  57.284 -55.425  1.00  0.00     0.089 A 
HETATM   31  C   UNL     1     -45.872  58.087 -58.649  1.00  0.00     0.081 C 
HETATM   32  H   UNL     1     -46.497  57.829 -56.646  1.00  0.00     0.161 HD
HETATM   33  C   UNL     1     -46.749  57.033 -59.316  1.00  0.00     0.032 C 
HETATM   34  C   UNL     1     -44.546  58.356 -59.381  1.00  0.00     0.061 C 
BRANCH  28  35
HETATM   35  C   UNL     1     -43.337  56.103 -59.543  1.00  0.00     0.409 C 
HETATM   36  F   UNL     1     -42.090  55.732 -59.913  1.00  0.00    -0.169 F 
HETATM   37  F   UNL     1     -43.819  55.139 -58.734  1.00  0.00    -0.169 F 
HETATM   38  F   UNL     1     -44.092  56.080 -60.673  1.00  0.00    -0.169 F 
ENDBRANCH  28  35
ENDBRANCH   1  24
TORSDOF 8
ENDMDL
MODEL 2
REMARK VINA RESULT:      -8.8      2.011      2.486
REMARK  8 active torsions:
REMARK  status: ('A' for Active; 'I' for Inactive)
REMARK    1  A    between atoms: C_7  and  C_8 
REMARK       I    between atoms: C_8  and  N_9 
REMARK    2  A    between atoms: N_9  and  N_10 
REMARK    3  A    between atoms: N_10  and  C_11 
REMARK    4  A    between atoms: C_11  and  N_12 
REMARK    5  A    between atoms: N_12  and  C_13 
REMARK    6  A    between atoms: N_15  and  C_16 
REMARK    7  A    between atoms: C_16  and  C_17 
REMARK    8  A    between atoms: C_29  and  C_30 
ROOT
HETATM    1  C   UNL     1     -43.651  56.112 -54.442  1.00  0.00     0.290 C 
HETATM    2  N   UNL     1     -44.239  57.122 -53.708  1.00  0.00    -0.262 N 
HETATM    3  O   UNL     1     -43.426  54.980 -54.024  1.00  0.00    -0.264 OA
HETATM    4  H   UNL     1     -44.477  57.990 -54.188  1.00  0.00     0.190 HD
ENDROOT
BRANCH   2   5
HETATM    5  N   UNL     1     -44.794  56.882 -52.452  1.00  0.00    -0.273 N 
HETATM    6  H   UNL     1     -45.269  55.984 -52.304  1.00  0.00     0.189 HD
BRANCH   5   7
HETATM    7  C   UNL     1     -44.420  57.606 -51.352  1.00  0.00     0.192 C 
HETATM    8  S   UNL     1     -45.263  58.928 -50.749  1.00  0.00    -0.039 SA
BRANCH   7   9
HETATM    9  N   UNL     1     -43.275  57.232 -50.709  1.00  0.00    -0.315 N 
HETATM   10  H   UNL     1     -42.774  57.976 -50.243  1.00  0.00     0.170 HD
BRANCH   9  11
HETATM   11  C   UNL     1     -42.678  55.989 -50.706  1.00  0.00     0.151 A 
HETATM   12  N   UNL     1     -41.369  55.778 -50.870  1.00  0.00    -0.154 NA
HETATM   13  N   UNL     1     -41.231  54.439 -50.758  1.00  0.00    -0.275 N 
HETATM   14  C   UNL     1     -42.415  53.794 -50.545  1.00  0.00     0.116 A 
HETATM   15  C   UNL     1     -43.376  54.776 -50.511  1.00  0.00     0.071 A 
BRANCH  13  16
HETATM   16  C   UNL     1     -39.923  53.821 -50.940  1.00  0.00     0.192 C 
BRANCH  16  17
HETATM   17  C   UNL     1     -39.938  52.799 -52.039  1.00  0.00     0.000 A 
HETATM   18  C   UNL     1     -40.218  53.180 -53.354  1.00  0.00     0.124 A 
HETATM   19  F   UNL     1     -40.462  54.469 -53.634  1.00  0.00    -0.205 F 
HETATM   20  C   UNL     1     -40.243  52.249 -54.389  1.00  0.00     0.043 A 
HETATM   21  C   UNL     1     -39.988  50.907 -54.115  1.00  0.00     0.003 A 
HETATM   22  C   UNL     1     -39.716  50.505 -52.806  1.00  0.00     0.001 A 
HETATM   23  C   UNL     1     -39.696  51.444 -51.771  1.00  0.00     0.012 A 
ENDBRANCH  16  17
ENDBRANCH  13  16
ENDBRANCH   9  11
ENDBRANCH   7   9
ENDBRANCH   5   7
ENDBRANCH   2   5
BRANCH   1  24
HETATM   24  C   UNL     1     -43.310  56.553 -55.804  1.00  0.00     0.150 A 
HETATM   25  N   UNL     1     -43.272  55.683 -56.840  1.00  0.00    -0.165 NA
HETATM   26  N   UNL     1     -42.987  56.463 -57.894  1.00  0.00    -0.240 N 
HETATM   27  C   UNL     1     -42.738  57.766 -57.577  1.00  0.00     0.123 A 
HETATM   28  C   UNL     1     -42.909  55.930 -59.237  1.00  0.00     0.221 C 
HETATM   29  N   UNL     1     -42.352  58.660 -58.510  1.00  0.00    -0.371 N 
HETATM   30  C   UNL     1     -42.976  57.870 -56.229  1.00  0.00     0.089 A 
HETATM   31  C   UNL     1     -42.016  58.285 -59.879  1.00  0.00     0.081 C 
HETATM   32  H   UNL     1     -42.168  59.630 -58.256  1.00  0.00     0.161 HD
HETATM   33  C   UNL     1     -42.972  58.967 -60.852  1.00  0.00     0.032 C 
HETATM   34  C   UNL     1     -41.914  56.761 -60.064  1.00  0.00     0.061 C 
BRANCH  28  35
HETATM   35  C   UNL     1     -44.295  55.843 -59.833  1.00  0.00     0.409 C 
HETATM   36  F   UNL     1     -44.283  56.020 -61.175  1.00  0.00    -0.169 F 
HETATM   37  F   UNL     1     -44.925  54.677 -59.589  1.00  0.00    -0.169 F 
HETATM   38  F   UNL     1     -45.082  56.828 -59.327  1.00  0.00    -0.169 F 
ENDBRANCH  28  35
ENDBRANCH   1  24
TORSDOF 8
ENDMDL
MODEL 3
REMARK VINA RESULT:      -8.5      1.702      2.342
REMARK  8 active torsions:
REMARK  status: ('A' for Active; 'I' for Inactive)
REMARK    1  A    between atoms: C_7  and  C_8 
REMARK       I    between atoms: C_8  and  N_9 
REMARK    2  A    between atoms: N_9  and  N_10 
REMARK    3  A    between atoms: N_10  and  C_11 
REMARK    4  A    between atoms: C_11  and  N_12 
REMARK    5  A    between atoms: N_12  and  C_13 
REMARK    6  A    between atoms: N_15  and  C_16 
REMARK    7  A    between atoms: C_16  and  C_17 
REMARK    8  A    between atoms: C_29  and  C_30 
ROOT
HETATM    1  C   UNL     1     -42.315  58.075 -54.861  1.00  0.00     0.290 C 
HETATM    2  N   UNL     1     -42.389  59.339 -54.311  1.00  0.00    -0.262 N 
HETATM    3  O   UNL     1     -41.605  57.166 -54.438  1.00  0.00    -0.264 OA
HETATM    4  H   UNL     1     -43.092  59.981 -54.676  1.00  0.00     0.190 HD
ENDROOT
BRANCH   2   5
HETATM    5  N   UNL     1     -41.775  59.643 -53.098  1.00  0.00    -0.273 N 
HETATM    6  H   UNL     1     -40.764  59.822 -53.106  1.00  0.00     0.189 HD
BRANCH   5   7
HETATM    7  C   UNL     1     -42.498  60.061 -52.013  1.00  0.00     0.192 C 
HETATM    8  S   UNL     1     -43.240  61.563 -51.882  1.00  0.00    -0.039 SA
BRANCH   7   9
HETATM    9  N   UNL     1     -42.615  59.197 -50.962  1.00  0.00    -0.315 N 
HETATM   10  H   UNL     1     -42.969  59.600 -50.104  1.00  0.00     0.170 HD
BRANCH   9  11
HETATM   11  C   UNL     1     -42.219  57.878 -50.906  1.00  0.00     0.151 A 
HETATM   12  N   UNL     1     -42.961  56.848 -51.323  1.00  0.00    -0.154 NA
HETATM   13  N   UNL     1     -42.176  55.768 -51.119  1.00  0.00    -0.275 N 
HETATM   14  C   UNL     1     -40.966  56.081 -50.570  1.00  0.00     0.116 A 
HETATM   15  C   UNL     1     -40.967  57.447 -50.414  1.00  0.00     0.071 A 
BRANCH  13  16
HETATM   16  C   UNL     1     -42.680  54.432 -51.410  1.00  0.00     0.192 C 
BRANCH  16  17
HETATM   17  C   UNL     1     -41.712  53.641 -52.242  1.00  0.00     0.000 A 
HETATM   18  C   UNL     1     -41.842  53.603 -53.633  1.00  0.00     0.124 A 
HETATM   19  F   UNL     1     -42.830  54.288 -54.226  1.00  0.00    -0.205 F 
HETATM   20  C   UNL     1     -40.960  52.872 -54.424  1.00  0.00     0.043 A 
HETATM   21  C   UNL     1     -39.926  52.157 -53.823  1.00  0.00     0.003 A 
HETATM   22  C   UNL     1     -39.785  52.174 -52.435  1.00  0.00     0.001 A 
HETATM   23  C   UNL     1     -40.676  52.908 -51.646  1.00  0.00     0.012 A 
ENDBRANCH  16  17
ENDBRANCH  13  16
ENDBRANCH   9  11
ENDBRANCH   7   9
ENDBRANCH   5   7
ENDBRANCH   2   5
BRANCH   1  24
HETATM   24  C   UNL     1     -43.191  57.936 -56.034  1.00  0.00     0.150 A 
HETATM   25  N   UNL     1     -42.686  57.832 -57.286  1.00  0.00    -0.165 NA
HETATM   26  N   UNL     1     -43.776  57.668 -58.051  1.00  0.00    -0.240 N 
HETATM   27  C   UNL     1     -44.957  57.764 -57.374  1.00  0.00     0.123 A 
HETATM   28  C   UNL     1     -43.680  57.457 -59.480  1.00  0.00     0.221 C 
HETATM   29  N   UNL     1     -46.144  57.709 -58.011  1.00  0.00    -0.371 N 
HETATM   30  C   UNL     1     -44.614  57.900 -56.052  1.00  0.00     0.089 A 
HETATM   31  C   UNL     1     -46.267  57.706 -59.465  1.00  0.00     0.081 C 
HETATM   32  H   UNL     1     -47.017  57.784 -57.491  1.00  0.00     0.161 HD
HETATM   33  C   UNL     1     -46.926  56.412 -59.927  1.00  0.00     0.032 C 
HETATM   34  C   UNL     1     -44.934  58.018 -60.169  1.00  0.00     0.061 C 
BRANCH  28  35
HETATM   35  C   UNL     1     -43.412  55.997 -59.763  1.00  0.00     0.409 C 
HETATM   36  F   UNL     1     -44.012  55.584 -60.903  1.00  0.00    -0.169 F 
HETATM   37  F   UNL     1     -42.104  55.689 -59.863  1.00  0.00    -0.169 F 
HETATM   38  F   UNL     1     -43.922  55.229 -58.765  1.00  0.00    -0.169 F 
ENDBRANCH  28  35
ENDBRANCH   1  24
TORSDOF 8
ENDMDL
MODEL 4
REMARK VINA RESULT:      -8.5      1.949      2.660
REMARK  8 active torsions:
REMARK  status: ('A' for Active; 'I' for Inactive)
REMARK    1  A    between atoms: C_7  and  C_8 
REMARK       I    between atoms: C_8  and  N_9 
REMARK    2  A    between atoms: N_9  and  N_10 
REMARK    3  A    between atoms: N_10  and  C_11 
REMARK    4  A    between atoms: C_11  and  N_12 
REMARK    5  A    between atoms: N_12  and  C_13 
REMARK    6  A    between atoms: N_15  and  C_16 
REMARK    7  A    between atoms: C_16  and  C_17 
REMARK    8  A    between atoms: C_29  and  C_30 
ROOT
HETATM    1  C   UNL     1     -43.975  57.568 -54.408  1.00  0.00     0.290 C 
HETATM    2  N   UNL     1     -43.210  58.417 -53.633  1.00  0.00    -0.262 N 
HETATM    3  O   UNL     1     -44.860  56.832 -53.981  1.00  0.00    -0.264 OA
HETATM    4  H   UNL     1     -42.579  59.062 -54.107  1.00  0.00     0.190 HD
ENDROOT
BRANCH   2   5
HETATM    5  N   UNL     1     -43.504  58.638 -52.289  1.00  0.00    -0.273 N 
HETATM    6  H   UNL     1     -44.493  58.700 -52.020  1.00  0.00     0.189 HD
BRANCH   5   7
HETATM    7  C   UNL     1     -42.578  58.410 -51.306  1.00  0.00     0.192 C 
HETATM    8  S   UNL     1     -41.579  59.589 -50.646  1.00  0.00    -0.039 SA
BRANCH   7   9
HETATM    9  N   UNL     1     -42.454  57.133 -50.839  1.00  0.00    -0.315 N 
HETATM   10  H   UNL     1     -42.404  57.040 -49.834  1.00  0.00     0.170 HD
BRANCH   9  11
HETATM   11  C   UNL     1     -42.292  55.979 -51.576  1.00  0.00     0.151 A 
HETATM   12  N   UNL     1     -41.234  55.719 -52.350  1.00  0.00    -0.154 NA
HETATM   13  N   UNL     1     -41.476  54.483 -52.840  1.00  0.00    -0.275 N 
HETATM   14  C   UNL     1     -42.663  53.960 -52.413  1.00  0.00     0.116 A 
HETATM   15  C   UNL     1     -43.219  54.913 -51.593  1.00  0.00     0.071 A 
BRANCH  13  16
HETATM   16  C   UNL     1     -40.549  53.877 -53.786  1.00  0.00     0.192 C 
BRANCH  16  17
HETATM   17  C   UNL     1     -40.250  52.448 -53.436  1.00  0.00     0.000 A 
HETATM   18  C   UNL     1     -39.720  52.123 -52.185  1.00  0.00     0.124 A 
HETATM   19  F   UNL     1     -39.489  53.095 -51.289  1.00  0.00    -0.205 F 
HETATM   20  C   UNL     1     -39.430  50.806 -51.840  1.00  0.00     0.043 A 
HETATM   21  C   UNL     1     -39.666  49.786 -52.758  1.00  0.00     0.003 A 
HETATM   22  C   UNL     1     -40.186  50.090 -54.017  1.00  0.00     0.001 A 
HETATM   23  C   UNL     1     -40.473  51.415 -54.358  1.00  0.00     0.012 A 
ENDBRANCH  16  17
ENDBRANCH  13  16
ENDBRANCH   9  11
ENDBRANCH   7   9
ENDBRANCH   5   7
ENDBRANCH   2   5
BRANCH   1  24
HETATM   24  C   UNL     1     -43.600  57.638 -55.830  1.00  0.00     0.150 A 
HETATM   25  N   UNL     1     -44.509  57.441 -56.812  1.00  0.00    -0.165 NA
HETATM   26  N   UNL     1     -43.805  57.641 -57.937  1.00  0.00    -0.240 N 
HETATM   27  C   UNL     1     -42.472  57.853 -57.734  1.00  0.00     0.123 A 
HETATM   28  C   UNL     1     -44.423  57.582 -59.244  1.00  0.00     0.221 C 
HETATM   29  N   UNL     1     -41.612  57.984 -58.764  1.00  0.00    -0.371 N 
HETATM   30  C   UNL     1     -42.308  57.896 -56.372  1.00  0.00     0.089 A 
HETATM   31  C   UNL     1     -41.995  57.753 -60.153  1.00  0.00     0.081 C 
HETATM   32  H   UNL     1     -40.619  58.140 -58.595  1.00  0.00     0.161 HD
HETATM   33  C   UNL     1     -41.820  59.036 -60.959  1.00  0.00     0.032 C 
HETATM   34  C   UNL     1     -43.389  57.117 -60.282  1.00  0.00     0.061 C 
BRANCH  28  35
HETATM   35  C   UNL     1     -45.073  58.909 -59.561  1.00  0.00     0.409 C 
HETATM   36  F   UNL     1     -45.106  59.151 -60.892  1.00  0.00    -0.169 F 
HETATM   37  F   UNL     1     -46.333  59.028 -59.099  1.00  0.00    -0.169 F 
HETATM   38  F   UNL     1     -44.355  59.922 -59.008  1.00  0.00    -0.169 F 
ENDBRANCH  28  35
ENDBRANCH   1  24
TORSDOF 8
ENDMDL
MODEL 5
REMARK VINA RESULT:      -8.5      4.202      5.895
REMARK  8 active torsions:
REMARK  status: ('A' for Active; 'I' for Inactive)
REMARK    1  A    between atoms: C_7  and  C_8 
REMARK       I    between atoms: C_8  and  N_9 
REMARK    2  A    between atoms: N_9  and  N_10 
REMARK    3  A    between atoms: N_10  and  C_11 
REMARK    4  A    between atoms: C_11  and  N_12 
REMARK    5  A    between atoms: N_12  and  C_13 
REMARK    6  A    between atoms: N_15  and  C_16 
REMARK    7  A    between atoms: C_16  and  C_17 
REMARK    8  A    between atoms: C_29  and  C_30 
ROOT
HETATM    1  C   UNL     1     -42.279  59.359 -55.861  1.00  0.00     0.290 C 
HETATM    2  N   UNL     1     -42.591  58.027 -56.044  1.00  0.00    -0.262 N 
HETATM    3  O   UNL     1     -41.558  60.020 -56.603  1.00  0.00    -0.264 OA
HETATM    4  H   UNL     1     -43.286  57.606 -55.427  1.00  0.00     0.190 HD
ENDROOT
BRANCH   2   5
HETATM    5  N   UNL     1     -42.240  57.351 -57.211  1.00  0.00    -0.273 N 
HETATM    6  H   UNL     1     -41.298  57.504 -57.587  1.00  0.00     0.189 HD
BRANCH   5   7
HETATM    7  C   UNL     1     -42.940  56.256 -57.644  1.00  0.00     0.192 C 
HETATM    8  S   UNL     1     -43.105  55.804 -59.253  1.00  0.00    -0.039 SA
BRANCH   7   9
HETATM    9  N   UNL     1     -43.555  55.486 -56.698  1.00  0.00    -0.315 N 
HETATM   10  H   UNL     1     -44.541  55.321 -56.844  1.00  0.00     0.170 HD
BRANCH   9  11
HETATM   11  C   UNL     1     -43.013  54.995 -55.529  1.00  0.00     0.151 A 
HETATM   12  N   UNL     1     -41.703  54.853 -55.303  1.00  0.00    -0.154 NA
HETATM   13  N   UNL     1     -41.633  54.385 -54.038  1.00  0.00    -0.275 N 
HETATM   14  C   UNL     1     -42.858  54.210 -53.462  1.00  0.00     0.116 A 
HETATM   15  C   UNL     1     -43.776  54.593 -54.409  1.00  0.00     0.071 A 
BRANCH  13  16
HETATM   16  C   UNL     1     -40.340  54.052 -53.454  1.00  0.00     0.192 C 
BRANCH  16  17
HETATM   17  C   UNL     1     -40.149  52.567 -53.335  1.00  0.00     0.000 A 
HETATM   18  C   UNL     1     -39.728  52.003 -52.128  1.00  0.00     0.124 A 
HETATM   19  F   UNL     1     -39.505  52.793 -51.068  1.00  0.00    -0.205 F 
HETATM   20  C   UNL     1     -39.537  50.630 -51.997  1.00  0.00     0.043 A 
HETATM   21  C   UNL     1     -39.767  49.795 -53.088  1.00  0.00     0.003 A 
HETATM   22  C   UNL     1     -40.178  50.340 -54.306  1.00  0.00     0.001 A 
HETATM   23  C   UNL     1     -40.364  51.720 -54.432  1.00  0.00     0.012 A 
ENDBRANCH  16  17
ENDBRANCH  13  16
ENDBRANCH   9  11
ENDBRANCH   7   9
ENDBRANCH   5   7
ENDBRANCH   2   5
BRANCH   1  24
HETATM   24  C   UNL     1     -42.911  59.907 -54.651  1.00  0.00     0.150 A 
HETATM   25  N   UNL     1     -44.040  59.366 -54.134  1.00  0.00    -0.165 NA
HETATM   26  N   UNL     1     -44.260  60.095 -53.030  1.00  0.00    -0.240 N 
HETATM   27  C   UNL     1     -43.396  61.139 -52.865  1.00  0.00     0.123 A 
HETATM   28  C   UNL     1     -45.359  59.807 -52.133  1.00  0.00     0.221 C 
HETATM   29  N   UNL     1     -43.536  62.019 -51.852  1.00  0.00    -0.371 N 
HETATM   30  C   UNL     1     -42.481  61.025 -53.880  1.00  0.00     0.089 A 
HETATM   31  C   UNL     1     -44.691  62.028 -50.960  1.00  0.00     0.081 C 
HETATM   32  H   UNL     1     -42.883  62.794 -51.744  1.00  0.00     0.161 HD
HETATM   33  C   UNL     1     -44.242  61.757 -49.528  1.00  0.00     0.032 C 
HETATM   34  C   UNL     1     -45.820  61.104 -51.450  1.00  0.00     0.061 C 
BRANCH  28  35
HETATM   35  C   UNL     1     -44.962  58.706 -51.178  1.00  0.00     0.409 C 
HETATM   36  F   UNL     1     -43.628  58.686 -50.952  1.00  0.00    -0.169 F 
HETATM   37  F   UNL     1     -45.572  58.773 -49.978  1.00  0.00    -0.169 F 
HETATM   38  F   UNL     1     -45.276  57.494 -51.710  1.00  0.00    -0.169 F 
ENDBRANCH  28  35
ENDBRANCH   1  24
TORSDOF 8
ENDMDL
MODEL 6
REMARK VINA RESULT:      -8.4      3.491      7.862
REMARK  8 active torsions:
REMARK  status: ('A' for Active; 'I' for Inactive)
REMARK    1  A    between atoms: C_7  and  C_8 
REMARK       I    between atoms: C_8  and  N_9 
REMARK    2  A    between atoms: N_9  and  N_10 
REMARK    3  A    between atoms: N_10  and  C_11 
REMARK    4  A    between atoms: C_11  and  N_12 
REMARK    5  A    between atoms: N_12  and  C_13 
REMARK    6  A    between atoms: N_15  and  C_16 
REMARK    7  A    between atoms: C_16  and  C_17 
REMARK    8  A    between atoms: C_29  and  C_30 
ROOT
HETATM    1  C   UNL     1     -42.594  55.023 -56.164  1.00  0.00     0.290 C 
HETATM    2  N   UNL     1     -42.099  56.228 -56.622  1.00  0.00    -0.262 N 
HETATM    3  O   UNL     1     -43.427  54.338 -56.751  1.00  0.00    -0.264 OA
HETATM    4  H   UNL     1     -41.331  56.658 -56.108  1.00  0.00     0.190 HD
ENDROOT
BRANCH   2   5
HETATM    5  N   UNL     1     -42.387  56.693 -57.904  1.00  0.00    -0.273 N 
HETATM    6  H   UNL     1     -41.814  56.343 -58.679  1.00  0.00     0.189 HD
BRANCH   5   7
HETATM    7  C   UNL     1     -43.588  57.282 -58.199  1.00  0.00     0.192 C 
HETATM    8  S   UNL     1     -44.033  57.826 -59.725  1.00  0.00    -0.039 SA
BRANCH   7   9
HETATM    9  N   UNL     1     -44.479  57.445 -57.178  1.00  0.00    -0.315 N 
HETATM   10  H   UNL     1     -45.401  57.064 -57.340  1.00  0.00     0.170 HD
BRANCH   9  11
HETATM   11  C   UNL     1     -44.298  58.147 -56.005  1.00  0.00     0.151 A 
HETATM   12  N   UNL     1     -43.381  59.103 -55.831  1.00  0.00    -0.154 NA
HETATM   13  N   UNL     1     -43.586  59.534 -54.567  1.00  0.00    -0.275 N 
HETATM   14  C   UNL     1     -44.593  58.868 -53.930  1.00  0.00     0.116 A 
HETATM   15  C   UNL     1     -45.073  57.955 -54.839  1.00  0.00     0.071 A 
BRANCH  13  16
HETATM   16  C   UNL     1     -42.720  60.556 -53.993  1.00  0.00     0.192 C 
BRANCH  16  17
HETATM   17  C   UNL     1     -42.057  60.081 -52.733  1.00  0.00     0.000 A 
HETATM   18  C   UNL     1     -41.065  59.098 -52.783  1.00  0.00     0.124 A 
HETATM   19  F   UNL     1     -40.698  58.586 -53.966  1.00  0.00    -0.205 F 
HETATM   20  C   UNL     1     -40.441  58.638 -51.626  1.00  0.00     0.043 A 
HETATM   21  C   UNL     1     -40.810  59.162 -50.390  1.00  0.00     0.003 A 
HETATM   22  C   UNL     1     -41.805  60.138 -50.317  1.00  0.00     0.001 A 
HETATM   23  C   UNL     1     -42.431  60.593 -51.481  1.00  0.00     0.012 A 
ENDBRANCH  16  17
ENDBRANCH  13  16
ENDBRANCH   9  11
ENDBRANCH   7   9
ENDBRANCH   5   7
ENDBRANCH   2   5
BRANCH   1  24
HETATM   24  C   UNL     1     -42.008  54.648 -54.868  1.00  0.00     0.150 A 
HETATM   25  N   UNL     1     -42.190  55.407 -53.762  1.00  0.00    -0.165 NA
HETATM   26  N   UNL     1     -41.563  54.714 -52.799  1.00  0.00    -0.240 N 
HETATM   27  C   UNL     1     -40.900  53.607 -53.245  1.00  0.00     0.123 A 
HETATM   28  C   UNL     1     -41.564  55.153 -51.421  1.00  0.00     0.221 C 
HETATM   29  N   UNL     1     -40.149  52.853 -52.418  1.00  0.00    -0.371 N 
HETATM   30  C   UNL     1     -41.199  53.511 -54.581  1.00  0.00     0.089 A 
HETATM   31  C   UNL     1     -39.852  53.235 -51.042  1.00  0.00     0.081 C 
HETATM   32  H   UNL     1     -39.659  52.030 -52.767  1.00  0.00     0.161 HD
HETATM   33  C   UNL     1     -40.423  52.198 -50.081  1.00  0.00     0.032 C 
HETATM   34  C   UNL     1     -40.275  54.681 -50.728  1.00  0.00     0.061 C 
BRANCH  28  35
HETATM   35  C   UNL     1     -42.837  54.705 -50.743  1.00  0.00     0.409 C 
HETATM   36  F   UNL     1     -43.787  55.668 -50.759  1.00  0.00    -0.169 F 
HETATM   37  F   UNL     1     -43.382  53.595 -51.277  1.00  0.00    -0.169 F 
HETATM   38  F   UNL     1     -42.595  54.432 -49.433  1.00  0.00    -0.169 F 
ENDBRANCH  28  35
ENDBRANCH   1  24
TORSDOF 8
ENDMDL
MODEL 7
REMARK VINA RESULT:      -8.1      2.289      2.975
REMARK  8 active torsions:
REMARK  status: ('A' for Active; 'I' for Inactive)
REMARK    1  A    between atoms: C_7  and  C_8 
REMARK       I    between atoms: C_8  and  N_9 
REMARK    2  A    between atoms: N_9  and  N_10 
REMARK    3  A    between atoms: N_10  and  C_11 
REMARK    4  A    between atoms: C_11  and  N_12 
REMARK    5  A    between atoms: N_12  and  C_13 
REMARK    6  A    between atoms: N_15  and  C_16 
REMARK    7  A    between atoms: C_16  and  C_17 
REMARK    8  A    between atoms: C_29  and  C_30 
ROOT
HETATM    1  C   UNL     1     -44.714  59.713 -53.958  1.00  0.00     0.290 C 
HETATM    2  N   UNL     1     -44.679  58.888 -52.852  1.00  0.00    -0.262 N 
HETATM    3  O   UNL     1     -44.849  60.933 -53.921  1.00  0.00    -0.264 OA
HETATM    4  H   UNL     1     -44.453  57.904 -52.993  1.00  0.00     0.190 HD
ENDROOT
BRANCH   2   5
HETATM    5  N   UNL     1     -44.623  59.406 -51.559  1.00  0.00    -0.273 N 
HETATM    6  H   UNL     1     -45.431  59.248 -50.946  1.00  0.00     0.189 HD
BRANCH   5   7
HETATM    7  C   UNL     1     -43.436  59.774 -50.985  1.00  0.00     0.192 C 
HETATM    8  S   UNL     1     -43.046  61.341 -50.520  1.00  0.00    -0.039 SA
BRANCH   7   9
HETATM    9  N   UNL     1     -42.502  58.798 -50.786  1.00  0.00    -0.315 N 
HETATM   10  H   UNL     1     -41.889  58.936 -49.994  1.00  0.00     0.170 HD
BRANCH   9  11
HETATM   11  C   UNL     1     -42.237  57.709 -51.589  1.00  0.00     0.151 A 
HETATM   12  N   UNL     1     -42.915  56.557 -51.549  1.00  0.00    -0.154 NA
HETATM   13  N   UNL     1     -42.348  55.804 -52.517  1.00  0.00    -0.275 N 
HETATM   14  C   UNL     1     -41.321  56.437 -53.156  1.00  0.00     0.116 A 
HETATM   15  C   UNL     1     -41.221  57.676 -52.571  1.00  0.00     0.071 A 
BRANCH  13  16
HETATM   16  C   UNL     1     -42.797  54.436 -52.735  1.00  0.00     0.192 C 
BRANCH  16  17
HETATM   17  C   UNL     1     -41.645  53.477 -52.818  1.00  0.00     0.000 A 
HETATM   18  C   UNL     1     -40.896  53.172 -51.678  1.00  0.00     0.124 A 
HETATM   19  F   UNL     1     -41.219  53.731 -50.503  1.00  0.00    -0.205 F 
HETATM   20  C   UNL     1     -39.819  52.291 -51.732  1.00  0.00     0.043 A 
HETATM   21  C   UNL     1     -39.473  51.700 -52.945  1.00  0.00     0.003 A 
HETATM   22  C   UNL     1     -40.202  51.999 -54.097  1.00  0.00     0.001 A 
HETATM   23  C   UNL     1     -41.280  52.887 -54.037  1.00  0.00     0.012 A 
ENDBRANCH  16  17
ENDBRANCH  13  16
ENDBRANCH   9  11
ENDBRANCH   7   9
ENDBRANCH   5   7
ENDBRANCH   2   5
BRANCH   1  24
HETATM   24  C   UNL     1     -44.575  58.954 -55.211  1.00  0.00     0.150 A 
HETATM   25  N   UNL     1     -43.434  58.293 -55.515  1.00  0.00    -0.165 NA
HETATM   26  N   UNL     1     -43.720  57.694 -56.682  1.00  0.00    -0.240 N 
HETATM   27  C   UNL     1     -44.943  58.018 -57.194  1.00  0.00     0.123 A 
HETATM   28  C   UNL     1     -42.774  56.822 -57.343  1.00  0.00     0.221 C 
HETATM   29  N   UNL     1     -45.346  57.570 -58.401  1.00  0.00    -0.371 N 
HETATM   30  C   UNL     1     -45.544  58.807 -56.245  1.00  0.00     0.089 A 
HETATM   31  C   UNL     1     -44.466  56.850 -59.315  1.00  0.00     0.081 C 
HETATM   32  H   UNL     1     -46.262  57.823 -58.769  1.00  0.00     0.161 HD
HETATM   33  C   UNL     1     -45.013  55.449 -59.565  1.00  0.00     0.032 C 
HETATM   34  C   UNL     1     -42.996  56.879 -58.863  1.00  0.00     0.061 C 
BRANCH  28  35
HETATM   35  C   UNL     1     -42.858  55.435 -56.752  1.00  0.00     0.409 C 
HETATM   36  F   UNL     1     -43.691  55.387 -55.686  1.00  0.00    -0.169 F 
HETATM   37  F   UNL     1     -43.267  54.491 -57.622  1.00  0.00    -0.169 F 
HETATM   38  F   UNL     1     -41.637  55.048 -56.298  1.00  0.00    -0.169 F 
ENDBRANCH  28  35
ENDBRANCH   1  24
TORSDOF 8
ENDMDL
MODEL 8
REMARK VINA RESULT:      -8.0      4.447      6.425
REMARK  8 active torsions:
REMARK  status: ('A' for Active; 'I' for Inactive)
REMARK    1  A    between atoms: C_7  and  C_8 
REMARK       I    between atoms: C_8  and  N_9 
REMARK    2  A    between atoms: N_9  and  N_10 
REMARK    3  A    between atoms: N_10  and  C_11 
REMARK    4  A    between atoms: C_11  and  N_12 
REMARK    5  A    between atoms: N_12  and  C_13 
REMARK    6  A    between atoms: N_15  and  C_16 
REMARK    7  A    between atoms: C_16  and  C_17 
REMARK    8  A    between atoms: C_29  and  C_30 
ROOT
HETATM    1  C   UNL     1     -41.893  59.315 -53.794  1.00  0.00     0.290 C 
HETATM    2  N   UNL     1     -42.779  58.702 -54.657  1.00  0.00    -0.262 N 
HETATM    3  O   UNL     1     -40.672  59.315 -53.924  1.00  0.00    -0.264 OA
HETATM    4  H   UNL     1     -43.776  58.858 -54.512  1.00  0.00     0.190 HD
ENDROOT
BRANCH   2   5
HETATM    5  N   UNL     1     -42.358  58.162 -55.870  1.00  0.00    -0.273 N 
HETATM    6  H   UNL     1     -41.348  58.084 -56.034  1.00  0.00     0.189 HD
BRANCH   5   7
HETATM    7  C   UNL     1     -43.201  57.422 -56.656  1.00  0.00     0.192 C 
HETATM    8  S   UNL     1     -44.147  58.050 -57.894  1.00  0.00    -0.039 SA
BRANCH   7   9
HETATM    9  N   UNL     1     -43.283  56.082 -56.407  1.00  0.00    -0.315 N 
HETATM   10  H   UNL     1     -43.763  55.537 -57.110  1.00  0.00     0.170 HD
BRANCH   9  11
HETATM   11  C   UNL     1     -42.878  55.409 -55.273  1.00  0.00     0.151 A 
HETATM   12  N   UNL     1     -41.605  55.279 -54.885  1.00  0.00    -0.154 NA
HETATM   13  N   UNL     1     -41.680  54.593 -53.724  1.00  0.00    -0.275 N 
HETATM   14  C   UNL     1     -42.960  54.270 -53.374  1.00  0.00     0.116 A 
HETATM   15  C   UNL     1     -43.761  54.783 -54.365  1.00  0.00     0.071 A 
BRANCH  13  16
HETATM   16  C   UNL     1     -40.463  54.209 -53.022  1.00  0.00     0.192 C 
BRANCH  16  17
HETATM   17  C   UNL     1     -40.216  52.730 -53.102  1.00  0.00     0.000 A 
HETATM   18  C   UNL     1     -39.813  52.019 -51.969  1.00  0.00     0.124 A 
HETATM   19  F   UNL     1     -39.656  52.661 -50.803  1.00  0.00    -0.205 F 
HETATM   20  C   UNL     1     -39.573  50.648 -52.021  1.00  0.00     0.043 A 
HETATM   21  C   UNL     1     -39.733  49.966 -53.225  1.00  0.00     0.003 A 
HETATM   22  C   UNL     1     -40.127  50.660 -54.370  1.00  0.00     0.001 A 
HETATM   23  C   UNL     1     -40.363  52.036 -54.312  1.00  0.00     0.012 A 
ENDBRANCH  16  17
ENDBRANCH  13  16
ENDBRANCH   9  11
ENDBRANCH   7   9
ENDBRANCH   5   7
ENDBRANCH   2   5
BRANCH   1  24
HETATM   24  C   UNL     1     -42.585  59.975 -52.676  1.00  0.00     0.150 A 
HETATM   25  N   UNL     1     -43.488  60.961 -52.886  1.00  0.00    -0.165 NA
HETATM   26  N   UNL     1     -43.926  61.254 -51.652  1.00  0.00    -0.240 N 
HETATM   27  C   UNL     1     -43.279  60.585 -50.654  1.00  0.00     0.123 A 
HETATM   28  C   UNL     1     -44.963  62.237 -51.424  1.00  0.00     0.221 C 
HETATM   29  N   UNL     1     -43.540  60.830 -49.353  1.00  0.00    -0.371 N 
HETATM   30  C   UNL     1     -42.426  59.715 -51.285  1.00  0.00     0.089 A 
HETATM   31  C   UNL     1     -44.398  61.922 -48.907  1.00  0.00     0.081 C 
HETATM   32  H   UNL     1     -43.047  60.323 -48.620  1.00  0.00     0.161 HD
HETATM   33  C   UNL     1     -45.603  61.362 -48.159  1.00  0.00     0.032 C 
HETATM   34  C   UNL     1     -44.761  62.890 -50.047  1.00  0.00     0.061 C 
BRANCH  28  35
HETATM   35  C   UNL     1     -46.320  61.603 -51.621  1.00  0.00     0.409 C 
HETATM   36  F   UNL     1     -47.280  62.224 -50.897  1.00  0.00    -0.169 F 
HETATM   37  F   UNL     1     -46.735  61.580 -52.902  1.00  0.00    -0.169 F 
HETATM   38  F   UNL     1     -46.296  60.313 -51.193  1.00  0.00    -0.169 F 
ENDBRANCH  28  35
ENDBRANCH   1  24
TORSDOF 8
ENDMDL
MODEL 9
REMARK VINA RESULT:      -8.0      3.514      7.647
REMARK  8 active torsions:
REMARK  status: ('A' for Active; 'I' for Inactive)
REMARK    1  A    between atoms: C_7  and  C_8 
REMARK       I    between atoms: C_8  and  N_9 
REMARK    2  A    between atoms: N_9  and  N_10 
REMARK    3  A    between atoms: N_10  and  C_11 
REMARK    4  A    between atoms: C_11  and  N_12 
REMARK    5  A    between atoms: N_12  and  C_13 
REMARK    6  A    between atoms: N_15  and  C_16 
REMARK    7  A    between atoms: C_16  and  C_17 
REMARK    8  A    between atoms: C_29  and  C_30 
ROOT
HETATM    1  C   UNL     1     -41.524  56.364 -54.962  1.00  0.00     0.290 C 
HETATM    2  N   UNL     1     -41.964  56.209 -56.261  1.00  0.00    -0.262 N 
HETATM    3  O   UNL     1     -41.525  57.423 -54.342  1.00  0.00    -0.264 OA
HETATM    4  H   UNL     1     -42.020  55.264 -56.640  1.00  0.00     0.190 HD
ENDROOT
BRANCH   2   5
HETATM    5  N   UNL     1     -42.619  57.237 -56.936  1.00  0.00    -0.273 N 
HETATM    6  H   UNL     1     -42.057  58.036 -57.250  1.00  0.00     0.189 HD
BRANCH   5   7
HETATM    7  C   UNL     1     -43.854  57.053 -57.497  1.00  0.00     0.192 C 
HETATM    8  S   UNL     1     -44.119  56.569 -59.084  1.00  0.00    -0.039 SA
BRANCH   7   9
HETATM    9  N   UNL     1     -44.946  57.291 -56.712  1.00  0.00    -0.315 N 
HETATM   10  H   UNL     1     -45.837  57.033 -57.115  1.00  0.00     0.170 HD
BRANCH   9  11
HETATM   11  C   UNL     1     -44.982  57.924 -55.488  1.00  0.00     0.151 A 
HETATM   12  N   UNL     1     -44.837  57.306 -54.312  1.00  0.00    -0.154 NA
HETATM   13  N   UNL     1     -44.901  58.302 -53.402  1.00  0.00    -0.275 N 
HETATM   14  C   UNL     1     -45.100  59.530 -53.964  1.00  0.00     0.116 A 
HETATM   15  C   UNL     1     -45.162  59.316 -55.320  1.00  0.00     0.071 A 
BRANCH  13  16
HETATM   16  C   UNL     1     -44.835  57.997 -51.978  1.00  0.00     0.192 C 
BRANCH  16  17
HETATM   17  C   UNL     1     -43.448  58.179 -51.433  1.00  0.00     0.000 A 
HETATM   18  C   UNL     1     -42.657  57.069 -51.129  1.00  0.00     0.124 A 
HETATM   19  F   UNL     1     -43.138  55.834 -51.338  1.00  0.00    -0.205 F 
HETATM   20  C   UNL     1     -41.370  57.213 -50.617  1.00  0.00     0.043 A 
HETATM   21  C   UNL     1     -40.856  58.489 -50.398  1.00  0.00     0.003 A 
HETATM   22  C   UNL     1     -41.634  59.611 -50.686  1.00  0.00     0.001 A 
HETATM   23  C   UNL     1     -42.926  59.459 -51.197  1.00  0.00     0.012 A 
ENDBRANCH  16  17
ENDBRANCH  13  16
ENDBRANCH   9  11
ENDBRANCH   7   9
ENDBRANCH   5   7
ENDBRANCH   2   5
BRANCH   1  24
HETATM   24  C   UNL     1     -41.040  55.096 -54.393  1.00  0.00     0.150 A 
HETATM   25  N   UNL     1     -40.554  55.026 -53.132  1.00  0.00    -0.165 NA
HETATM   26  N   UNL     1     -40.277  53.723 -52.974  1.00  0.00    -0.240 N 
HETATM   27  C   UNL     1     -40.460  52.970 -54.098  1.00  0.00     0.123 A 
HETATM   28  C   UNL     1     -39.781  53.195 -51.722  1.00  0.00     0.221 C 
HETATM   29  N   UNL     1     -40.144  51.659 -54.130  1.00  0.00    -0.371 N 
HETATM   30  C   UNL     1     -40.992  53.823 -55.031  1.00  0.00     0.089 A 
HETATM   31  C   UNL     1     -39.442  50.983 -53.044  1.00  0.00     0.081 C 
HETATM   32  H   UNL     1     -40.286  51.112 -54.978  1.00  0.00     0.161 HD
HETATM   33  C   UNL     1     -40.322  49.880 -52.466  1.00  0.00     0.032 C 
HETATM   34  C   UNL     1     -38.897  51.967 -51.994  1.00  0.00     0.061 C 
BRANCH  28  35
HETATM   35  C   UNL     1     -40.936  52.937 -50.783  1.00  0.00     0.409 C 
HETATM   36  F   UNL     1     -40.792  51.772 -50.109  1.00  0.00    -0.169 F 
HETATM   37  F   UNL     1     -41.128  53.908 -49.869  1.00  0.00    -0.169 F 
HETATM   38  F   UNL     1     -42.093  52.827 -51.488  1.00  0.00    -0.169 F 
ENDBRANCH  28  35
ENDBRANCH   1  24
TORSDOF 8
ENDMDL
MODEL 10
REMARK VINA RESULT:      -8.0      2.249      2.948
REMARK  8 active torsions:
REMARK  status: ('A' for Active; 'I' for Inactive)
REMARK    1  A    between atoms: C_7  and  C_8 
REMARK       I    between atoms: C_8  and  N_9 
REMARK    2  A    between atoms: N_9  and  N_10 
REMARK    3  A    between atoms: N_10  and  C_11 
REMARK    4  A    between atoms: C_11  and  N_12 
REMARK    5  A    between atoms: N_12  and  C_13 
REMARK    6  A    between atoms: N_15  and  C_16 
REMARK    7  A    between atoms: C_16  and  C_17 
REMARK    8  A    between atoms: C_29  and  C_30 
ROOT
HETATM    1  C   UNL     1     -42.125  59.438 -54.229  1.00  0.00     0.290 C 
HETATM    2  N   UNL     1     -43.144  59.896 -53.419  1.00  0.00    -0.262 N 
HETATM    3  O   UNL     1     -40.928  59.532 -53.973  1.00  0.00    -0.264 OA
HETATM    4  H   UNL     1     -44.103  59.668 -53.678  1.00  0.00     0.190 HD
ENDROOT
BRANCH   2   5
HETATM    5  N   UNL     1     -42.895  60.363 -52.130  1.00  0.00    -0.273 N 
HETATM    6  H   UNL     1     -42.327  61.213 -52.031  1.00  0.00     0.189 HD
BRANCH   5   7
HETATM    7  C   UNL     1     -43.656  59.964 -51.063  1.00  0.00     0.192 C 
HETATM    8  S   UNL     1     -44.541  61.002 -50.083  1.00  0.00    -0.039 SA
BRANCH   7   9
HETATM    9  N   UNL     1     -43.687  58.630 -50.774  1.00  0.00    -0.315 N 
HETATM   10  H   UNL     1     -44.325  58.359 -50.038  1.00  0.00     0.170 HD
BRANCH   9  11
HETATM   11  C   UNL     1     -42.886  57.636 -51.294  1.00  0.00     0.151 A 
HETATM   12  N   UNL     1     -43.315  56.673 -52.116  1.00  0.00    -0.154 NA
HETATM   13  N   UNL     1     -42.205  55.958 -52.399  1.00  0.00    -0.275 N 
HETATM   14  C   UNL     1     -41.089  56.428 -51.768  1.00  0.00     0.116 A 
HETATM   15  C   UNL     1     -41.502  57.517 -51.038  1.00  0.00     0.071 A 
BRANCH  13  16
HETATM   16  C   UNL     1     -42.294  54.771 -53.239  1.00  0.00     0.192 C 
BRANCH  16  17
HETATM   17  C   UNL     1     -41.314  53.714 -52.817  1.00  0.00     0.000 A 
HETATM   18  C   UNL     1     -40.560  53.028 -53.771  1.00  0.00     0.124 A 
HETATM   19  F   UNL     1     -40.706  53.324 -55.071  1.00  0.00    -0.205 F 
HETATM   20  C   UNL     1     -39.650  52.040 -53.403  1.00  0.00     0.043 A 
HETATM   21  C   UNL     1     -39.485  51.723 -52.057  1.00  0.00     0.003 A 
HETATM   22  C   UNL     1     -40.235  52.391 -51.089  1.00  0.00     0.001 A 
HETATM   23  C   UNL     1     -41.150  53.379 -51.465  1.00  0.00     0.012 A 
ENDBRANCH  16  17
ENDBRANCH  13  16
ENDBRANCH   9  11
ENDBRANCH   7   9
ENDBRANCH   5   7
ENDBRANCH   2   5
BRANCH   1  24
HETATM   24  C   UNL     1     -42.641  58.819 -55.461  1.00  0.00     0.150 A 
HETATM   25  N   UNL     1     -42.822  59.540 -56.592  1.00  0.00    -0.165 NA
HETATM   26  N   UNL     1     -43.240  58.627 -57.482  1.00  0.00    -0.240 N 
HETATM   27  C   UNL     1     -43.436  57.382 -56.959  1.00  0.00     0.123 A 
HETATM   28  C   UNL     1     -43.500  58.971 -58.863  1.00  0.00     0.221 C 
HETATM   29  N   UNL     1     -43.937  56.373 -57.701  1.00  0.00    -0.371 N 
HETATM   30  C   UNL     1     -43.019  57.460 -55.654  1.00  0.00     0.089 A 
HETATM   31  C   UNL     1     -44.454  56.562 -59.052  1.00  0.00     0.081 C 
HETATM   32  H   UNL     1     -44.078  55.449 -57.294  1.00  0.00     0.161 HD
HETATM   33  C   UNL     1     -43.633  55.742 -60.041  1.00  0.00     0.032 C 
HETATM   34  C   UNL     1     -44.591  58.047 -59.428  1.00  0.00     0.061 C 
BRANCH  28  35
HETATM   35  C   UNL     1     -42.207  58.961 -59.644  1.00  0.00     0.409 C 
HETATM   36  F   UNL     1     -42.399  58.619 -60.939  1.00  0.00    -0.169 F 
HETATM   37  F   UNL     1     -41.549  60.137 -59.633  1.00  0.00    -0.169 F 
HETATM   38  F   UNL     1     -41.359  58.032 -59.128  1.00  0.00    -0.169 F 
ENDBRANCH  28  35
ENDBRANCH   1  24
TORSDOF 8
ENDMDL
