MODEL 1
REMARK VINA RESULT:      -7.8      0.000      0.000
REMARK  11 active torsions:
REMARK  status: ('A' for Active; 'I' for Inactive)
REMARK    1  A    between atoms: C_2  and  N_3 
REMARK    2  A    between atoms: N_3  and  C_5 
REMARK    3  A    between atoms: N_3  and  C_34 
REMARK    4  A    between atoms: C_5  and  C_6 
REMARK    5  A    between atoms: C_6  and  C_7 
REMARK    6  A    between atoms: C_7  and  N_8 
REMARK       I    between atoms: N_8  and  C_9 
REMARK    7  A    between atoms: C_9  and  C_10 
REMARK    8  A    between atoms: C_10  and  O_11 
REMARK    9  A    between atoms: N_12  and  C_13 
REMARK   10  A    between atoms: C_14  and  O_15 
REMARK   11  A    between atoms: C_18  and  O_19 
ROOT
HETATM    1  C   UNL     1     -41.183  55.139 -53.656  1.00  0.00     0.256 C 
HETATM    2  N   UNL     1     -41.735  56.009 -52.593  1.00  0.00    -0.251 N 
HETATM    3  C   UNL     1     -41.335  55.846 -51.274  1.00  0.00     0.330 C 
HETATM    4  O   UNL     1     -41.546  56.652 -50.368  1.00  0.00    -0.246 OA
HETATM    5  N   UNL     1     -40.736  54.675 -50.931  1.00  0.00    -0.308 N 
HETATM    6  C   UNL     1     -40.497  53.612 -51.781  1.00  0.00     0.048 A 
HETATM    7  C   UNL     1     -40.742  53.772 -53.139  1.00  0.00     0.035 A 
HETATM    8  C   UNL     1     -40.009  52.411 -51.261  1.00  0.00     0.031 A 
HETATM    9  C   UNL     1     -39.770  51.333 -52.111  1.00  0.00     0.021 A 
HETATM   10  C   UNL     1     -39.995  51.476 -53.476  1.00  0.00     0.011 A 
HETATM   11 BR   UNL     1     -39.677  50.021 -54.639  1.00  0.00    -0.051 Br
HETATM   12  C   UNL     1     -40.456  52.688 -53.994  1.00  0.00     0.034 A 
HETATM   13  H   UNL     1     -40.490  54.609 -49.950  1.00  0.00     0.170 HD
ENDROOT
BRANCH   1  14
HETATM   14  C   UNL     1     -42.281  54.855 -54.797  1.00  0.00     0.279 C 
HETATM   15  N   UNL     1     -42.065  55.500 -56.017  1.00  0.00    -0.356 N 
HETATM   16  H   UNL     1     -41.100  55.755 -56.201  1.00  0.00     0.162 HD
HETATM   17  O   UNL     1     -43.330  54.243 -54.586  1.00  0.00    -0.268 OA
BRANCH  15  18
HETATM   18  C   UNL     1     -42.959  55.263 -57.129  1.00  0.00     0.124 C 
BRANCH  18  19
HETATM   19  C   UNL     1     -42.983  56.435 -58.110  1.00  0.00     0.047 C 
BRANCH  19  20
HETATM   20  C   UNL     1     -44.281  57.242 -58.109  1.00  0.00     0.236 C 
BRANCH  20  21
HETATM   21  N   UNL     1     -45.373  56.626 -58.975  1.00  0.00    -0.072 N 
HETATM   22  H   UNL     1     -45.668  55.760 -58.509  1.00  0.00     0.279 HD
BRANCH  21  23
HETATM   23  C   UNL     1     -44.853  56.178 -60.335  1.00  0.00     0.230 C 
HETATM   24  C   UNL     1     -45.023  54.676 -60.500  1.00  0.00     0.034 C 
ENDBRANCH  21  23
BRANCH  21  25
HETATM   25  C   UNL     1     -46.643  57.452 -59.094  1.00  0.00     0.230 C 
HETATM   26  C   UNL     1     -47.110  58.011 -57.763  1.00  0.00     0.034 C 
ENDBRANCH  21  25
ENDBRANCH  20  21
ENDBRANCH  19  20
ENDBRANCH  18  19
ENDBRANCH  15  18
ENDBRANCH   1  14
BRANCH   1  27
HETATM   27  O   UNL     1     -39.981  55.712 -54.133  1.00  0.00    -0.359 OA
HETATM   28  H   UNL     1     -39.945  55.456 -55.073  1.00  0.00     0.213 HD
ENDBRANCH   1  27
BRANCH   2  29
HETATM   29  C   UNL     1     -42.588  57.135 -52.913  1.00  0.00     0.076 A 
HETATM   30  C   UNL     1     -42.159  58.306 -53.564  1.00  0.00     0.098 A 
HETATM   31  C   UNL     1     -43.082  59.274 -53.999  1.00  0.00     0.075 A 
HETATM   32  C   UNL     1     -44.440  59.118 -53.738  1.00  0.00     0.070 A 
HETATM   33  C   UNL     1     -44.879  57.986 -53.062  1.00  0.00     0.039 A 
HETATM   34  C   UNL     1     -43.966  57.015 -52.647  1.00  0.00     0.035 A 
BRANCH  30  35
HETATM   35  O   UNL     1     -40.821  58.510 -53.790  1.00  0.00    -0.354 OA
HETATM   36  C   UNL     1     -40.175  59.098 -52.649  1.00  0.00     0.210 C 
ENDBRANCH  30  35
BRANCH  32  37
HETATM   37  O   UNL     1     -45.425  59.981 -54.129  1.00  0.00    -0.356 OA
HETATM   38  C   UNL     1     -45.367  60.402 -55.489  1.00  0.00     0.210 C 
ENDBRANCH  32  37
ENDBRANCH   2  29
TORSDOF 11
ENDMDL
MODEL 2
REMARK VINA RESULT:      -7.8      3.024      7.062
REMARK  11 active torsions:
REMARK  status: ('A' for Active; 'I' for Inactive)
REMARK    1  A    between atoms: C_2  and  N_3 
REMARK    2  A    between atoms: N_3  and  C_5 
REMARK    3  A    between atoms: N_3  and  C_34 
REMARK    4  A    between atoms: C_5  and  C_6 
REMARK    5  A    between atoms: C_6  and  C_7 
REMARK    6  A    between atoms: C_7  and  N_8 
REMARK       I    between atoms: N_8  and  C_9 
REMARK    7  A    between atoms: C_9  and  C_10 
REMARK    8  A    between atoms: C_10  and  O_11 
REMARK    9  A    between atoms: N_12  and  C_13 
REMARK   10  A    between atoms: C_14  and  O_15 
REMARK   11  A    between atoms: C_18  and  O_19 
ROOT
HETATM    1  C   UNL     1     -43.855  56.759 -54.143  1.00  0.00     0.256 C 
HETATM    2  N   UNL     1     -43.794  57.149 -52.717  1.00  0.00    -0.251 N 
HETATM    3  C   UNL     1     -44.577  58.192 -52.240  1.00  0.00     0.330 C 
HETATM    4  O   UNL     1     -44.777  58.437 -51.050  1.00  0.00    -0.246 OA
HETATM    5  N   UNL     1     -45.099  59.061 -53.146  1.00  0.00    -0.308 N 
HETATM    6  C   UNL     1     -44.909  59.011 -54.514  1.00  0.00     0.048 A 
HETATM    7  C   UNL     1     -44.260  57.911 -55.061  1.00  0.00     0.035 A 
HETATM    8  C   UNL     1     -45.381  60.055 -55.313  1.00  0.00     0.031 A 
HETATM    9  C   UNL     1     -45.190  60.013 -56.693  1.00  0.00     0.021 A 
HETATM   10  C   UNL     1     -44.554  58.914 -57.262  1.00  0.00     0.011 A 
HETATM   11 BR   UNL     1     -44.289  58.847 -59.132  1.00  0.00    -0.051 Br
HETATM   12  C   UNL     1     -44.111  57.860 -56.462  1.00  0.00     0.034 A 
HETATM   13  H   UNL     1     -45.639  59.813 -52.734  1.00  0.00     0.170 HD
ENDROOT
BRANCH   1  14
HETATM   14  C   UNL     1     -42.420  56.253 -54.665  1.00  0.00     0.279 C 
HETATM   15  N   UNL     1     -42.317  54.883 -54.918  1.00  0.00    -0.356 N 
HETATM   16  H   UNL     1     -43.196  54.418 -55.120  1.00  0.00     0.162 HD
HETATM   17  O   UNL     1     -41.421  56.976 -54.696  1.00  0.00    -0.268 OA
BRANCH  15  18
HETATM   18  C   UNL     1     -41.088  54.335 -55.449  1.00  0.00     0.124 C 
BRANCH  18  19
HETATM   19  C   UNL     1     -40.220  53.704 -54.361  1.00  0.00     0.047 C 
BRANCH  19  20
HETATM   20  C   UNL     1     -40.701  52.336 -53.874  1.00  0.00     0.236 C 
BRANCH  20  21
HETATM   21  N   UNL     1     -39.708  51.644 -52.949  1.00  0.00    -0.072 N 
HETATM   22  H   UNL     1     -38.779  52.013 -53.182  1.00  0.00     0.279 HD
BRANCH  21  23
HETATM   23  C   UNL     1     -39.609  50.148 -53.218  1.00  0.00     0.230 C 
HETATM   24  C   UNL     1     -39.914  49.849 -54.677  1.00  0.00     0.034 C 
ENDBRANCH  21  23
BRANCH  21  25
HETATM   25  C   UNL     1     -39.886  51.947 -51.471  1.00  0.00     0.230 C 
HETATM   26  C   UNL     1     -39.992  50.696 -50.620  1.00  0.00     0.034 C 
ENDBRANCH  21  25
ENDBRANCH  20  21
ENDBRANCH  19  20
ENDBRANCH  18  19
ENDBRANCH  15  18
ENDBRANCH   1  14
BRANCH   1  27
HETATM   27  O   UNL     1     -44.901  55.822 -54.315  1.00  0.00    -0.359 OA
HETATM   28  H   UNL     1     -45.671  56.232 -53.882  1.00  0.00     0.213 HD
ENDBRANCH   1  27
BRANCH   2  29
HETATM   29  C   UNL     1     -43.037  56.371 -51.758  1.00  0.00     0.076 A 
HETATM   30  C   UNL     1     -41.850  56.800 -51.137  1.00  0.00     0.098 A 
HETATM   31  C   UNL     1     -41.274  56.065 -50.086  1.00  0.00     0.075 A 
HETATM   32  C   UNL     1     -41.839  54.858 -49.680  1.00  0.00     0.070 A 
HETATM   33  C   UNL     1     -42.990  54.399 -50.308  1.00  0.00     0.039 A 
HETATM   34  C   UNL     1     -43.574  55.139 -51.338  1.00  0.00     0.035 A 
BRANCH  30  35
HETATM   35  O   UNL     1     -41.243  57.960 -51.551  1.00  0.00    -0.354 OA
HETATM   36  C   UNL     1     -41.135  58.912 -50.480  1.00  0.00     0.210 C 
ENDBRANCH  30  35
BRANCH  32  37
HETATM   37  O   UNL     1     -41.379  54.073 -48.661  1.00  0.00    -0.356 OA
HETATM   38  C   UNL     1     -39.965  54.065 -48.482  1.00  0.00     0.210 C 
ENDBRANCH  32  37
ENDBRANCH   2  29
TORSDOF 11
ENDMDL
MODEL 3
REMARK VINA RESULT:      -7.4      1.345      1.985
REMARK  11 active torsions:
REMARK  status: ('A' for Active; 'I' for Inactive)
REMARK    1  A    between atoms: C_2  and  N_3 
REMARK    2  A    between atoms: N_3  and  C_5 
REMARK    3  A    between atoms: N_3  and  C_34 
REMARK    4  A    between atoms: C_5  and  C_6 
REMARK    5  A    between atoms: C_6  and  C_7 
REMARK    6  A    between atoms: C_7  and  N_8 
REMARK       I    between atoms: N_8  and  C_9 
REMARK    7  A    between atoms: C_9  and  C_10 
REMARK    8  A    between atoms: C_10  and  O_11 
REMARK    9  A    between atoms: N_12  and  C_13 
REMARK   10  A    between atoms: C_14  and  O_15 
REMARK   11  A    between atoms: C_18  and  O_19 
ROOT
HETATM    1  C   UNL     1     -41.226  55.109 -53.463  1.00  0.00     0.256 C 
HETATM    2  N   UNL     1     -41.714  55.969 -52.362  1.00  0.00    -0.251 N 
HETATM    3  C   UNL     1     -41.223  55.807 -51.074  1.00  0.00     0.330 C 
HETATM    4  O   UNL     1     -41.380  56.608 -50.152  1.00  0.00    -0.246 OA
HETATM    5  N   UNL     1     -40.589  54.642 -50.777  1.00  0.00    -0.308 N 
HETATM    6  C   UNL     1     -40.398  53.583 -51.645  1.00  0.00     0.048 A 
HETATM    7  C   UNL     1     -40.736  53.745 -52.983  1.00  0.00     0.035 A 
HETATM    8  C   UNL     1     -39.862  52.386 -51.164  1.00  0.00     0.031 A 
HETATM    9  C   UNL     1     -39.670  51.314 -52.033  1.00  0.00     0.021 A 
HETATM   10  C   UNL     1     -39.990  51.459 -53.379  1.00  0.00     0.011 A 
HETATM   11 BR   UNL     1     -39.736  50.011 -54.566  1.00  0.00    -0.051 Br
HETATM   12  C   UNL     1     -40.498  52.667 -53.860  1.00  0.00     0.034 A 
HETATM   13  H   UNL     1     -40.276  54.575 -49.816  1.00  0.00     0.170 HD
ENDROOT
BRANCH   1  14
HETATM   14  C   UNL     1     -42.397  54.816 -54.528  1.00  0.00     0.279 C 
HETATM   15  N   UNL     1     -42.196  55.343 -55.806  1.00  0.00    -0.356 N 
HETATM   16  H   UNL     1     -41.226  55.510 -56.053  1.00  0.00     0.162 HD
HETATM   17  O   UNL     1     -43.474  54.303 -54.221  1.00  0.00    -0.268 OA
BRANCH  15  18
HETATM   18  C   UNL     1     -43.158  55.084 -56.855  1.00  0.00     0.124 C 
BRANCH  18  19
HETATM   19  C   UNL     1     -43.190  56.202 -57.897  1.00  0.00     0.047 C 
BRANCH  19  20
HETATM   20  C   UNL     1     -42.432  57.469 -57.498  1.00  0.00     0.236 C 
BRANCH  20  21
HETATM   21  N   UNL     1     -42.896  58.709 -58.251  1.00  0.00    -0.072 N 
HETATM   22  H   UNL     1     -42.238  58.848 -59.026  1.00  0.00     0.279 HD
BRANCH  21  23
HETATM   23  C   UNL     1     -42.780  59.975 -57.412  1.00  0.00     0.230 C 
HETATM   24  C   UNL     1     -41.606  60.818 -57.882  1.00  0.00     0.034 C 
ENDBRANCH  21  23
BRANCH  21  25
HETATM   25  C   UNL     1     -44.257  58.587 -58.916  1.00  0.00     0.230 C 
HETATM   26  C   UNL     1     -44.200  58.788 -60.418  1.00  0.00     0.034 C 
ENDBRANCH  21  25
ENDBRANCH  20  21
ENDBRANCH  19  20
ENDBRANCH  18  19
ENDBRANCH  15  18
ENDBRANCH   1  14
BRANCH   1  27
HETATM   27  O   UNL     1     -40.066  55.696 -54.020  1.00  0.00    -0.359 OA
HETATM   28  H   UNL     1     -39.995  56.562 -53.579  1.00  0.00     0.213 HD
ENDBRANCH   1  27
BRANCH   2  29
HETATM   29  C   UNL     1     -42.599  57.087 -52.619  1.00  0.00     0.076 A 
HETATM   30  C   UNL     1     -42.262  58.217 -53.387  1.00  0.00     0.098 A 
HETATM   31  C   UNL     1     -43.233  59.170 -53.739  1.00  0.00     0.075 A 
HETATM   32  C   UNL     1     -44.541  59.046 -53.279  1.00  0.00     0.070 A 
HETATM   33  C   UNL     1     -44.884  57.957 -52.488  1.00  0.00     0.039 A 
HETATM   34  C   UNL     1     -43.925  56.998 -52.154  1.00  0.00     0.035 A 
BRANCH  30  35
HETATM   35  O   UNL     1     -40.968  58.392 -53.812  1.00  0.00    -0.354 OA
HETATM   36  C   UNL     1     -40.158  59.010 -52.799  1.00  0.00     0.210 C 
ENDBRANCH  30  35
BRANCH  32  37
HETATM   37  O   UNL     1     -45.567  59.898 -53.574  1.00  0.00    -0.356 OA
HETATM   38  C   UNL     1     -46.222  60.481 -52.451  1.00  0.00     0.210 C 
ENDBRANCH  32  37
ENDBRANCH   2  29
TORSDOF 11
ENDMDL
MODEL 4
REMARK VINA RESULT:      -7.2      3.244      6.101
REMARK  11 active torsions:
REMARK  status: ('A' for Active; 'I' for Inactive)
REMARK    1  A    between atoms: C_2  and  N_3 
REMARK    2  A    between atoms: N_3  and  C_5 
REMARK    3  A    between atoms: N_3  and  C_34 
REMARK    4  A    between atoms: C_5  and  C_6 
REMARK    5  A    between atoms: C_6  and  C_7 
REMARK    6  A    between atoms: C_7  and  N_8 
REMARK       I    between atoms: N_8  and  C_9 
REMARK    7  A    between atoms: C_9  and  C_10 
REMARK    8  A    between atoms: C_10  and  O_11 
REMARK    9  A    between atoms: N_12  and  C_13 
REMARK   10  A    between atoms: C_14  and  O_15 
REMARK   11  A    between atoms: C_18  and  O_19 
ROOT
HETATM    1  C   UNL     1     -43.845  57.573 -52.292  1.00  0.00     0.256 C 
HETATM    2  N   UNL     1     -42.442  57.215 -51.987  1.00  0.00    -0.251 N 
HETATM    3  C   UNL     1     -41.732  57.915 -51.021  1.00  0.00     0.330 C 
HETATM    4  O   UNL     1     -40.662  57.554 -50.531  1.00  0.00    -0.246 OA
HETATM    5  N   UNL     1     -42.206  59.132 -50.641  1.00  0.00    -0.308 N 
HETATM    6  C   UNL     1     -43.336  59.750 -51.143  1.00  0.00     0.048 A 
HETATM    7  C   UNL     1     -44.164  59.039 -52.002  1.00  0.00     0.035 A 
HETATM    8  C   UNL     1     -43.623  61.066 -50.771  1.00  0.00     0.031 A 
HETATM    9  C   UNL     1     -44.758  61.698 -51.276  1.00  0.00     0.021 A 
HETATM   10  C   UNL     1     -45.608  60.998 -52.127  1.00  0.00     0.011 A 
HETATM   11 BR   UNL     1     -47.148  61.845 -52.819  1.00  0.00    -0.051 Br
HETATM   12  C   UNL     1     -45.331  59.674 -52.472  1.00  0.00     0.034 A 
HETATM   13  H   UNL     1     -41.631  59.602 -49.952  1.00  0.00     0.170 HD
ENDROOT
BRANCH   1  14
HETATM   14  C   UNL     1     -44.173  57.344 -53.851  1.00  0.00     0.279 C 
HETATM   15  N   UNL     1     -43.553  58.229 -54.736  1.00  0.00    -0.356 N 
HETATM   16  H   UNL     1     -42.702  58.656 -54.387  1.00  0.00     0.162 HD
HETATM   17  O   UNL     1     -45.031  56.552 -54.249  1.00  0.00    -0.268 OA
BRANCH  15  18
HETATM   18  C   UNL     1     -43.733  58.070 -56.162  1.00  0.00     0.124 C 
BRANCH  18  19
HETATM   19  C   UNL     1     -42.660  57.174 -56.782  1.00  0.00     0.047 C 
BRANCH  19  20
HETATM   20  C   UNL     1     -43.186  56.158 -57.797  1.00  0.00     0.236 C 
BRANCH  20  21
HETATM   21  N   UNL     1     -43.422  56.755 -59.178  1.00  0.00    -0.072 N 
HETATM   22  H   UNL     1     -43.783  57.705 -59.033  1.00  0.00     0.279 HD
BRANCH  21  23
HETATM   23  C   UNL     1     -44.523  56.033 -59.943  1.00  0.00     0.230 C 
HETATM   24  C   UNL     1     -44.426  54.532 -59.723  1.00  0.00     0.034 C 
ENDBRANCH  21  23
BRANCH  21  25
HETATM   25  C   UNL     1     -42.170  56.942 -60.021  1.00  0.00     0.230 C 
HETATM   26  C   UNL     1     -41.976  58.375 -60.478  1.00  0.00     0.034 C 
ENDBRANCH  21  25
ENDBRANCH  20  21
ENDBRANCH  19  20
ENDBRANCH  18  19
ENDBRANCH  15  18
ENDBRANCH   1  14
BRANCH   1  27
HETATM   27  O   UNL     1     -44.697  56.872 -51.408  1.00  0.00    -0.359 OA
HETATM   28  H   UNL     1     -44.169  56.108 -51.115  1.00  0.00     0.213 HD
ENDBRANCH   1  27
BRANCH   2  29
HETATM   29  C   UNL     1     -41.822  56.045 -52.575  1.00  0.00     0.076 A 
HETATM   30  C   UNL     1     -42.079  54.719 -52.182  1.00  0.00     0.098 A 
HETATM   31  C   UNL     1     -41.575  53.634 -52.921  1.00  0.00     0.075 A 
HETATM   32  C   UNL     1     -40.756  53.854 -54.026  1.00  0.00     0.070 A 
HETATM   33  C   UNL     1     -40.461  55.157 -54.406  1.00  0.00     0.039 A 
HETATM   34  C   UNL     1     -40.977  56.236 -53.686  1.00  0.00     0.035 A 
BRANCH  30  35
HETATM   35  O   UNL     1     -42.840  54.473 -51.068  1.00  0.00    -0.354 OA
HETATM   36  C   UNL     1     -42.030  54.364 -49.886  1.00  0.00     0.210 C 
ENDBRANCH  30  35
BRANCH  32  37
HETATM   37  O   UNL     1     -40.229  52.880 -54.826  1.00  0.00    -0.356 OA
HETATM   38  C   UNL     1     -40.194  51.573 -54.260  1.00  0.00     0.210 C 
ENDBRANCH  32  37
ENDBRANCH   2  29
TORSDOF 11
ENDMDL
MODEL 5
REMARK VINA RESULT:      -7.1      2.896      5.832
REMARK  11 active torsions:
REMARK  status: ('A' for Active; 'I' for Inactive)
REMARK    1  A    between atoms: C_2  and  N_3 
REMARK    2  A    between atoms: N_3  and  C_5 
REMARK    3  A    between atoms: N_3  and  C_34 
REMARK    4  A    between atoms: C_5  and  C_6 
REMARK    5  A    between atoms: C_6  and  C_7 
REMARK    6  A    between atoms: C_7  and  N_8 
REMARK       I    between atoms: N_8  and  C_9 
REMARK    7  A    between atoms: C_9  and  C_10 
REMARK    8  A    between atoms: C_10  and  O_11 
REMARK    9  A    between atoms: N_12  and  C_13 
REMARK   10  A    between atoms: C_14  and  O_15 
REMARK   11  A    between atoms: C_18  and  O_19 
ROOT
HETATM    1  C   UNL     1     -43.951  56.751 -53.418  1.00  0.00     0.256 C 
HETATM    2  N   UNL     1     -43.364  55.800 -52.450  1.00  0.00    -0.251 N 
HETATM    3  C   UNL     1     -43.894  55.679 -51.172  1.00  0.00     0.330 C 
HETATM    4  O   UNL     1     -43.639  54.768 -50.384  1.00  0.00    -0.246 OA
HETATM    5  N   UNL     1     -44.694  56.681 -50.719  1.00  0.00    -0.308 N 
HETATM    6  C   UNL     1     -45.021  57.830 -51.415  1.00  0.00     0.048 A 
HETATM    7  C   UNL     1     -44.640  57.938 -52.747  1.00  0.00     0.035 A 
HETATM    8  C   UNL     1     -45.731  58.846 -50.771  1.00  0.00     0.031 A 
HETATM    9  C   UNL     1     -46.060  60.009 -51.465  1.00  0.00     0.021 A 
HETATM   10  C   UNL     1     -45.700  60.131 -52.803  1.00  0.00     0.011 A 
HETATM   11 BR   UNL     1     -46.140  61.704 -53.754  1.00  0.00    -0.051 Br
HETATM   12  C   UNL     1     -45.016  59.101 -53.450  1.00  0.00     0.034 A 
HETATM   13  H   UNL     1     -45.029  56.546 -49.773  1.00  0.00     0.170 HD
ENDROOT
BRANCH   1  14
HETATM   14  C   UNL     1     -42.818  57.374 -54.376  1.00  0.00     0.279 C 
HETATM   15  N   UNL     1     -42.999  57.160 -55.744  1.00  0.00    -0.356 N 
HETATM   16  H   UNL     1     -43.959  56.992 -56.027  1.00  0.00     0.162 HD
HETATM   17  O   UNL     1     -41.773  57.870 -53.949  1.00  0.00    -0.268 OA
BRANCH  15  18
HETATM   18  C   UNL     1     -42.071  57.732 -56.695  1.00  0.00     0.124 C 
BRANCH  18  19
HETATM   19  C   UNL     1     -42.651  57.784 -58.108  1.00  0.00     0.047 C 
BRANCH  19  20
HETATM   20  C   UNL     1     -43.307  56.485 -58.577  1.00  0.00     0.236 C 
BRANCH  20  21
HETATM   21  N   UNL     1     -44.827  56.564 -58.633  1.00  0.00    -0.072 N 
HETATM   22  H   UNL     1     -45.182  56.007 -57.848  1.00  0.00     0.279 HD
BRANCH  21  23
HETATM   23  C   UNL     1     -45.399  55.894 -59.875  1.00  0.00     0.230 C 
HETATM   24  C   UNL     1     -44.658  54.599 -60.168  1.00  0.00     0.034 C 
ENDBRANCH  21  23
BRANCH  21  25
HETATM   25  C   UNL     1     -45.407  57.952 -58.416  1.00  0.00     0.230 C 
HETATM   26  C   UNL     1     -46.567  58.259 -59.344  1.00  0.00     0.034 C 
ENDBRANCH  21  25
ENDBRANCH  20  21
ENDBRANCH  19  20
ENDBRANCH  18  19
ENDBRANCH  15  18
ENDBRANCH   1  14
BRANCH   1  27
HETATM   27  O   UNL     1     -45.006  56.108 -54.106  1.00  0.00    -0.359 OA
HETATM   28  H   UNL     1     -45.718  56.031 -53.446  1.00  0.00     0.213 HD
ENDBRANCH   1  27
BRANCH   2  29
HETATM   29  C   UNL     1     -42.323  54.872 -52.846  1.00  0.00     0.076 A 
HETATM   30  C   UNL     1     -41.097  54.709 -52.175  1.00  0.00     0.098 A 
HETATM   31  C   UNL     1     -40.219  53.665 -52.514  1.00  0.00     0.075 A 
HETATM   32  C   UNL     1     -40.522  52.804 -53.566  1.00  0.00     0.070 A 
HETATM   33  C   UNL     1     -41.711  52.973 -54.264  1.00  0.00     0.039 A 
HETATM   34  C   UNL     1     -42.593  53.998 -53.916  1.00  0.00     0.035 A 
BRANCH  30  35
HETATM   35  O   UNL     1     -40.750  55.574 -51.168  1.00  0.00    -0.354 OA
HETATM   36  C   UNL     1     -40.256  54.873 -50.015  1.00  0.00     0.210 C 
ENDBRANCH  30  35
BRANCH  32  37
HETATM   37  O   UNL     1     -39.756  51.747 -53.968  1.00  0.00    -0.356 OA
HETATM   38  C   UNL     1     -40.471  50.557 -54.287  1.00  0.00     0.210 C 
ENDBRANCH  32  37
ENDBRANCH   2  29
TORSDOF 11
ENDMDL
MODEL 6
REMARK VINA RESULT:      -7.1      1.298      2.046
REMARK  11 active torsions:
REMARK  status: ('A' for Active; 'I' for Inactive)
REMARK    1  A    between atoms: C_2  and  N_3 
REMARK    2  A    between atoms: N_3  and  C_5 
REMARK    3  A    between atoms: N_3  and  C_34 
REMARK    4  A    between atoms: C_5  and  C_6 
REMARK    5  A    between atoms: C_6  and  C_7 
REMARK    6  A    between atoms: C_7  and  N_8 
REMARK       I    between atoms: N_8  and  C_9 
REMARK    7  A    between atoms: C_9  and  C_10 
REMARK    8  A    between atoms: C_10  and  O_11 
REMARK    9  A    between atoms: N_12  and  C_13 
REMARK   10  A    between atoms: C_14  and  O_15 
REMARK   11  A    between atoms: C_18  and  O_19 
ROOT
HETATM    1  C   UNL     1     -41.193  55.388 -53.993  1.00  0.00     0.256 C 
HETATM    2  N   UNL     1     -41.634  56.422 -53.030  1.00  0.00    -0.251 N 
HETATM    3  C   UNL     1     -41.169  56.408 -51.722  1.00  0.00     0.330 C 
HETATM    4  O   UNL     1     -41.282  57.338 -50.923  1.00  0.00    -0.246 OA
HETATM    5  N   UNL     1     -40.619  55.256 -51.255  1.00  0.00    -0.308 N 
HETATM    6  C   UNL     1     -40.490  54.077 -51.966  1.00  0.00     0.048 A 
HETATM    7  C   UNL     1     -40.802  54.074 -53.319  1.00  0.00     0.035 A 
HETATM    8  C   UNL     1     -40.042  52.926 -51.314  1.00  0.00     0.031 A 
HETATM    9  C   UNL     1     -39.914  51.733 -52.023  1.00  0.00     0.021 A 
HETATM   10  C   UNL     1     -40.208  51.711 -53.382  1.00  0.00     0.011 A 
HETATM   11 BR   UNL     1     -40.040  50.099 -54.353  1.00  0.00    -0.051 Br
HETATM   12  C   UNL     1     -40.628  52.871 -54.035  1.00  0.00     0.034 A 
HETATM   13  H   UNL     1     -40.322  55.303 -50.287  1.00  0.00     0.170 HD
ENDROOT
BRANCH   1  14
HETATM   14  C   UNL     1     -42.368  55.028 -55.031  1.00  0.00     0.279 C 
HETATM   15  N   UNL     1     -42.155  55.434 -56.350  1.00  0.00    -0.356 N 
HETATM   16  H   UNL     1     -41.181  55.557 -56.607  1.00  0.00     0.162 HD
HETATM   17  O   UNL     1     -43.458  54.568 -54.682  1.00  0.00    -0.268 OA
BRANCH  15  18
HETATM   18  C   UNL     1     -43.122  55.105 -57.374  1.00  0.00     0.124 C 
BRANCH  18  19
HETATM   19  C   UNL     1     -42.954  55.968 -58.624  1.00  0.00     0.047 C 
BRANCH  19  20
HETATM   20  C   UNL     1     -43.241  57.456 -58.417  1.00  0.00     0.236 C 
BRANCH  20  21
HETATM   21  N   UNL     1     -44.247  58.019 -59.412  1.00  0.00    -0.072 N 
HETATM   22  H   UNL     1     -44.946  58.536 -58.867  1.00  0.00     0.279 HD
BRANCH  21  23
HETATM   23  C   UNL     1     -45.038  56.926 -60.120  1.00  0.00     0.230 C 
HETATM   24  C   UNL     1     -46.471  56.895 -59.613  1.00  0.00     0.034 C 
ENDBRANCH  21  23
BRANCH  21  25
HETATM   25  C   UNL     1     -43.685  59.039 -60.388  1.00  0.00     0.230 C 
HETATM   26  C   UNL     1     -42.178  58.947 -60.535  1.00  0.00     0.034 C 
ENDBRANCH  21  25
ENDBRANCH  20  21
ENDBRANCH  19  20
ENDBRANCH  18  19
ENDBRANCH  15  18
ENDBRANCH   1  14
BRANCH   1  27
HETATM   27  O   UNL     1     -39.989  55.814 -54.600  1.00  0.00    -0.359 OA
HETATM   28  H   UNL     1     -39.556  54.991 -54.888  1.00  0.00     0.213 HD
ENDBRANCH   1  27
BRANCH   2  29
HETATM   29  C   UNL     1     -42.438  57.550 -53.456  1.00  0.00     0.076 A 
HETATM   30  C   UNL     1     -43.769  57.778 -53.064  1.00  0.00     0.098 A 
HETATM   31  C   UNL     1     -44.419  58.986 -53.374  1.00  0.00     0.075 A 
HETATM   32  C   UNL     1     -43.773  59.958 -54.133  1.00  0.00     0.070 A 
HETATM   33  C   UNL     1     -42.471  59.734 -54.562  1.00  0.00     0.039 A 
HETATM   34  C   UNL     1     -41.817  58.544 -54.237  1.00  0.00     0.035 A 
BRANCH  30  35
HETATM   35  O   UNL     1     -44.448  56.816 -52.359  1.00  0.00    -0.354 OA
HETATM   36  C   UNL     1     -44.840  57.290 -51.061  1.00  0.00     0.210 C 
ENDBRANCH  30  35
BRANCH  32  37
HETATM   37  O   UNL     1     -44.298  61.172 -54.476  1.00  0.00    -0.356 OA
HETATM   38  C   UNL     1     -45.697  61.320 -54.257  1.00  0.00     0.210 C 
ENDBRANCH  32  37
ENDBRANCH   2  29
TORSDOF 11
ENDMDL
MODEL 7
REMARK VINA RESULT:      -6.9      2.778      5.911
REMARK  11 active torsions:
REMARK  status: ('A' for Active; 'I' for Inactive)
REMARK    1  A    between atoms: C_2  and  N_3 
REMARK    2  A    between atoms: N_3  and  C_5 
REMARK    3  A    between atoms: N_3  and  C_34 
REMARK    4  A    between atoms: C_5  and  C_6 
REMARK    5  A    between atoms: C_6  and  C_7 
REMARK    6  A    between atoms: C_7  and  N_8 
REMARK       I    between atoms: N_8  and  C_9 
REMARK    7  A    between atoms: C_9  and  C_10 
REMARK    8  A    between atoms: C_10  and  O_11 
REMARK    9  A    between atoms: N_12  and  C_13 
REMARK   10  A    between atoms: C_14  and  O_15 
REMARK   11  A    between atoms: C_18  and  O_19 
ROOT
HETATM    1  C   UNL     1     -43.363  55.769 -54.169  1.00  0.00     0.256 C 
HETATM    2  N   UNL     1     -43.253  56.575 -55.405  1.00  0.00    -0.251 N 
HETATM    3  C   UNL     1     -42.529  56.101 -56.491  1.00  0.00     0.330 C 
HETATM    4  O   UNL     1     -42.570  56.572 -57.628  1.00  0.00    -0.246 OA
HETATM    5  N   UNL     1     -41.644  55.091 -56.274  1.00  0.00    -0.308 N 
HETATM    6  C   UNL     1     -41.385  54.495 -55.054  1.00  0.00     0.048 A 
HETATM    7  C   UNL     1     -42.180  54.826 -53.964  1.00  0.00     0.035 A 
HETATM    8  C   UNL     1     -40.342  53.571 -54.948  1.00  0.00     0.031 A 
HETATM    9  C   UNL     1     -40.072  52.969 -53.720  1.00  0.00     0.021 A 
HETATM   10  C   UNL     1     -40.864  53.276 -52.619  1.00  0.00     0.011 A 
HETATM   11 BR   UNL     1     -40.506  52.467 -50.949  1.00  0.00    -0.051 Br
HETATM   12  C   UNL     1     -41.923  54.178 -52.738  1.00  0.00     0.034 A 
HETATM   13  H   UNL     1     -41.131  54.807 -57.100  1.00  0.00     0.170 HD
ENDROOT
BRANCH   1  14
HETATM   14  C   UNL     1     -43.416  56.713 -52.868  1.00  0.00     0.279 C 
HETATM   15  N   UNL     1     -44.689  56.956 -52.348  1.00  0.00    -0.356 N 
HETATM   16  H   UNL     1     -45.384  56.251 -52.573  1.00  0.00     0.162 HD
HETATM   17  O   UNL     1     -42.433  57.320 -52.435  1.00  0.00    -0.268 OA
BRANCH  15  18
HETATM   18  C   UNL     1     -44.842  57.741 -51.143  1.00  0.00     0.124 C 
BRANCH  18  19
HETATM   19  C   UNL     1     -45.300  59.169 -51.439  1.00  0.00     0.047 C 
BRANCH  19  20
HETATM   20  C   UNL     1     -45.563  60.025 -50.200  1.00  0.00     0.236 C 
BRANCH  20  21
HETATM   21  N   UNL     1     -44.287  60.503 -49.518  1.00  0.00    -0.072 N 
HETATM   22  H   UNL     1     -43.863  59.681 -49.073  1.00  0.00     0.279 HD
BRANCH  21  23
HETATM   23  C   UNL     1     -44.567  61.463 -48.369  1.00  0.00     0.230 C 
HETATM   24  C   UNL     1     -44.449  62.904 -48.841  1.00  0.00     0.034 C 
ENDBRANCH  21  23
BRANCH  21  25
HETATM   25  C   UNL     1     -43.215  61.033 -50.456  1.00  0.00     0.230 C 
HETATM   26  C   UNL     1     -41.896  60.297 -50.320  1.00  0.00     0.034 C 
ENDBRANCH  21  25
ENDBRANCH  20  21
ENDBRANCH  19  20
ENDBRANCH  18  19
ENDBRANCH  15  18
ENDBRANCH   1  14
BRANCH   1  27
HETATM   27  O   UNL     1     -44.464  54.890 -54.296  1.00  0.00    -0.359 OA
HETATM   28  H   UNL     1     -44.484  54.401 -53.454  1.00  0.00     0.213 HD
ENDBRANCH   1  27
BRANCH   2  29
HETATM   29  C   UNL     1     -44.006  57.801 -55.572  1.00  0.00     0.076 A 
HETATM   30  C   UNL     1     -43.463  59.096 -55.475  1.00  0.00     0.098 A 
HETATM   31  C   UNL     1     -44.219  60.227 -55.828  1.00  0.00     0.075 A 
HETATM   32  C   UNL     1     -45.547  60.091 -56.222  1.00  0.00     0.070 A 
HETATM   33  C   UNL     1     -46.113  58.824 -56.286  1.00  0.00     0.039 A 
HETATM   34  C   UNL     1     -45.357  57.697 -55.956  1.00  0.00     0.035 A 
BRANCH  30  35
HETATM   35  O   UNL     1     -42.172  59.263 -55.041  1.00  0.00    -0.354 OA
HETATM   36  C   UNL     1     -42.071  60.327 -54.081  1.00  0.00     0.210 C 
ENDBRANCH  30  35
BRANCH  32  37
HETATM   37  O   UNL     1     -46.368  61.115 -56.604  1.00  0.00    -0.356 OA
HETATM   38  C   UNL     1     -47.309  60.798 -57.626  1.00  0.00     0.210 C 
ENDBRANCH  32  37
ENDBRANCH   2  29
TORSDOF 11
ENDMDL
MODEL 8
REMARK VINA RESULT:      -6.9      2.690      3.899
REMARK  11 active torsions:
REMARK  status: ('A' for Active; 'I' for Inactive)
REMARK    1  A    between atoms: C_2  and  N_3 
REMARK    2  A    between atoms: N_3  and  C_5 
REMARK    3  A    between atoms: N_3  and  C_34 
REMARK    4  A    between atoms: C_5  and  C_6 
REMARK    5  A    between atoms: C_6  and  C_7 
REMARK    6  A    between atoms: C_7  and  N_8 
REMARK       I    between atoms: N_8  and  C_9 
REMARK    7  A    between atoms: C_9  and  C_10 
REMARK    8  A    between atoms: C_10  and  O_11 
REMARK    9  A    between atoms: N_12  and  C_13 
REMARK   10  A    between atoms: C_14  and  O_15 
REMARK   11  A    between atoms: C_18  and  O_19 
ROOT
HETATM    1  C   UNL     1     -42.188  58.051 -52.293  1.00  0.00     0.256 C 
HETATM    2  N   UNL     1     -43.475  58.563 -51.774  1.00  0.00    -0.251 N 
HETATM    3  C   UNL     1     -44.406  57.694 -51.220  1.00  0.00     0.330 C 
HETATM    4  O   UNL     1     -45.385  58.036 -50.556  1.00  0.00    -0.246 OA
HETATM    5  N   UNL     1     -44.279  56.368 -51.493  1.00  0.00    -0.308 N 
HETATM    6  C   UNL     1     -43.306  55.799 -52.294  1.00  0.00     0.048 A 
HETATM    7  C   UNL     1     -42.266  56.597 -52.755  1.00  0.00     0.035 A 
HETATM    8  C   UNL     1     -43.383  54.441 -52.611  1.00  0.00     0.031 A 
HETATM    9  C   UNL     1     -42.409  53.861 -53.420  1.00  0.00     0.021 A 
HETATM   10  C   UNL     1     -41.352  54.639 -53.882  1.00  0.00     0.011 A 
HETATM   11 BR   UNL     1     -40.025  53.865 -54.981  1.00  0.00    -0.051 Br
HETATM   12  C   UNL     1     -41.264  55.989 -53.538  1.00  0.00     0.034 A 
HETATM   13  H   UNL     1     -45.001  55.790 -51.081  1.00  0.00     0.170 HD
ENDROOT
BRANCH   1  14
HETATM   14  C   UNL     1     -41.701  58.901 -53.569  1.00  0.00     0.279 C 
HETATM   15  N   UNL     1     -42.497  58.786 -54.710  1.00  0.00    -0.356 N 
HETATM   16  H   UNL     1     -43.459  58.516 -54.536  1.00  0.00     0.162 HD
HETATM   17  O   UNL     1     -40.621  59.494 -53.611  1.00  0.00    -0.268 OA
BRANCH  15  18
HETATM   18  C   UNL     1     -42.181  59.558 -55.893  1.00  0.00     0.124 C 
BRANCH  18  19
HETATM   19  C   UNL     1     -42.925  59.051 -57.128  1.00  0.00     0.047 C 
BRANCH  19  20
HETATM   20  C   UNL     1     -42.973  57.529 -57.264  1.00  0.00     0.236 C 
BRANCH  20  21
HETATM   21  N   UNL     1     -44.330  57.008 -57.721  1.00  0.00    -0.072 N 
HETATM   22  H   UNL     1     -44.592  56.255 -57.074  1.00  0.00     0.279 HD
BRANCH  21  23
HETATM   23  C   UNL     1     -44.266  56.340 -59.088  1.00  0.00     0.230 C 
HETATM   24  C   UNL     1     -42.824  56.032 -59.461  1.00  0.00     0.034 C 
ENDBRANCH  21  23
BRANCH  21  25
HETATM   25  C   UNL     1     -45.468  58.011 -57.629  1.00  0.00     0.230 C 
HETATM   26  C   UNL     1     -46.541  57.784 -58.677  1.00  0.00     0.034 C 
ENDBRANCH  21  25
ENDBRANCH  20  21
ENDBRANCH  19  20
ENDBRANCH  18  19
ENDBRANCH  15  18
ENDBRANCH   1  14
BRANCH   1  27
HETATM   27  O   UNL     1     -41.254  58.006 -51.231  1.00  0.00    -0.359 OA
HETATM   28  H   UNL     1     -41.796  57.857 -50.435  1.00  0.00     0.213 HD
ENDBRANCH   1  27
BRANCH   2  29
HETATM   29  C   UNL     1     -43.741  59.985 -51.695  1.00  0.00     0.076 A 
HETATM   30  C   UNL     1     -44.619  60.685 -52.544  1.00  0.00     0.098 A 
HETATM   31  C   UNL     1     -44.959  62.025 -52.289  1.00  0.00     0.075 A 
HETATM   32  C   UNL     1     -44.381  62.707 -51.221  1.00  0.00     0.070 A 
HETATM   33  C   UNL     1     -43.483  62.043 -50.395  1.00  0.00     0.039 A 
HETATM   34  C   UNL     1     -43.159  60.706 -50.634  1.00  0.00     0.035 A 
BRANCH  30  35
HETATM   35  O   UNL     1     -45.163  60.053 -53.634  1.00  0.00    -0.354 OA
HETATM   36  C   UNL     1     -45.490  60.984 -54.677  1.00  0.00     0.210 C 
ENDBRANCH  30  35
BRANCH  32  37
HETATM   37  O   UNL     1     -44.651  63.999 -50.868  1.00  0.00    -0.356 OA
HETATM   38  C   UNL     1     -46.018  64.285 -50.586  1.00  0.00     0.210 C 
ENDBRANCH  32  37
ENDBRANCH   2  29
TORSDOF 11
ENDMDL
MODEL 9
REMARK VINA RESULT:      -6.9      2.555      5.776
REMARK  11 active torsions:
REMARK  status: ('A' for Active; 'I' for Inactive)
REMARK    1  A    between atoms: C_2  and  N_3 
REMARK    2  A    between atoms: N_3  and  C_5 
REMARK    3  A    between atoms: N_3  and  C_34 
REMARK    4  A    between atoms: C_5  and  C_6 
REMARK    5  A    between atoms: C_6  and  C_7 
REMARK    6  A    between atoms: C_7  and  N_8 
REMARK       I    between atoms: N_8  and  C_9 
REMARK    7  A    between atoms: C_9  and  C_10 
REMARK    8  A    between atoms: C_10  and  O_11 
REMARK    9  A    between atoms: N_12  and  C_13 
REMARK   10  A    between atoms: C_14  and  O_15 
REMARK   11  A    between atoms: C_18  and  O_19 
ROOT
HETATM    1  C   UNL     1     -42.750  56.254 -53.643  1.00  0.00     0.256 C 
HETATM    2  N   UNL     1     -42.680  57.182 -54.794  1.00  0.00    -0.251 N 
HETATM    3  C   UNL     1     -42.228  56.736 -56.029  1.00  0.00     0.330 C 
HETATM    4  O   UNL     1     -42.353  57.349 -57.090  1.00  0.00    -0.246 OA
HETATM    5  N   UNL     1     -41.523  55.574 -56.067  1.00  0.00    -0.308 N 
HETATM    6  C   UNL     1     -41.196  54.793 -54.974  1.00  0.00     0.048 A 
HETATM    7  C   UNL     1     -41.743  55.109 -53.737  1.00  0.00     0.035 A 
HETATM    8  C   UNL     1     -40.338  53.703 -55.139  1.00  0.00     0.031 A 
HETATM    9  C   UNL     1     -40.002  52.913 -54.041  1.00  0.00     0.021 A 
HETATM   10  C   UNL     1     -40.549  53.205 -52.796  1.00  0.00     0.011 A 
HETATM   11 BR   UNL     1     -40.099  52.142 -51.300  1.00  0.00    -0.051 Br
HETATM   12  C   UNL     1     -41.429  54.277 -52.643  1.00  0.00     0.034 A 
HETATM   13  H   UNL     1     -41.201  55.316 -56.992  1.00  0.00     0.170 HD
ENDROOT
BRANCH   1  14
HETATM   14  C   UNL     1     -42.430  57.021 -52.265  1.00  0.00     0.279 C 
HETATM   15  N   UNL     1     -41.119  57.480 -52.119  1.00  0.00    -0.356 N 
HETATM   16  H   UNL     1     -40.621  57.635 -52.989  1.00  0.00     0.162 HD
HETATM   17  O   UNL     1     -43.224  57.073 -51.323  1.00  0.00    -0.268 OA
BRANCH  15  18
HETATM   18  C   UNL     1     -40.744  58.236 -50.944  1.00  0.00     0.124 C 
BRANCH  18  19
HETATM   19  C   UNL     1     -41.076  59.721 -51.083  1.00  0.00     0.047 C 
BRANCH  19  20
HETATM   20  C   UNL     1     -42.046  60.260 -50.030  1.00  0.00     0.236 C 
BRANCH  20  21
HETATM   21  N   UNL     1     -43.215  61.032 -50.629  1.00  0.00    -0.072 N 
HETATM   22  H   UNL     1     -43.272  60.764 -51.618  1.00  0.00     0.279 HD
BRANCH  21  23
HETATM   23  C   UNL     1     -42.970  62.535 -50.647  1.00  0.00     0.230 C 
HETATM   24  C   UNL     1     -44.276  63.289 -50.450  1.00  0.00     0.034 C 
ENDBRANCH  21  23
BRANCH  21  25
HETATM   25  C   UNL     1     -44.578  60.683 -50.054  1.00  0.00     0.230 C 
HETATM   26  C   UNL     1     -45.370  59.744 -50.943  1.00  0.00     0.034 C 
ENDBRANCH  21  25
ENDBRANCH  20  21
ENDBRANCH  19  20
ENDBRANCH  18  19
ENDBRANCH  15  18
ENDBRANCH   1  14
BRANCH   1  27
HETATM   27  O   UNL     1     -44.000  55.593 -53.666  1.00  0.00    -0.359 OA
HETATM   28  H   UNL     1     -44.156  55.399 -54.607  1.00  0.00     0.213 HD
ENDBRANCH   1  27
BRANCH   2  29
HETATM   29  C   UNL     1     -43.211  58.527 -54.707  1.00  0.00     0.076 A 
HETATM   30  C   UNL     1     -44.577  58.855 -54.775  1.00  0.00     0.098 A 
HETATM   31  C   UNL     1     -45.023  60.160 -54.501  1.00  0.00     0.075 A 
HETATM   32  C   UNL     1     -44.109  61.172 -54.218  1.00  0.00     0.070 A 
HETATM   33  C   UNL     1     -42.752  60.874 -54.185  1.00  0.00     0.039 A 
HETATM   34  C   UNL     1     -42.309  59.574 -54.436  1.00  0.00     0.035 A 
BRANCH  30  35
HETATM   35  O   UNL     1     -45.496  57.890 -55.101  1.00  0.00    -0.354 OA
HETATM   36  C   UNL     1     -45.993  58.064 -56.438  1.00  0.00     0.210 C 
ENDBRANCH  30  35
BRANCH  32  37
HETATM   37  O   UNL     1     -44.429  62.466 -53.919  1.00  0.00    -0.356 OA
HETATM   38  C   UNL     1     -43.424  63.431 -54.215  1.00  0.00     0.210 C 
ENDBRANCH  32  37
ENDBRANCH   2  29
TORSDOF 11
ENDMDL
MODEL 10
REMARK VINA RESULT:      -6.8      2.552      6.942
REMARK  11 active torsions:
REMARK  status: ('A' for Active; 'I' for Inactive)
REMARK    1  A    between atoms: C_2  and  N_3 
REMARK    2  A    between atoms: N_3  and  C_5 
REMARK    3  A    between atoms: N_3  and  C_34 
REMARK    4  A    between atoms: C_5  and  C_6 
REMARK    5  A    between atoms: C_6  and  C_7 
REMARK    6  A    between atoms: C_7  and  N_8 
REMARK       I    between atoms: N_8  and  C_9 
REMARK    7  A    between atoms: C_9  and  C_10 
REMARK    8  A    between atoms: C_10  and  O_11 
REMARK    9  A    between atoms: N_12  and  C_13 
REMARK   10  A    between atoms: C_14  and  O_15 
REMARK   11  A    between atoms: C_18  and  O_19 
ROOT
HETATM    1  C   UNL     1     -44.112  57.752 -56.222  1.00  0.00     0.256 C 
HETATM    2  N   UNL     1     -43.420  58.930 -55.655  1.00  0.00    -0.251 N 
HETATM    3  C   UNL     1     -43.341  60.113 -56.378  1.00  0.00     0.330 C 
HETATM    4  O   UNL     1     -43.004  61.203 -55.914  1.00  0.00    -0.246 OA
HETATM    5  N   UNL     1     -43.571  60.058 -57.716  1.00  0.00    -0.308 N 
HETATM    6  C   UNL     1     -43.867  58.916 -58.437  1.00  0.00     0.048 A 
HETATM    7  C   UNL     1     -44.104  57.732 -57.749  1.00  0.00     0.035 A 
HETATM    8  C   UNL     1     -43.933  58.979 -59.831  1.00  0.00     0.031 A 
HETATM    9  C   UNL     1     -44.227  57.831 -60.564  1.00  0.00     0.021 A 
HETATM   10  C   UNL     1     -44.480  56.638 -59.894  1.00  0.00     0.011 A 
HETATM   11 BR   UNL     1     -44.878  55.075 -60.878  1.00  0.00    -0.051 Br
HETATM   12  C   UNL     1     -44.442  56.587 -58.500  1.00  0.00     0.034 A 
HETATM   13  H   UNL     1     -43.474  60.948 -58.190  1.00  0.00     0.170 HD
ENDROOT
BRANCH   1  14
HETATM   14  C   UNL     1     -43.404  56.386 -55.752  1.00  0.00     0.279 C 
HETATM   15  N   UNL     1     -44.073  55.670 -54.756  1.00  0.00    -0.356 N 
HETATM   16  H   UNL     1     -45.070  55.847 -54.699  1.00  0.00     0.162 HD
HETATM   17  O   UNL     1     -42.273  56.053 -56.114  1.00  0.00    -0.268 OA
BRANCH  15  18
HETATM   18  C   UNL     1     -43.553  54.397 -54.306  1.00  0.00     0.124 C 
BRANCH  18  19
HETATM   19  C   UNL     1     -42.967  54.479 -52.897  1.00  0.00     0.047 C 
BRANCH  19  20
HETATM   20  C   UNL     1     -41.518  54.966 -52.835  1.00  0.00     0.236 C 
BRANCH  20  21
HETATM   21  N   UNL     1     -40.547  53.903 -52.337  1.00  0.00    -0.072 N 
HETATM   22  H   UNL     1     -39.615  54.333 -52.330  1.00  0.00     0.279 HD
BRANCH  21  23
HETATM   23  C   UNL     1     -40.426  52.730 -53.301  1.00  0.00     0.230 C 
HETATM   24  C   UNL     1     -40.122  53.226 -54.706  1.00  0.00     0.034 C 
ENDBRANCH  21  23
BRANCH  21  25
HETATM   25  C   UNL     1     -40.773  53.445 -50.906  1.00  0.00     0.230 C 
HETATM   26  C   UNL     1     -40.055  54.311 -49.889  1.00  0.00     0.034 C 
ENDBRANCH  21  25
ENDBRANCH  20  21
ENDBRANCH  19  20
ENDBRANCH  18  19
ENDBRANCH  15  18
ENDBRANCH   1  14
BRANCH   1  27
HETATM   27  O   UNL     1     -45.487  57.834 -55.904  1.00  0.00    -0.359 OA
HETATM   28  H   UNL     1     -45.922  58.040 -56.751  1.00  0.00     0.213 HD
ENDBRANCH   1  27
BRANCH   2  29
HETATM   29  C   UNL     1     -42.938  58.933 -54.289  1.00  0.00     0.076 A 
HETATM   30  C   UNL     1     -43.762  58.930 -53.148  1.00  0.00     0.098 A 
HETATM   31  C   UNL     1     -43.221  58.749 -51.863  1.00  0.00     0.075 A 
HETATM   32  C   UNL     1     -41.844  58.631 -51.690  1.00  0.00     0.070 A 
HETATM   33  C   UNL     1     -41.012  58.670 -52.801  1.00  0.00     0.039 A 
HETATM   34  C   UNL     1     -41.549  58.828 -54.080  1.00  0.00     0.035 A 
BRANCH  30  35
HETATM   35  O   UNL     1     -45.118  59.095 -53.285  1.00  0.00    -0.354 OA
HETATM   36  C   UNL     1     -45.499  60.473 -53.142  1.00  0.00     0.210 C 
ENDBRANCH  30  35
BRANCH  32  37
HETATM   37  O   UNL     1     -41.212  58.433 -50.495  1.00  0.00    -0.356 OA
HETATM   38  C   UNL     1     -40.539  59.569 -49.961  1.00  0.00     0.210 C 
ENDBRANCH  32  37
ENDBRANCH   2  29
TORSDOF 11
ENDMDL
