MODEL 1
REMARK VINA RESULT:      -7.4      0.000      0.000
REMARK  6 active torsions:
REMARK  status: ('A' for Active; 'I' for Inactive)
REMARK    1  A    between atoms: C_2  and  C_3 
REMARK    2  A    between atoms: C_3  and  N_4 
REMARK       I    between atoms: N_4  and  C_5 
REMARK    3  A    between atoms: C_5  and  C_6 
REMARK    4  A    between atoms: C_8  and  C_9 
REMARK    5  A    between atoms: C_9  and  N_10 
REMARK       I    between atoms: N_10  and  C_11 
REMARK    6  A    between atoms: C_11  and  C_12 
ROOT
HETATM    1  C   UNL     1     -40.612  53.738 -55.132  1.00  0.00     0.161 C 
ENDROOT
BRANCH   1   2
HETATM    2  C   UNL     1     -40.515  53.757 -53.632  1.00  0.00    -0.040 A 
HETATM    3  C   UNL     1     -40.798  54.932 -52.923  1.00  0.00     0.026 A 
HETATM    4  C   UNL     1     -40.816  54.924 -51.525  1.00  0.00     0.032 A 
HETATM    5  C   UNL     1     -40.512  53.757 -50.818  1.00  0.00     0.017 A 
HETATM    6  C   UNL     1     -40.193  52.594 -51.518  1.00  0.00     0.002 A 
HETATM    7  C   UNL     1     -40.200  52.592 -52.915  1.00  0.00     0.009 A 
BRANCH   4   8
HETATM    8  C   UNL     1     -41.211  56.167 -50.826  1.00  0.00     0.252 C 
HETATM    9  N   UNL     1     -41.129  57.308 -51.595  1.00  0.00    -0.353 N 
HETATM   10  H   UNL     1     -40.729  57.223 -52.521  1.00  0.00     0.163 HD
HETATM   11  O   UNL     1     -41.501  56.131 -49.639  1.00  0.00    -0.268 OA
BRANCH   9  12
HETATM   12  C   UNL     1     -41.277  58.657 -51.060  1.00  0.00     0.080 C 
HETATM   13  C   UNL     1     -40.011  59.121 -50.341  1.00  0.00     0.032 C 
BRANCH  12  14
HETATM   14  C   UNL     1     -41.722  59.684 -52.117  1.00  0.00     0.020 C 
HETATM   15  C   UNL     1     -41.254  59.334 -53.523  1.00  0.00     0.007 C 
ENDBRANCH  12  14
ENDBRANCH   9  12
ENDBRANCH   4   8
ENDBRANCH   1   2
BRANCH   1  16
HETATM   16  N   UNL     1     -41.291  54.885 -55.665  1.00  0.00    -0.351 N 
HETATM   17  C   UNL     1     -42.658  54.838 -55.850  1.00  0.00     0.273 C 
HETATM   18  O   UNL     1     -43.302  53.795 -55.774  1.00  0.00    -0.266 OA
HETATM   19  H   UNL     1     -40.889  55.816 -55.589  1.00  0.00     0.163 HD
BRANCH  17  20
HETATM   20  C   UNL     1     -43.276  56.149 -56.103  1.00  0.00     0.157 A 
HETATM   21  N   UNL     1     -43.296  56.703 -57.335  1.00  0.00    -0.168 NA
HETATM   22  N   UNL     1     -43.924  57.879 -57.144  1.00  0.00    -0.277 N 
HETATM   23  H   UNL     1     -44.066  58.483 -57.946  1.00  0.00     0.189 HD
HETATM   24  C   UNL     1     -44.290  58.124 -55.850  1.00  0.00     0.063 A 
HETATM   25  C   UNL     1     -43.883  57.005 -55.137  1.00  0.00     0.029 A 
HETATM   26  C   UNL     1     -44.927  59.216 -55.253  1.00  0.00     0.032 A 
HETATM   27  C   UNL     1     -44.118  56.959 -53.749  1.00  0.00     0.023 A 
HETATM   28  C   UNL     1     -44.755  58.041 -53.116  1.00  0.00    -0.061 A 
HETATM   29  C   UNL     1     -45.146  59.153 -53.870  1.00  0.00     0.009 A 
HETATM   30  C   UNL     1     -44.971  57.998 -51.631  1.00  0.00     0.048 C 
ENDBRANCH  17  20
ENDBRANCH   1  16
TORSDOF 6
ENDMDL
MODEL 2
REMARK VINA RESULT:      -7.3      3.373      7.034
REMARK  6 active torsions:
REMARK  status: ('A' for Active; 'I' for Inactive)
REMARK    1  A    between atoms: C_2  and  C_3 
REMARK    2  A    between atoms: C_3  and  N_4 
REMARK       I    between atoms: N_4  and  C_5 
REMARK    3  A    between atoms: C_5  and  C_6 
REMARK    4  A    between atoms: C_8  and  C_9 
REMARK    5  A    between atoms: C_9  and  N_10 
REMARK       I    between atoms: N_10  and  C_11 
REMARK    6  A    between atoms: C_11  and  C_12 
ROOT
HETATM    1  C   UNL     1     -43.124  55.074 -57.085  1.00  0.00     0.161 C 
ENDROOT
BRANCH   1   2
HETATM    2  C   UNL     1     -42.783  56.214 -58.004  1.00  0.00    -0.040 A 
HETATM    3  C   UNL     1     -42.532  57.489 -57.481  1.00  0.00     0.026 A 
HETATM    4  C   UNL     1     -42.109  58.524 -58.320  1.00  0.00     0.032 A 
HETATM    5  C   UNL     1     -41.970  58.312 -59.694  1.00  0.00     0.017 A 
HETATM    6  C   UNL     1     -42.253  57.054 -60.227  1.00  0.00     0.002 A 
HETATM    7  C   UNL     1     -42.652  56.011 -59.387  1.00  0.00     0.009 A 
BRANCH   4   8
HETATM    8  C   UNL     1     -41.769  59.826 -57.704  1.00  0.00     0.252 C 
HETATM    9  N   UNL     1     -41.572  60.853 -58.602  1.00  0.00    -0.353 N 
HETATM   10  H   UNL     1     -41.583  60.623 -59.588  1.00  0.00     0.163 HD
HETATM   11  O   UNL     1     -41.612  59.903 -56.493  1.00  0.00    -0.268 OA
BRANCH   9  12
HETATM   12  C   UNL     1     -41.040  62.160 -58.235  1.00  0.00     0.080 C 
HETATM   13  C   UNL     1     -39.859  62.557 -59.120  1.00  0.00     0.032 C 
BRANCH  12  14
HETATM   14  C   UNL     1     -42.109  63.266 -58.208  1.00  0.00     0.020 C 
HETATM   15  C   UNL     1     -42.905  63.294 -56.909  1.00  0.00     0.007 C 
ENDBRANCH  12  14
ENDBRANCH   9  12
ENDBRANCH   4   8
ENDBRANCH   1   2
BRANCH   1  16
HETATM   16  N   UNL     1     -42.325  55.057 -55.893  1.00  0.00    -0.351 N 
HETATM   17  C   UNL     1     -42.948  55.036 -54.660  1.00  0.00     0.273 C 
HETATM   18  O   UNL     1     -44.151  55.236 -54.522  1.00  0.00    -0.266 OA
HETATM   19  H   UNL     1     -41.367  54.719 -55.907  1.00  0.00     0.163 HD
BRANCH  17  20
HETATM   20  C   UNL     1     -42.051  54.712 -53.540  1.00  0.00     0.157 A 
HETATM   21  N   UNL     1     -41.865  55.561 -52.505  1.00  0.00    -0.168 NA
HETATM   22  N   UNL     1     -40.984  54.914 -51.718  1.00  0.00    -0.277 N 
HETATM   23  H   UNL     1     -40.690  55.363 -50.858  1.00  0.00     0.189 HD
HETATM   24  C   UNL     1     -40.572  53.703 -52.202  1.00  0.00     0.063 A 
HETATM   25  C   UNL     1     -41.258  53.535 -53.397  1.00  0.00     0.029 A 
HETATM   26  C   UNL     1     -39.669  52.760 -51.704  1.00  0.00     0.032 A 
HETATM   27  C   UNL     1     -41.038  52.365 -54.149  1.00  0.00     0.023 A 
HETATM   28  C   UNL     1     -40.134  51.396 -53.678  1.00  0.00    -0.061 A 
HETATM   29  C   UNL     1     -39.460  51.606 -52.470  1.00  0.00     0.009 A 
HETATM   30  C   UNL     1     -39.881  50.167 -54.502  1.00  0.00     0.048 C 
ENDBRANCH  17  20
ENDBRANCH   1  16
TORSDOF 6
ENDMDL
MODEL 3
REMARK VINA RESULT:      -7.2      2.744      7.790
REMARK  6 active torsions:
REMARK  status: ('A' for Active; 'I' for Inactive)
REMARK    1  A    between atoms: C_2  and  C_3 
REMARK    2  A    between atoms: C_3  and  N_4 
REMARK       I    between atoms: N_4  and  C_5 
REMARK    3  A    between atoms: C_5  and  C_6 
REMARK    4  A    between atoms: C_8  and  C_9 
REMARK    5  A    between atoms: C_9  and  N_10 
REMARK       I    between atoms: N_10  and  C_11 
REMARK    6  A    between atoms: C_11  and  C_12 
ROOT
HETATM    1  C   UNL     1     -41.324  57.477 -53.496  1.00  0.00     0.161 C 
ENDROOT
BRANCH   1   2
HETATM    2  C   UNL     1     -42.579  57.644 -54.306  1.00  0.00    -0.040 A 
HETATM    3  C   UNL     1     -42.563  57.406 -55.686  1.00  0.00     0.026 A 
HETATM    4  C   UNL     1     -43.750  57.453 -56.423  1.00  0.00     0.032 A 
HETATM    5  C   UNL     1     -44.959  57.778 -55.802  1.00  0.00     0.017 A 
HETATM    6  C   UNL     1     -44.976  58.053 -54.434  1.00  0.00     0.002 A 
HETATM    7  C   UNL     1     -43.795  57.980 -53.690  1.00  0.00     0.009 A 
BRANCH   4   8
HETATM    8  C   UNL     1     -43.693  57.104 -57.860  1.00  0.00     0.252 C 
HETATM    9  N   UNL     1     -44.858  56.571 -58.369  1.00  0.00    -0.353 N 
HETATM   10  H   UNL     1     -45.610  56.380 -57.718  1.00  0.00     0.163 HD
HETATM   11  O   UNL     1     -42.642  57.227 -58.474  1.00  0.00    -0.268 OA
BRANCH   9  12
HETATM   12  C   UNL     1     -44.966  55.977 -59.696  1.00  0.00     0.080 C 
HETATM   13  C   UNL     1     -44.443  54.541 -59.715  1.00  0.00     0.032 C 
BRANCH  12  14
HETATM   14  C   UNL     1     -46.385  56.058 -60.285  1.00  0.00     0.020 C 
HETATM   15  C   UNL     1     -46.843  57.488 -60.542  1.00  0.00     0.007 C 
ENDBRANCH  12  14
ENDBRANCH   9  12
ENDBRANCH   4   8
ENDBRANCH   1   2
BRANCH   1  16
HETATM   16  N   UNL     1     -41.323  56.280 -52.703  1.00  0.00    -0.351 N 
HETATM   17  C   UNL     1     -40.744  55.133 -53.209  1.00  0.00     0.273 C 
HETATM   18  O   UNL     1     -40.409  55.023 -54.385  1.00  0.00    -0.266 OA
HETATM   19  H   UNL     1     -41.408  56.320 -51.691  1.00  0.00     0.163 HD
BRANCH  17  20
HETATM   20  C   UNL     1     -40.530  54.076 -52.208  1.00  0.00     0.157 A 
HETATM   21  N   UNL     1     -40.555  54.333 -50.882  1.00  0.00    -0.168 NA
HETATM   22  N   UNL     1     -40.308  53.133 -50.322  1.00  0.00    -0.277 N 
HETATM   23  H   UNL     1     -40.283  53.072 -49.310  1.00  0.00     0.189 HD
HETATM   24  C   UNL     1     -40.101  52.120 -51.217  1.00  0.00     0.063 A 
HETATM   25  C   UNL     1     -40.244  52.703 -52.468  1.00  0.00     0.029 A 
HETATM   26  C   UNL     1     -39.799  50.767 -51.038  1.00  0.00     0.032 A 
HETATM   27  C   UNL     1     -40.078  51.903 -53.615  1.00  0.00     0.023 A 
HETATM   28  C   UNL     1     -39.773  50.538 -53.471  1.00  0.00    -0.061 A 
HETATM   29  C   UNL     1     -39.633  49.990 -52.192  1.00  0.00     0.009 A 
HETATM   30  C   UNL     1     -39.565  49.699 -54.699  1.00  0.00     0.048 C 
ENDBRANCH  17  20
ENDBRANCH   1  16
TORSDOF 6
ENDMDL
MODEL 4
REMARK VINA RESULT:      -7.1      2.373      6.844
REMARK  6 active torsions:
REMARK  status: ('A' for Active; 'I' for Inactive)
REMARK    1  A    between atoms: C_2  and  C_3 
REMARK    2  A    between atoms: C_3  and  N_4 
REMARK       I    between atoms: N_4  and  C_5 
REMARK    3  A    between atoms: C_5  and  C_6 
REMARK    4  A    between atoms: C_8  and  C_9 
REMARK    5  A    between atoms: C_9  and  N_10 
REMARK       I    between atoms: N_10  and  C_11 
REMARK    6  A    between atoms: C_11  and  C_12 
ROOT
HETATM    1  C   UNL     1     -41.081  56.345 -49.749  1.00  0.00     0.161 C 
ENDROOT
BRANCH   1   2
HETATM    2  C   UNL     1     -41.424  57.319 -50.842  1.00  0.00    -0.040 A 
HETATM    3  C   UNL     1     -42.188  56.903 -51.940  1.00  0.00     0.026 A 
HETATM    4  C   UNL     1     -42.600  57.830 -52.902  1.00  0.00     0.032 A 
HETATM    5  C   UNL     1     -42.223  59.172 -52.803  1.00  0.00     0.017 A 
HETATM    6  C   UNL     1     -41.431  59.585 -51.731  1.00  0.00     0.002 A 
HETATM    7  C   UNL     1     -41.039  58.666 -50.754  1.00  0.00     0.009 A 
BRANCH   4   8
HETATM    8  C   UNL     1     -43.482  57.357 -53.993  1.00  0.00     0.252 C 
HETATM    9  N   UNL     1     -42.849  57.170 -55.203  1.00  0.00    -0.353 N 
HETATM   10  H   UNL     1     -41.879  57.451 -55.274  1.00  0.00     0.163 HD
HETATM   11  O   UNL     1     -44.682  57.236 -53.794  1.00  0.00    -0.268 OA
BRANCH   9  12
HETATM   12  C   UNL     1     -43.552  56.902 -56.452  1.00  0.00     0.080 C 
HETATM   13  C   UNL     1     -43.655  58.155 -57.321  1.00  0.00     0.032 C 
BRANCH  12  14
HETATM   14  C   UNL     1     -42.956  55.725 -57.245  1.00  0.00     0.020 C 
HETATM   15  C   UNL     1     -43.009  55.934 -58.753  1.00  0.00     0.007 C 
ENDBRANCH  12  14
ENDBRANCH   9  12
ENDBRANCH   4   8
ENDBRANCH   1   2
BRANCH   1  16
HETATM   16  N   UNL     1     -40.524  55.118 -50.244  1.00  0.00    -0.351 N 
HETATM   17  C   UNL     1     -40.859  53.927 -49.632  1.00  0.00     0.273 C 
HETATM   18  O   UNL     1     -41.448  53.877 -48.556  1.00  0.00    -0.266 OA
HETATM   19  H   UNL     1     -40.188  55.042 -51.200  1.00  0.00     0.163 HD
BRANCH  17  20
HETATM   20  C   UNL     1     -40.483  52.730 -50.400  1.00  0.00     0.157 A 
HETATM   21  N   UNL     1     -40.199  51.555 -49.799  1.00  0.00    -0.168 NA
HETATM   22  N   UNL     1     -39.897  50.737 -50.825  1.00  0.00    -0.277 N 
HETATM   23  H   UNL     1     -39.650  49.776 -50.617  1.00  0.00     0.189 HD
HETATM   24  C   UNL     1     -39.949  51.329 -52.057  1.00  0.00     0.063 A 
HETATM   25  C   UNL     1     -40.336  52.639 -51.816  1.00  0.00     0.029 A 
HETATM   26  C   UNL     1     -39.688  50.835 -53.339  1.00  0.00     0.032 A 
HETATM   27  C   UNL     1     -40.473  53.520 -52.907  1.00  0.00     0.023 A 
HETATM   28  C   UNL     1     -40.218  53.057 -54.210  1.00  0.00    -0.061 A 
HETATM   29  C   UNL     1     -39.826  51.729 -54.409  1.00  0.00     0.009 A 
HETATM   30  C   UNL     1     -40.334  54.011 -55.363  1.00  0.00     0.048 C 
ENDBRANCH  17  20
ENDBRANCH   1  16
TORSDOF 6
ENDMDL
MODEL 5
REMARK VINA RESULT:      -7.0      2.066      7.397
REMARK  6 active torsions:
REMARK  status: ('A' for Active; 'I' for Inactive)
REMARK    1  A    between atoms: C_2  and  C_3 
REMARK    2  A    between atoms: C_3  and  N_4 
REMARK       I    between atoms: N_4  and  C_5 
REMARK    3  A    between atoms: C_5  and  C_6 
REMARK    4  A    between atoms: C_8  and  C_9 
REMARK    5  A    between atoms: C_9  and  N_10 
REMARK       I    between atoms: N_10  and  C_11 
REMARK    6  A    between atoms: C_11  and  C_12 
ROOT
HETATM    1  C   UNL     1     -44.148  57.172 -51.587  1.00  0.00     0.161 C 
ENDROOT
BRANCH   1   2
HETATM    2  C   UNL     1     -44.251  57.579 -53.030  1.00  0.00    -0.040 A 
HETATM    3  C   UNL     1     -43.632  56.811 -54.024  1.00  0.00     0.026 A 
HETATM    4  C   UNL     1     -43.817  57.124 -55.374  1.00  0.00     0.032 A 
HETATM    5  C   UNL     1     -44.586  58.229 -55.748  1.00  0.00     0.017 A 
HETATM    6  C   UNL     1     -45.175  59.020 -54.762  1.00  0.00     0.002 A 
HETATM    7  C   UNL     1     -45.014  58.694 -53.412  1.00  0.00     0.009 A 
BRANCH   4   8
HETATM    8  C   UNL     1     -43.216  56.226 -56.386  1.00  0.00     0.252 C 
HETATM    9  N   UNL     1     -43.628  56.463 -57.680  1.00  0.00    -0.353 N 
HETATM   10  H   UNL     1     -44.357  57.150 -57.822  1.00  0.00     0.163 HD
HETATM   11  O   UNL     1     -42.480  55.316 -56.031  1.00  0.00    -0.268 OA
BRANCH   9  12
HETATM   12  C   UNL     1     -43.322  55.582 -58.802  1.00  0.00     0.080 C 
HETATM   13  C   UNL     1     -44.592  55.082 -59.488  1.00  0.00     0.032 C 
BRANCH  12  14
HETATM   14  C   UNL     1     -42.350  56.207 -59.818  1.00  0.00     0.020 C 
HETATM   15  C   UNL     1     -42.320  57.729 -59.756  1.00  0.00     0.007 C 
ENDBRANCH  12  14
ENDBRANCH   9  12
ENDBRANCH   4   8
ENDBRANCH   1   2
BRANCH   1  16
HETATM   16  N   UNL     1     -43.292  56.038 -51.383  1.00  0.00    -0.351 N 
HETATM   17  C   UNL     1     -42.123  56.193 -50.664  1.00  0.00     0.273 C 
HETATM   18  O   UNL     1     -41.673  57.293 -50.360  1.00  0.00    -0.266 OA
HETATM   19  H   UNL     1     -43.654  55.090 -51.437  1.00  0.00     0.163 HD
BRANCH  17  20
HETATM   20  C   UNL     1     -41.493  54.925 -50.262  1.00  0.00     0.157 A 
HETATM   21  N   UNL     1     -41.291  54.608 -48.965  1.00  0.00    -0.168 NA
HETATM   22  N   UNL     1     -40.693  53.403 -49.023  1.00  0.00    -0.277 N 
HETATM   23  H   UNL     1     -40.444  52.948 -48.151  1.00  0.00     0.189 HD
HETATM   24  C   UNL     1     -40.478  52.935 -50.290  1.00  0.00     0.063 A 
HETATM   25  C   UNL     1     -40.996  53.909 -51.131  1.00  0.00     0.029 A 
HETATM   26  C   UNL     1     -39.877  51.764 -50.760  1.00  0.00     0.032 A 
HETATM   27  C   UNL     1     -40.916  53.718 -52.524  1.00  0.00     0.023 A 
HETATM   28  C   UNL     1     -40.317  52.552 -53.032  1.00  0.00    -0.061 A 
HETATM   29  C   UNL     1     -39.803  51.595 -52.149  1.00  0.00     0.009 A 
HETATM   30  C   UNL     1     -40.207  52.371 -54.518  1.00  0.00     0.048 C 
ENDBRANCH  17  20
ENDBRANCH   1  16
TORSDOF 6
ENDMDL
MODEL 6
REMARK VINA RESULT:      -7.0      3.419      6.953
REMARK  6 active torsions:
REMARK  status: ('A' for Active; 'I' for Inactive)
REMARK    1  A    between atoms: C_2  and  C_3 
REMARK    2  A    between atoms: C_3  and  N_4 
REMARK       I    between atoms: N_4  and  C_5 
REMARK    3  A    between atoms: C_5  and  C_6 
REMARK    4  A    between atoms: C_8  and  C_9 
REMARK    5  A    between atoms: C_9  and  N_10 
REMARK       I    between atoms: N_10  and  C_11 
REMARK    6  A    between atoms: C_11  and  C_12 
ROOT
HETATM    1  C   UNL     1     -42.367  57.036 -53.033  1.00  0.00     0.161 C 
ENDROOT
BRANCH   1   2
HETATM    2  C   UNL     1     -42.064  58.213 -52.148  1.00  0.00    -0.040 A 
HETATM    3  C   UNL     1     -43.104  59.023 -51.674  1.00  0.00     0.026 A 
HETATM    4  C   UNL     1     -42.837  60.051 -50.764  1.00  0.00     0.032 A 
HETATM    5  C   UNL     1     -41.528  60.309 -50.348  1.00  0.00     0.017 A 
HETATM    6  C   UNL     1     -40.484  59.530 -50.846  1.00  0.00     0.002 A 
HETATM    7  C   UNL     1     -40.750  58.485 -51.735  1.00  0.00     0.009 A 
BRANCH   4   8
HETATM    8  C   UNL     1     -43.982  60.817 -50.223  1.00  0.00     0.252 C 
HETATM    9  N   UNL     1     -43.994  60.940 -48.850  1.00  0.00    -0.353 N 
HETATM   10  H   UNL     1     -43.291  60.433 -48.328  1.00  0.00     0.163 HD
HETATM   11  O   UNL     1     -44.857  61.216 -50.979  1.00  0.00    -0.268 OA
BRANCH   9  12
HETATM   12  C   UNL     1     -45.120  61.477 -48.094  1.00  0.00     0.080 C 
HETATM   13  C   UNL     1     -45.200  60.869 -46.694  1.00  0.00     0.032 C 
BRANCH  12  14
HETATM   14  C   UNL     1     -45.133  63.015 -48.034  1.00  0.00     0.020 C 
HETATM   15  C   UNL     1     -46.298  63.631 -48.798  1.00  0.00     0.007 C 
ENDBRANCH  12  14
ENDBRANCH   9  12
ENDBRANCH   4   8
ENDBRANCH   1   2
BRANCH   1  16
HETATM   16  N   UNL     1     -42.102  55.775 -52.400  1.00  0.00    -0.351 N 
HETATM   17  C   UNL     1     -41.058  54.995 -52.856  1.00  0.00     0.273 C 
HETATM   18  O   UNL     1     -40.468  55.225 -53.908  1.00  0.00    -0.266 OA
HETATM   19  H   UNL     1     -42.405  55.591 -51.448  1.00  0.00     0.163 HD
BRANCH  17  20
HETATM   20  C   UNL     1     -40.693  53.893 -51.952  1.00  0.00     0.157 A 
HETATM   21  N   UNL     1     -40.626  54.059 -50.613  1.00  0.00    -0.168 NA
HETATM   22  N   UNL     1     -40.254  52.846 -50.161  1.00  0.00    -0.277 N 
HETATM   23  H   UNL     1     -40.142  52.720 -49.161  1.00  0.00     0.189 HD
HETATM   24  C   UNL     1     -40.056  51.911 -51.139  1.00  0.00     0.063 A 
HETATM   25  C   UNL     1     -40.339  52.563 -52.330  1.00  0.00     0.029 A 
HETATM   26  C   UNL     1     -39.652  50.574 -51.080  1.00  0.00     0.032 A 
HETATM   27  C   UNL     1     -40.217  51.854 -53.541  1.00  0.00     0.023 A 
HETATM   28  C   UNL     1     -39.811  50.508 -53.519  1.00  0.00    -0.061 A 
HETATM   29  C   UNL     1     -39.531  49.888 -52.296  1.00  0.00     0.009 A 
HETATM   30  C   UNL     1     -39.651  49.768 -54.815  1.00  0.00     0.048 C 
ENDBRANCH  17  20
ENDBRANCH   1  16
TORSDOF 6
ENDMDL
MODEL 7
REMARK VINA RESULT:      -7.0      2.987      7.560
REMARK  6 active torsions:
REMARK  status: ('A' for Active; 'I' for Inactive)
REMARK    1  A    between atoms: C_2  and  C_3 
REMARK    2  A    between atoms: C_3  and  N_4 
REMARK       I    between atoms: N_4  and  C_5 
REMARK    3  A    between atoms: C_5  and  C_6 
REMARK    4  A    between atoms: C_8  and  C_9 
REMARK    5  A    between atoms: C_9  and  N_10 
REMARK       I    between atoms: N_10  and  C_11 
REMARK    6  A    between atoms: C_11  and  C_12 
ROOT
HETATM    1  C   UNL     1     -42.736  58.161 -54.757  1.00  0.00     0.161 C 
ENDROOT
BRANCH   1   2
HETATM    2  C   UNL     1     -42.440  58.549 -56.179  1.00  0.00    -0.040 A 
HETATM    3  C   UNL     1     -42.700  57.650 -57.222  1.00  0.00     0.026 A 
HETATM    4  C   UNL     1     -42.529  58.046 -58.552  1.00  0.00     0.032 A 
HETATM    5  C   UNL     1     -42.060  59.327 -58.857  1.00  0.00     0.017 A 
HETATM    6  C   UNL     1     -41.765  60.214 -57.821  1.00  0.00     0.002 A 
HETATM    7  C   UNL     1     -41.959  59.830 -56.492  1.00  0.00     0.009 A 
BRANCH   4   8
HETATM    8  C   UNL     1     -42.905  57.090 -59.617  1.00  0.00     0.252 C 
HETATM    9  N   UNL     1     -44.231  56.714 -59.611  1.00  0.00    -0.353 N 
HETATM   10  H   UNL     1     -44.807  57.039 -58.844  1.00  0.00     0.163 HD
HETATM   11  O   UNL     1     -42.045  56.645 -60.365  1.00  0.00    -0.268 OA
BRANCH   9  12
HETATM   12  C   UNL     1     -44.773  55.641 -60.436  1.00  0.00     0.080 C 
HETATM   13  C   UNL     1     -44.549  54.270 -59.797  1.00  0.00     0.032 C 
BRANCH  12  14
HETATM   14  C   UNL     1     -46.253  55.846 -60.805  1.00  0.00     0.020 C 
HETATM   15  C   UNL     1     -46.975  56.802 -59.865  1.00  0.00     0.007 C 
ENDBRANCH  12  14
ENDBRANCH   9  12
ENDBRANCH   4   8
ENDBRANCH   1   2
BRANCH   1  16
HETATM   16  N   UNL     1     -42.064  56.959 -54.352  1.00  0.00    -0.351 N 
HETATM   17  C   UNL     1     -42.809  55.846 -54.017  1.00  0.00     0.273 C 
HETATM   18  O   UNL     1     -44.025  55.887 -53.851  1.00  0.00    -0.266 OA
HETATM   19  H   UNL     1     -41.101  56.779 -54.622  1.00  0.00     0.163 HD
BRANCH  17  20
HETATM   20  C   UNL     1     -42.025  54.605 -53.919  1.00  0.00     0.157 A 
HETATM   21  N   UNL     1     -41.949  53.725 -54.941  1.00  0.00    -0.168 NA
HETATM   22  N   UNL     1     -41.166  52.742 -54.457  1.00  0.00    -0.277 N 
HETATM   23  H   UNL     1     -40.956  51.954 -55.060  1.00  0.00     0.189 HD
HETATM   24  C   UNL     1     -40.750  52.930 -53.168  1.00  0.00     0.063 A 
HETATM   25  C   UNL     1     -41.293  54.148 -52.784  1.00  0.00     0.029 A 
HETATM   26  C   UNL     1     -39.963  52.146 -52.320  1.00  0.00     0.032 A 
HETATM   27  C   UNL     1     -41.045  54.623 -51.480  1.00  0.00     0.023 A 
HETATM   28  C   UNL     1     -40.259  53.859 -50.601  1.00  0.00    -0.061 A 
HETATM   29  C   UNL     1     -39.734  52.634 -51.026  1.00  0.00     0.009 A 
HETATM   30  C   UNL     1     -40.028  54.356 -49.203  1.00  0.00     0.048 C 
ENDBRANCH  17  20
ENDBRANCH   1  16
TORSDOF 6
ENDMDL
MODEL 8
REMARK VINA RESULT:      -7.0      2.756      7.648
REMARK  6 active torsions:
REMARK  status: ('A' for Active; 'I' for Inactive)
REMARK    1  A    between atoms: C_2  and  C_3 
REMARK    2  A    between atoms: C_3  and  N_4 
REMARK       I    between atoms: N_4  and  C_5 
REMARK    3  A    between atoms: C_5  and  C_6 
REMARK    4  A    between atoms: C_8  and  C_9 
REMARK    5  A    between atoms: C_9  and  N_10 
REMARK       I    between atoms: N_10  and  C_11 
REMARK    6  A    between atoms: C_11  and  C_12 
ROOT
HETATM    1  C   UNL     1     -44.429  57.333 -54.144  1.00  0.00     0.161 C 
ENDROOT
BRANCH   1   2
HETATM    2  C   UNL     1     -43.618  57.807 -55.318  1.00  0.00    -0.040 A 
HETATM    3  C   UNL     1     -43.685  57.125 -56.541  1.00  0.00     0.026 A 
HETATM    4  C   UNL     1     -43.019  57.625 -57.663  1.00  0.00     0.032 A 
HETATM    5  C   UNL     1     -42.245  58.786 -57.572  1.00  0.00     0.017 A 
HETATM    6  C   UNL     1     -42.145  59.449 -56.349  1.00  0.00     0.002 A 
HETATM    7  C   UNL     1     -42.831  58.966 -55.231  1.00  0.00     0.009 A 
BRANCH   4   8
HETATM    8  C   UNL     1     -43.196  56.918 -58.951  1.00  0.00     0.252 C 
HETATM    9  N   UNL     1     -44.385  56.231 -59.070  1.00  0.00    -0.353 N 
HETATM   10  H   UNL     1     -44.986  56.188 -58.256  1.00  0.00     0.163 HD
HETATM   11  O   UNL     1     -42.291  56.916 -59.773  1.00  0.00    -0.268 OA
BRANCH   9  12
HETATM   12  C   UNL     1     -44.683  55.310 -60.161  1.00  0.00     0.080 C 
HETATM   13  C   UNL     1     -44.748  53.862 -59.675  1.00  0.00     0.032 C 
BRANCH  12  14
HETATM   14  C   UNL     1     -45.951  55.689 -60.947  1.00  0.00     0.020 C 
HETATM   15  C   UNL     1     -46.977  56.432 -60.102  1.00  0.00     0.007 C 
ENDBRANCH  12  14
ENDBRANCH   9  12
ENDBRANCH   4   8
ENDBRANCH   1   2
BRANCH   1  16
HETATM   16  N   UNL     1     -43.636  56.682 -53.141  1.00  0.00    -0.351 N 
HETATM   17  C   UNL     1     -43.316  55.347 -53.292  1.00  0.00     0.273 C 
HETATM   18  O   UNL     1     -43.842  54.631 -54.139  1.00  0.00    -0.266 OA
HETATM   19  H   UNL     1     -43.028  57.214 -52.525  1.00  0.00     0.163 HD
BRANCH  17  20
HETATM   20  C   UNL     1     -42.263  54.875 -52.380  1.00  0.00     0.157 A 
HETATM   21  N   UNL     1     -41.976  55.518 -51.226  1.00  0.00    -0.168 NA
HETATM   22  N   UNL     1     -40.969  54.794 -50.702  1.00  0.00    -0.277 N 
HETATM   23  H   UNL     1     -40.581  55.086 -49.811  1.00  0.00     0.189 HD
HETATM   24  C   UNL     1     -40.574  53.731 -51.466  1.00  0.00     0.063 A 
HETATM   25  C   UNL     1     -41.407  53.751 -52.576  1.00  0.00     0.029 A 
HETATM   26  C   UNL     1     -39.571  52.775 -51.285  1.00  0.00     0.032 A 
HETATM   27  C   UNL     1     -41.240  52.768 -53.571  1.00  0.00     0.023 A 
HETATM   28  C   UNL     1     -40.239  51.791 -53.420  1.00  0.00    -0.061 A 
HETATM   29  C   UNL     1     -39.418  51.809 -52.288  1.00  0.00     0.009 A 
HETATM   30  C   UNL     1     -40.046  50.767 -54.500  1.00  0.00     0.048 C 
ENDBRANCH  17  20
ENDBRANCH   1  16
TORSDOF 6
ENDMDL
MODEL 9
REMARK VINA RESULT:      -6.9      2.209      5.642
REMARK  6 active torsions:
REMARK  status: ('A' for Active; 'I' for Inactive)
REMARK    1  A    between atoms: C_2  and  C_3 
REMARK    2  A    between atoms: C_3  and  N_4 
REMARK       I    between atoms: N_4  and  C_5 
REMARK    3  A    between atoms: C_5  and  C_6 
REMARK    4  A    between atoms: C_8  and  C_9 
REMARK    5  A    between atoms: C_9  and  N_10 
REMARK       I    between atoms: N_10  and  C_11 
REMARK    6  A    between atoms: C_11  and  C_12 
ROOT
HETATM    1  C   UNL     1     -42.592  55.960 -56.783  1.00  0.00     0.161 C 
ENDROOT
BRANCH   1   2
HETATM    2  C   UNL     1     -42.450  57.456 -56.726  1.00  0.00    -0.040 A 
HETATM    3  C   UNL     1     -42.449  58.116 -55.491  1.00  0.00     0.026 A 
HETATM    4  C   UNL     1     -42.207  59.492 -55.428  1.00  0.00     0.032 A 
HETATM    5  C   UNL     1     -42.004  60.232 -56.596  1.00  0.00     0.017 A 
HETATM    6  C   UNL     1     -42.041  59.586 -57.832  1.00  0.00     0.002 A 
HETATM    7  C   UNL     1     -42.256  58.207 -57.896  1.00  0.00     0.009 A 
BRANCH   4   8
HETATM    8  C   UNL     1     -42.126  60.125 -54.092  1.00  0.00     0.252 C 
HETATM    9  N   UNL     1     -41.713  59.283 -53.082  1.00  0.00    -0.353 N 
HETATM   10  H   UNL     1     -41.590  58.304 -53.308  1.00  0.00     0.163 HD
HETATM   11  O   UNL     1     -42.486  61.284 -53.946  1.00  0.00    -0.268 OA
BRANCH   9  12
HETATM   12  C   UNL     1     -41.751  59.635 -51.667  1.00  0.00     0.080 C 
HETATM   13  C   UNL     1     -43.171  59.570 -51.108  1.00  0.00     0.032 C 
BRANCH  12  14
HETATM   14  C   UNL     1     -40.778  58.807 -50.808  1.00  0.00     0.020 C 
HETATM   15  C   UNL     1     -39.336  59.288 -50.910  1.00  0.00     0.007 C 
ENDBRANCH  12  14
ENDBRANCH   9  12
ENDBRANCH   4   8
ENDBRANCH   1   2
BRANCH   1  16
HETATM   16  N   UNL     1     -41.807  55.284 -55.790  1.00  0.00    -0.351 N 
HETATM   17  C   UNL     1     -42.439  54.494 -54.850  1.00  0.00     0.273 C 
HETATM   18  O   UNL     1     -43.656  54.497 -54.691  1.00  0.00    -0.266 OA
HETATM   19  H   UNL     1     -40.823  55.081 -55.945  1.00  0.00     0.163 HD
BRANCH  17  20
HETATM   20  C   UNL     1     -41.530  53.621 -54.090  1.00  0.00     0.157 A 
HETATM   21  N   UNL     1     -40.958  52.530 -54.644  1.00  0.00    -0.168 NA
HETATM   22  N   UNL     1     -40.227  52.010 -53.640  1.00  0.00    -0.277 N 
HETATM   23  H   UNL     1     -39.690  51.169 -53.822  1.00  0.00     0.189 HD
HETATM   24  C   UNL     1     -40.315  52.695 -52.459  1.00  0.00     0.063 A 
HETATM   25  C   UNL     1     -41.161  53.763 -52.720  1.00  0.00     0.029 A 
HETATM   26  C   UNL     1     -39.740  52.467 -51.206  1.00  0.00     0.032 A 
HETATM   27  C   UNL     1     -41.460  54.665 -51.679  1.00  0.00     0.023 A 
HETATM   28  C   UNL     1     -40.899  54.465 -50.406  1.00  0.00    -0.061 A 
HETATM   29  C   UNL     1     -40.054  53.372 -50.183  1.00  0.00     0.009 A 
HETATM   30  C   UNL     1     -41.249  55.411 -49.294  1.00  0.00     0.048 C 
ENDBRANCH  17  20
ENDBRANCH   1  16
TORSDOF 6
ENDMDL
MODEL 10
REMARK VINA RESULT:      -6.8      2.814      5.267
REMARK  6 active torsions:
REMARK  status: ('A' for Active; 'I' for Inactive)
REMARK    1  A    between atoms: C_2  and  C_3 
REMARK    2  A    between atoms: C_3  and  N_4 
REMARK       I    between atoms: N_4  and  C_5 
REMARK    3  A    between atoms: C_5  and  C_6 
REMARK    4  A    between atoms: C_8  and  C_9 
REMARK    5  A    between atoms: C_9  and  N_10 
REMARK       I    between atoms: N_10  and  C_11 
REMARK    6  A    between atoms: C_11  and  C_12 
ROOT
HETATM    1  C   UNL     1     -43.936  54.710 -54.091  1.00  0.00     0.161 C 
ENDROOT
BRANCH   1   2
HETATM    2  C   UNL     1     -43.171  54.787 -52.800  1.00  0.00    -0.040 A 
HETATM    3  C   UNL     1     -42.183  53.837 -52.508  1.00  0.00     0.026 A 
HETATM    4  C   UNL     1     -41.396  53.969 -51.361  1.00  0.00     0.032 A 
HETATM    5  C   UNL     1     -41.609  55.024 -50.470  1.00  0.00     0.017 A 
HETATM    6  C   UNL     1     -42.615  55.953 -50.736  1.00  0.00     0.002 A 
HETATM    7  C   UNL     1     -43.387  55.839 -51.895  1.00  0.00     0.009 A 
BRANCH   4   8
HETATM    8  C   UNL     1     -40.306  52.990 -51.147  1.00  0.00     0.252 C 
HETATM    9  N   UNL     1     -40.295  51.939 -52.039  1.00  0.00    -0.353 N 
HETATM   10  H   UNL     1     -41.064  51.871 -52.694  1.00  0.00     0.163 HD
HETATM   11  O   UNL     1     -39.556  53.115 -50.190  1.00  0.00    -0.268 OA
BRANCH   9  12
HETATM   12  C   UNL     1     -39.442  50.765 -51.898  1.00  0.00     0.080 C 
HETATM   13  C   UNL     1     -39.795  49.959 -50.648  1.00  0.00     0.032 C 
BRANCH  12  14
HETATM   14  C   UNL     1     -39.427  49.870 -53.150  1.00  0.00     0.020 C 
HETATM   15  C   UNL     1     -40.148  50.494 -54.337  1.00  0.00     0.007 C 
ENDBRANCH  12  14
ENDBRANCH   9  12
ENDBRANCH   4   8
ENDBRANCH   1   2
BRANCH   1  16
HETATM   16  N   UNL     1     -43.746  55.862 -54.926  1.00  0.00    -0.351 N 
HETATM   17  C   UNL     1     -42.657  55.913 -55.773  1.00  0.00     0.273 C 
HETATM   18  O   UNL     1     -41.727  55.115 -55.706  1.00  0.00    -0.266 OA
HETATM   19  H   UNL     1     -44.526  56.465 -55.174  1.00  0.00     0.163 HD
BRANCH  17  20
HETATM   20  C   UNL     1     -42.732  56.979 -56.784  1.00  0.00     0.157 A 
HETATM   21  N   UNL     1     -42.312  58.237 -56.528  1.00  0.00    -0.168 NA
HETATM   22  N   UNL     1     -42.557  58.895 -57.677  1.00  0.00    -0.277 N 
HETATM   23  H   UNL     1     -42.314  59.878 -57.730  1.00  0.00     0.189 HD
HETATM   24  C   UNL     1     -43.135  58.133 -58.655  1.00  0.00     0.063 A 
HETATM   25  C   UNL     1     -43.261  56.866 -58.104  1.00  0.00     0.029 A 
HETATM   26  C   UNL     1     -43.557  58.444 -59.951  1.00  0.00     0.032 A 
HETATM   27  C   UNL     1     -43.840  55.841 -58.877  1.00  0.00     0.023 A 
HETATM   28  C   UNL     1     -44.276  56.120 -60.185  1.00  0.00    -0.061 A 
HETATM   29  C   UNL     1     -44.135  57.412 -60.702  1.00  0.00     0.009 A 
HETATM   30  C   UNL     1     -44.922  55.030 -60.991  1.00  0.00     0.048 C 
ENDBRANCH  17  20
ENDBRANCH   1  16
TORSDOF 6
ENDMDL
