MODEL 1
REMARK VINA RESULT:      -9.1      0.000      0.000
REMARK  7 active torsions:
REMARK  status: ('A' for Active; 'I' for Inactive)
REMARK    1  A    between atoms: C_4  and  N_5 
REMARK    2  A    between atoms: C_6  and  S_7 
REMARK    3  A    between atoms: S_7  and  C_8 
REMARK    4  A    between atoms: C_8  and  C_9 
REMARK       I    between atoms: C_9  and  N_10 
REMARK    5  A    between atoms: C_12  and  C_13 
REMARK    6  A    between atoms: C_13  and  N_14 
REMARK       I    between atoms: N_14  and  C_15 
REMARK       I    between atoms: C_15  and  N_16 
REMARK    7  A    between atoms: N_16  and  C_17 
ROOT
HETATM    1  C   UNL     1     -41.121  58.350 -50.975  1.00  0.00     0.229 C 
HETATM    2  N   UNL     1     -41.773  57.106 -50.949  1.00  0.00    -0.351 N 
HETATM    3  C   UNL     1     -43.179  56.944 -51.307  1.00  0.00     0.132 C 
HETATM    4  C   UNL     1     -43.607  55.504 -51.620  1.00  0.00     0.021 C 
HETATM    5  C   UNL     1     -43.063  54.516 -50.581  1.00  0.00     0.009 C 
HETATM    6  C   UNL     1     -41.571  54.705 -50.345  1.00  0.00     0.020 C 
HETATM    7  C   UNL     1     -41.258  56.147 -49.969  1.00  0.00     0.126 C 
HETATM    8  O   UNL     1     -40.088  58.531 -50.317  1.00  0.00    -0.273 OA
ENDROOT
BRANCH   1   9
HETATM    9  C   UNL     1     -41.535  59.419 -51.980  1.00  0.00     0.185 C 
BRANCH   9  10
HETATM   10  S   UNL     1     -41.280  59.126 -53.740  1.00  0.00    -0.082 SA
BRANCH  10  11
HETATM   11  C   UNL     1     -42.392  60.196 -54.527  1.00  0.00     0.173 A 
HETATM   12  N   UNL     1     -42.846  60.040 -55.836  1.00  0.00    -0.300 N 
HETATM   13  C   UNL     1     -43.498  61.228 -56.126  1.00  0.00     0.118 A 
HETATM   14  C   UNL     1     -43.467  61.980 -54.978  1.00  0.00     0.137 A 
HETATM   15  N   UNL     1     -42.774  61.335 -53.998  1.00  0.00    -0.235 NA
BRANCH  12  16
HETATM   16  C   UNL     1     -42.732  58.938 -56.739  1.00  0.00     0.042 A 
HETATM   17  C   UNL     1     -42.998  57.625 -56.327  1.00  0.00     0.037 A 
HETATM   18  C   UNL     1     -42.887  56.551 -57.221  1.00  0.00    -0.059 A 
HETATM   19  C   UNL     1     -43.193  55.149 -56.778  1.00  0.00     0.048 C 
HETATM   20  C   UNL     1     -42.522  56.802 -58.548  1.00  0.00     0.013 A 
HETATM   21  C   UNL     1     -42.267  58.106 -58.985  1.00  0.00    -0.059 A 
HETATM   22  C   UNL     1     -42.385  59.171 -58.079  1.00  0.00     0.037 A 
HETATM   23  C   UNL     1     -41.875  58.347 -60.414  1.00  0.00     0.048 C 
ENDBRANCH  12  16
ENDBRANCH  10  11
ENDBRANCH   9  10
ENDBRANCH   1   9
BRANCH   4  24
HETATM   24  C   UNL     1     -43.213  55.150 -53.066  1.00  0.00     0.130 C 
BRANCH  24  25
HETATM   25  N   UNL     1     -42.115  54.203 -53.163  1.00  0.00    -0.342 N 
HETATM   26  C   UNL     1     -40.953  54.531 -53.795  1.00  0.00     0.320 C 
HETATM   27  N   UNL     1     -39.937  53.624 -53.754  1.00  0.00    -0.309 N 
HETATM   28  O   UNL     1     -40.767  55.614 -54.345  1.00  0.00    -0.247 OA
HETATM   29  H   UNL     1     -39.078  54.042 -54.089  1.00  0.00     0.170 HD
HETATM   30  H   UNL     1     -41.962  53.644 -52.335  1.00  0.00     0.164 HD
BRANCH  27  31
HETATM   31  C   UNL     1     -39.869  52.275 -53.362  1.00  0.00     0.039 A 
HETATM   32  C   UNL     1     -39.637  51.839 -52.058  1.00  0.00     0.071 A 
HETATM   33  C   UNL     1     -39.568  50.474 -51.786  1.00  0.00     0.118 A 
HETATM   34  F   UNL     1     -39.329  50.067 -50.532  1.00  0.00    -0.206 F 
HETATM   35  C   UNL     1     -39.746  49.526 -52.785  1.00  0.00     0.042 A 
HETATM   36  C   UNL     1     -40.018  49.949 -54.081  1.00  0.00     0.005 A 
HETATM   37  C   UNL     1     -40.088  51.317 -54.364  1.00  0.00     0.030 A 
ENDBRANCH  27  31
ENDBRANCH  24  25
ENDBRANCH   4  24
TORSDOF 7
ENDMDL
MODEL 2
REMARK VINA RESULT:      -9.1      1.996      2.477
REMARK  7 active torsions:
REMARK  status: ('A' for Active; 'I' for Inactive)
REMARK    1  A    between atoms: C_4  and  N_5 
REMARK    2  A    between atoms: C_6  and  S_7 
REMARK    3  A    between atoms: S_7  and  C_8 
REMARK    4  A    between atoms: C_8  and  C_9 
REMARK       I    between atoms: C_9  and  N_10 
REMARK    5  A    between atoms: C_12  and  C_13 
REMARK    6  A    between atoms: C_13  and  N_14 
REMARK       I    between atoms: N_14  and  C_15 
REMARK       I    between atoms: C_15  and  N_16 
REMARK    7  A    between atoms: N_16  and  C_17 
ROOT
HETATM    1  C   UNL     1     -41.356  58.813 -53.442  1.00  0.00     0.229 C 
HETATM    2  N   UNL     1     -41.815  57.628 -52.841  1.00  0.00    -0.351 N 
HETATM    3  C   UNL     1     -43.230  57.271 -52.782  1.00  0.00     0.132 C 
HETATM    4  C   UNL     1     -43.512  55.793 -52.476  1.00  0.00     0.021 C 
HETATM    5  C   UNL     1     -42.644  55.281 -51.321  1.00  0.00     0.009 C 
HETATM    6  C   UNL     1     -41.175  55.625 -51.520  1.00  0.00     0.020 C 
HETATM    7  C   UNL     1     -40.991  57.120 -51.743  1.00  0.00     0.126 C 
HETATM    8  O   UNL     1     -40.246  59.276 -53.146  1.00  0.00    -0.273 OA
ENDROOT
BRANCH   1   9
HETATM    9  C   UNL     1     -42.103  59.420 -54.624  1.00  0.00     0.185 C 
BRANCH   9  10
HETATM   10  S   UNL     1     -42.452  58.400 -56.069  1.00  0.00    -0.082 SA
BRANCH  10  11
HETATM   11  C   UNL     1     -42.196  59.453 -57.420  1.00  0.00     0.173 A 
HETATM   12  N   UNL     1     -42.727  59.250 -58.692  1.00  0.00    -0.300 N 
HETATM   13  C   UNL     1     -42.076  60.170 -59.497  1.00  0.00     0.118 A 
HETATM   14  C   UNL     1     -41.268  60.909 -58.670  1.00  0.00     0.137 A 
HETATM   15  N   UNL     1     -41.344  60.452 -57.389  1.00  0.00    -0.235 NA
BRANCH  12  16
HETATM   16  C   UNL     1     -43.731  58.341 -59.151  1.00  0.00     0.042 A 
HETATM   17  C   UNL     1     -43.511  56.957 -59.167  1.00  0.00     0.037 A 
HETATM   18  C   UNL     1     -44.503  56.073 -59.616  1.00  0.00    -0.059 A 
HETATM   19  C   UNL     1     -44.268  54.589 -59.611  1.00  0.00     0.048 C 
HETATM   20  C   UNL     1     -45.735  56.585 -60.035  1.00  0.00     0.013 A 
HETATM   21  C   UNL     1     -45.982  57.962 -60.014  1.00  0.00    -0.059 A 
HETATM   22  C   UNL     1     -44.981  58.833 -59.559  1.00  0.00     0.037 A 
HETATM   23  C   UNL     1     -47.312  58.485 -60.472  1.00  0.00     0.048 C 
ENDBRANCH  12  16
ENDBRANCH  10  11
ENDBRANCH   9  10
ENDBRANCH   1   9
BRANCH   4  24
HETATM   24  C   UNL     1     -43.370  54.961 -53.765  1.00  0.00     0.130 C 
BRANCH  24  25
HETATM   25  N   UNL     1     -42.254  54.032 -53.746  1.00  0.00    -0.342 N 
HETATM   26  C   UNL     1     -41.149  54.239 -54.516  1.00  0.00     0.320 C 
HETATM   27  N   UNL     1     -40.105  53.376 -54.364  1.00  0.00    -0.309 N 
HETATM   28  O   UNL     1     -41.033  55.187 -55.290  1.00  0.00    -0.247 OA
HETATM   29  H   UNL     1     -39.284  53.728 -54.841  1.00  0.00     0.170 HD
HETATM   30  H   UNL     1     -42.026  53.659 -52.834  1.00  0.00     0.164 HD
BRANCH  27  31
HETATM   31  C   UNL     1     -39.969  52.139 -53.710  1.00  0.00     0.039 A 
HETATM   32  C   UNL     1     -39.829  51.983 -52.331  1.00  0.00     0.071 A 
HETATM   33  C   UNL     1     -39.679  50.707 -51.790  1.00  0.00     0.118 A 
HETATM   34  F   UNL     1     -39.530  50.571 -50.466  1.00  0.00    -0.206 F 
HETATM   35  C   UNL     1     -39.687  49.574 -52.593  1.00  0.00     0.042 A 
HETATM   36  C   UNL     1     -39.867  49.716 -53.965  1.00  0.00     0.005 A 
HETATM   37  C   UNL     1     -40.016  50.992 -54.517  1.00  0.00     0.030 A 
ENDBRANCH  27  31
ENDBRANCH  24  25
ENDBRANCH   4  24
TORSDOF 7
ENDMDL
MODEL 3
REMARK VINA RESULT:      -9.1      2.932      7.506
REMARK  7 active torsions:
REMARK  status: ('A' for Active; 'I' for Inactive)
REMARK    1  A    between atoms: C_4  and  N_5 
REMARK    2  A    between atoms: C_6  and  S_7 
REMARK    3  A    between atoms: S_7  and  C_8 
REMARK    4  A    between atoms: C_8  and  C_9 
REMARK       I    between atoms: C_9  and  N_10 
REMARK    5  A    between atoms: C_12  and  C_13 
REMARK    6  A    between atoms: C_13  and  N_14 
REMARK       I    between atoms: N_14  and  C_15 
REMARK       I    between atoms: C_15  and  N_16 
REMARK    7  A    between atoms: N_16  and  C_17 
ROOT
HETATM    1  C   UNL     1     -41.309  59.061 -50.644  1.00  0.00     0.229 C 
HETATM    2  N   UNL     1     -41.982  59.891 -51.556  1.00  0.00    -0.351 N 
HETATM    3  C   UNL     1     -41.739  59.842 -52.996  1.00  0.00     0.132 C 
HETATM    4  C   UNL     1     -42.826  60.498 -53.858  1.00  0.00     0.021 C 
HETATM    5  C   UNL     1     -43.243  61.863 -53.297  1.00  0.00     0.009 C 
HETATM    6  C   UNL     1     -43.562  61.791 -51.811  1.00  0.00     0.020 C 
HETATM    7  C   UNL     1     -42.398  61.194 -51.032  1.00  0.00     0.126 C 
HETATM    8  O   UNL     1     -41.234  59.374 -49.448  1.00  0.00    -0.273 OA
ENDROOT
BRANCH   1   9
HETATM    9  C   UNL     1     -40.863  57.662 -51.056  1.00  0.00     0.185 C 
BRANCH   9  10
HETATM   10  S   UNL     1     -42.016  56.285 -50.905  1.00  0.00    -0.082 SA
BRANCH  10  11
HETATM   11  C   UNL     1     -41.166  55.104 -49.966  1.00  0.00     0.173 A 
HETATM   12  N   UNL     1     -40.685  53.895 -50.464  1.00  0.00    -0.300 N 
HETATM   13  C   UNL     1     -40.310  53.175 -49.341  1.00  0.00     0.118 A 
HETATM   14  C   UNL     1     -40.510  54.001 -48.264  1.00  0.00     0.137 A 
HETATM   15  N   UNL     1     -41.046  55.189 -48.660  1.00  0.00    -0.235 NA
BRANCH  12  16
HETATM   16  C   UNL     1     -40.549  53.426 -51.808  1.00  0.00     0.042 A 
HETATM   17  C   UNL     1     -40.819  54.259 -52.903  1.00  0.00     0.037 A 
HETATM   18  C   UNL     1     -40.680  53.791 -54.217  1.00  0.00    -0.059 A 
HETATM   19  C   UNL     1     -40.952  54.695 -55.386  1.00  0.00     0.048 C 
HETATM   20  C   UNL     1     -40.248  52.479 -54.433  1.00  0.00     0.013 A 
HETATM   21  C   UNL     1     -39.958  51.635 -53.356  1.00  0.00    -0.059 A 
HETATM   22  C   UNL     1     -40.099  52.118 -52.046  1.00  0.00     0.037 A 
HETATM   23  C   UNL     1     -39.498  50.230 -53.616  1.00  0.00     0.048 C 
ENDBRANCH  12  16
ENDBRANCH  10  11
ENDBRANCH   9  10
ENDBRANCH   1   9
BRANCH   4  24
HETATM   24  C   UNL     1     -44.004  59.523 -54.038  1.00  0.00     0.130 C 
BRANCH  24  25
HETATM   25  N   UNL     1     -43.942  58.743 -55.262  1.00  0.00    -0.342 N 
HETATM   26  C   UNL     1     -43.942  57.380 -55.232  1.00  0.00     0.320 C 
HETATM   27  N   UNL     1     -43.985  56.725 -56.426  1.00  0.00    -0.309 N 
HETATM   28  O   UNL     1     -43.961  56.728 -54.191  1.00  0.00    -0.247 OA
HETATM   29  H   UNL     1     -44.166  55.739 -56.281  1.00  0.00     0.170 HD
HETATM   30  H   UNL     1     -44.484  59.114 -56.030  1.00  0.00     0.164 HD
BRANCH  27  31
HETATM   31  C   UNL     1     -43.818  57.144 -57.758  1.00  0.00     0.039 A 
HETATM   32  C   UNL     1     -42.594  57.197 -58.424  1.00  0.00     0.071 A 
HETATM   33  C   UNL     1     -42.541  57.650 -59.741  1.00  0.00     0.118 A 
HETATM   34  F   UNL     1     -41.357  57.710 -60.366  1.00  0.00    -0.206 F 
HETATM   35  C   UNL     1     -43.689  58.033 -60.422  1.00  0.00     0.042 A 
HETATM   36  C   UNL     1     -44.919  57.946 -59.780  1.00  0.00     0.005 A 
HETATM   37  C   UNL     1     -44.982  57.495 -58.458  1.00  0.00     0.030 A 
ENDBRANCH  27  31
ENDBRANCH  24  25
ENDBRANCH   4  24
TORSDOF 7
ENDMDL
MODEL 4
REMARK VINA RESULT:      -8.9      3.912      8.193
REMARK  7 active torsions:
REMARK  status: ('A' for Active; 'I' for Inactive)
REMARK    1  A    between atoms: C_4  and  N_5 
REMARK    2  A    between atoms: C_6  and  S_7 
REMARK    3  A    between atoms: S_7  and  C_8 
REMARK    4  A    between atoms: C_8  and  C_9 
REMARK       I    between atoms: C_9  and  N_10 
REMARK    5  A    between atoms: C_12  and  C_13 
REMARK    6  A    between atoms: C_13  and  N_14 
REMARK       I    between atoms: N_14  and  C_15 
REMARK       I    between atoms: C_15  and  N_16 
REMARK    7  A    between atoms: N_16  and  C_17 
ROOT
HETATM    1  C   UNL     1     -43.994  57.560 -51.708  1.00  0.00     0.229 C 
HETATM    2  N   UNL     1     -43.973  58.147 -52.985  1.00  0.00    -0.351 N 
HETATM    3  C   UNL     1     -42.737  58.576 -53.635  1.00  0.00     0.132 C 
HETATM    4  C   UNL     1     -42.847  58.803 -55.149  1.00  0.00     0.021 C 
HETATM    5  C   UNL     1     -44.105  59.601 -55.509  1.00  0.00     0.009 C 
HETATM    6  C   UNL     1     -45.352  59.022 -54.856  1.00  0.00     0.020 C 
HETATM    7  C   UNL     1     -45.172  58.905 -53.348  1.00  0.00     0.126 C 
HETATM    8  O   UNL     1     -45.032  57.568 -51.032  1.00  0.00    -0.273 OA
ENDROOT
BRANCH   1   9
HETATM    9  C   UNL     1     -42.823  56.710 -51.229  1.00  0.00     0.185 C 
BRANCH   9  10
HETATM   10  S   UNL     1     -43.113  55.001 -50.737  1.00  0.00    -0.082 SA
BRANCH  10  11
HETATM   11  C   UNL     1     -41.661  54.528 -49.921  1.00  0.00     0.173 A 
HETATM   12  N   UNL     1     -40.689  53.686 -50.459  1.00  0.00    -0.300 N 
HETATM   13  C   UNL     1     -39.855  53.385 -49.394  1.00  0.00     0.118 A 
HETATM   14  C   UNL     1     -40.315  54.107 -48.322  1.00  0.00     0.137 A 
HETATM   15  N   UNL     1     -41.437  54.804 -48.656  1.00  0.00    -0.235 NA
BRANCH  12  16
HETATM   16  C   UNL     1     -40.503  53.208 -51.793  1.00  0.00     0.042 A 
HETATM   17  C   UNL     1     -40.643  54.057 -52.900  1.00  0.00     0.037 A 
HETATM   18  C   UNL     1     -40.455  53.580 -54.205  1.00  0.00    -0.059 A 
HETATM   19  C   UNL     1     -40.587  54.500 -55.385  1.00  0.00     0.048 C 
HETATM   20  C   UNL     1     -40.105  52.240 -54.398  1.00  0.00     0.013 A 
HETATM   21  C   UNL     1     -39.945  51.378 -53.307  1.00  0.00    -0.059 A 
HETATM   22  C   UNL     1     -40.134  51.871 -52.008  1.00  0.00     0.037 A 
HETATM   23  C   UNL     1     -39.571  49.944 -53.543  1.00  0.00     0.048 C 
ENDBRANCH  12  16
ENDBRANCH  10  11
ENDBRANCH   9  10
ENDBRANCH   1   9
BRANCH   4  24
HETATM   24  C   UNL     1     -42.748  57.452 -55.883  1.00  0.00     0.130 C 
BRANCH  24  25
HETATM   25  N   UNL     1     -43.357  57.452 -57.202  1.00  0.00    -0.342 N 
HETATM   26  C   UNL     1     -42.687  57.929 -58.289  1.00  0.00     0.320 C 
HETATM   27  N   UNL     1     -43.288  57.800 -59.505  1.00  0.00    -0.309 N 
HETATM   28  O   UNL     1     -41.558  58.411 -58.228  1.00  0.00    -0.247 OA
HETATM   29  H   UNL     1     -42.633  58.014 -60.247  1.00  0.00     0.170 HD
HETATM   30  H   UNL     1     -43.910  56.634 -57.416  1.00  0.00     0.164 HD
BRANCH  27  31
HETATM   31  C   UNL     1     -44.593  57.455 -59.900  1.00  0.00     0.039 A 
HETATM   32  C   UNL     1     -45.647  58.359 -60.030  1.00  0.00     0.071 A 
HETATM   33  C   UNL     1     -46.908  57.903 -60.408  1.00  0.00     0.118 A 
HETATM   34  F   UNL     1     -47.916  58.779 -60.515  1.00  0.00    -0.206 F 
HETATM   35  C   UNL     1     -47.141  56.562 -60.681  1.00  0.00     0.042 A 
HETATM   36  C   UNL     1     -46.088  55.658 -60.594  1.00  0.00     0.005 A 
HETATM   37  C   UNL     1     -44.819  56.106 -60.214  1.00  0.00     0.030 A 
ENDBRANCH  27  31
ENDBRANCH  24  25
ENDBRANCH   4  24
TORSDOF 7
ENDMDL
MODEL 5
REMARK VINA RESULT:      -8.6      4.035      8.451
REMARK  7 active torsions:
REMARK  status: ('A' for Active; 'I' for Inactive)
REMARK    1  A    between atoms: C_4  and  N_5 
REMARK    2  A    between atoms: C_6  and  S_7 
REMARK    3  A    between atoms: S_7  and  C_8 
REMARK    4  A    between atoms: C_8  and  C_9 
REMARK       I    between atoms: C_9  and  N_10 
REMARK    5  A    between atoms: C_12  and  C_13 
REMARK    6  A    between atoms: C_13  and  N_14 
REMARK       I    between atoms: N_14  and  C_15 
REMARK       I    between atoms: C_15  and  N_16 
REMARK    7  A    between atoms: N_16  and  C_17 
ROOT
HETATM    1  C   UNL     1     -43.956  57.498 -51.675  1.00  0.00     0.229 C 
HETATM    2  N   UNL     1     -43.892  58.273 -52.845  1.00  0.00    -0.351 N 
HETATM    3  C   UNL     1     -42.637  58.805 -53.371  1.00  0.00     0.132 C 
HETATM    4  C   UNL     1     -42.690  59.259 -54.836  1.00  0.00     0.021 C 
HETATM    5  C   UNL     1     -43.943  60.094 -55.123  1.00  0.00     0.009 C 
HETATM    6  C   UNL     1     -45.207  59.413 -54.618  1.00  0.00     0.020 C 
HETATM    7  C   UNL     1     -45.085  59.068 -53.139  1.00  0.00     0.126 C 
HETATM    8  O   UNL     1     -45.020  57.395 -51.049  1.00  0.00    -0.273 OA
ENDROOT
BRANCH   1   9
HETATM    9  C   UNL     1     -42.794  56.594 -51.282  1.00  0.00     0.185 C 
BRANCH   9  10
HETATM   10  S   UNL     1     -43.134  54.954 -50.616  1.00  0.00    -0.082 SA
BRANCH  10  11
HETATM   11  C   UNL     1     -41.665  54.489 -49.825  1.00  0.00     0.173 A 
HETATM   12  N   UNL     1     -40.683  53.680 -50.394  1.00  0.00    -0.300 N 
HETATM   13  C   UNL     1     -39.832  53.369 -49.345  1.00  0.00     0.118 A 
HETATM   14  C   UNL     1     -40.296  54.054 -48.250  1.00  0.00     0.137 A 
HETATM   15  N   UNL     1     -41.434  54.738 -48.556  1.00  0.00    -0.235 NA
BRANCH  12  16
HETATM   16  C   UNL     1     -40.500  53.240 -51.742  1.00  0.00     0.042 A 
HETATM   17  C   UNL     1     -40.618  54.126 -52.822  1.00  0.00     0.037 A 
HETATM   18  C   UNL     1     -40.434  53.685 -54.140  1.00  0.00    -0.059 A 
HETATM   19  C   UNL     1     -40.541  54.643 -55.292  1.00  0.00     0.048 C 
HETATM   20  C   UNL     1     -40.111  52.345 -54.373  1.00  0.00     0.013 A 
HETATM   21  C   UNL     1     -39.973  51.446 -53.309  1.00  0.00    -0.059 A 
HETATM   22  C   UNL     1     -40.158  51.903 -51.996  1.00  0.00     0.037 A 
HETATM   23  C   UNL     1     -39.628  50.012 -53.588  1.00  0.00     0.048 C 
ENDBRANCH  12  16
ENDBRANCH  10  11
ENDBRANCH   9  10
ENDBRANCH   1   9
BRANCH   4  24
HETATM   24  C   UNL     1     -42.543  58.036 -55.762  1.00  0.00     0.130 C 
BRANCH  24  25
HETATM   25  N   UNL     1     -43.566  57.950 -56.790  1.00  0.00    -0.342 N 
HETATM   26  C   UNL     1     -43.724  56.821 -57.537  1.00  0.00     0.320 C 
HETATM   27  N   UNL     1     -44.770  56.785 -58.409  1.00  0.00    -0.309 N 
HETATM   28  O   UNL     1     -43.008  55.829 -57.420  1.00  0.00    -0.247 OA
HETATM   29  H   UNL     1     -44.898  55.846 -58.768  1.00  0.00     0.170 HD
HETATM   30  H   UNL     1     -44.447  58.383 -56.551  1.00  0.00     0.164 HD
BRANCH  27  31
HETATM   31  C   UNL     1     -45.653  57.767 -58.891  1.00  0.00     0.039 A 
HETATM   32  C   UNL     1     -45.570  58.359 -60.151  1.00  0.00     0.071 A 
HETATM   33  C   UNL     1     -46.489  59.340 -60.518  1.00  0.00     0.118 A 
HETATM   34  F   UNL     1     -46.389  59.912 -61.726  1.00  0.00    -0.206 F 
HETATM   35  C   UNL     1     -47.508  59.735 -59.662  1.00  0.00     0.042 A 
HETATM   36  C   UNL     1     -47.625  59.123 -58.418  1.00  0.00     0.005 A 
HETATM   37  C   UNL     1     -46.707  58.138 -58.041  1.00  0.00     0.030 A 
ENDBRANCH  27  31
ENDBRANCH  24  25
ENDBRANCH   4  24
TORSDOF 7
ENDMDL
MODEL 6
REMARK VINA RESULT:      -8.5      3.651      5.414
REMARK  7 active torsions:
REMARK  status: ('A' for Active; 'I' for Inactive)
REMARK    1  A    between atoms: C_4  and  N_5 
REMARK    2  A    between atoms: C_6  and  S_7 
REMARK    3  A    between atoms: S_7  and  C_8 
REMARK    4  A    between atoms: C_8  and  C_9 
REMARK       I    between atoms: C_9  and  N_10 
REMARK    5  A    between atoms: C_12  and  C_13 
REMARK    6  A    between atoms: C_13  and  N_14 
REMARK       I    between atoms: N_14  and  C_15 
REMARK       I    between atoms: C_15  and  N_16 
REMARK    7  A    between atoms: N_16  and  C_17 
ROOT
HETATM    1  C   UNL     1     -43.154  58.396 -57.281  1.00  0.00     0.229 C 
HETATM    2  N   UNL     1     -43.234  57.318 -56.382  1.00  0.00    -0.351 N 
HETATM    3  C   UNL     1     -43.075  55.928 -56.802  1.00  0.00     0.132 C 
HETATM    4  C   UNL     1     -42.781  54.938 -55.666  1.00  0.00     0.021 C 
HETATM    5  C   UNL     1     -43.701  55.173 -54.463  1.00  0.00     0.009 C 
HETATM    6  C   UNL     1     -43.728  56.636 -54.046  1.00  0.00     0.020 C 
HETATM    7  C   UNL     1     -44.100  57.531 -55.221  1.00  0.00     0.126 C 
HETATM    8  O   UNL     1     -43.663  59.488 -56.996  1.00  0.00    -0.273 OA
ENDROOT
BRANCH   1   9
HETATM    9  C   UNL     1     -42.252  58.315 -58.507  1.00  0.00     0.185 C 
BRANCH   9  10
HETATM   10  S   UNL     1     -42.984  58.387 -60.152  1.00  0.00    -0.082 SA
BRANCH  10  11
HETATM   11  C   UNL     1     -43.946  56.952 -60.266  1.00  0.00     0.173 A 
HETATM   12  N   UNL     1     -45.330  56.915 -60.108  1.00  0.00    -0.300 N 
HETATM   13  C   UNL     1     -45.639  55.566 -60.029  1.00  0.00     0.118 A 
HETATM   14  C   UNL     1     -44.463  54.885 -60.218  1.00  0.00     0.137 A 
HETATM   15  N   UNL     1     -43.421  55.752 -60.356  1.00  0.00    -0.235 NA
BRANCH  12  16
HETATM   16  C   UNL     1     -46.293  57.970 -60.052  1.00  0.00     0.042 A 
HETATM   17  C   UNL     1     -47.129  58.255 -61.140  1.00  0.00     0.037 A 
HETATM   18  C   UNL     1     -48.073  59.290 -61.074  1.00  0.00    -0.059 A 
HETATM   19  C   UNL     1     -48.979  59.577 -62.238  1.00  0.00     0.048 C 
HETATM   20  C   UNL     1     -48.190  60.033 -59.896  1.00  0.00     0.013 A 
HETATM   21  C   UNL     1     -47.376  59.756 -58.791  1.00  0.00    -0.059 A 
HETATM   22  C   UNL     1     -46.439  58.716 -58.872  1.00  0.00     0.037 A 
HETATM   23  C   UNL     1     -47.522  60.572 -57.539  1.00  0.00     0.048 C 
ENDBRANCH  12  16
ENDBRANCH  10  11
ENDBRANCH   9  10
ENDBRANCH   1   9
BRANCH   4  24
HETATM   24  C   UNL     1     -41.283  54.987 -55.311  1.00  0.00     0.130 C 
BRANCH  24  25
HETATM   25  N   UNL     1     -40.881  54.006 -54.319  1.00  0.00    -0.342 N 
HETATM   26  C   UNL     1     -40.629  54.368 -53.029  1.00  0.00     0.320 C 
HETATM   27  N   UNL     1     -40.356  53.374 -52.139  1.00  0.00    -0.309 N 
HETATM   28  O   UNL     1     -40.691  55.529 -52.630  1.00  0.00    -0.247 OA
HETATM   29  H   UNL     1     -40.369  53.734 -51.192  1.00  0.00     0.170 HD
HETATM   30  H   UNL     1     -41.352  53.115 -54.386  1.00  0.00     0.164 HD
BRANCH  27  31
HETATM   31  C   UNL     1     -40.060  52.007 -52.286  1.00  0.00     0.039 A 
HETATM   32  C   UNL     1     -39.911  51.356 -53.511  1.00  0.00     0.071 A 
HETATM   33  C   UNL     1     -39.638  49.990 -53.540  1.00  0.00     0.118 A 
HETATM   34  F   UNL     1     -39.512  49.372 -54.722  1.00  0.00    -0.206 F 
HETATM   35  C   UNL     1     -39.488  49.256 -52.371  1.00  0.00     0.042 A 
HETATM   36  C   UNL     1     -39.595  49.903 -51.144  1.00  0.00     0.005 A 
HETATM   37  C   UNL     1     -39.870  51.273 -51.105  1.00  0.00     0.030 A 
ENDBRANCH  27  31
ENDBRANCH  24  25
ENDBRANCH   4  24
TORSDOF 7
ENDMDL
MODEL 7
REMARK VINA RESULT:      -8.4      3.671      8.367
REMARK  7 active torsions:
REMARK  status: ('A' for Active; 'I' for Inactive)
REMARK    1  A    between atoms: C_4  and  N_5 
REMARK    2  A    between atoms: C_6  and  S_7 
REMARK    3  A    between atoms: S_7  and  C_8 
REMARK    4  A    between atoms: C_8  and  C_9 
REMARK       I    between atoms: C_9  and  N_10 
REMARK    5  A    between atoms: C_12  and  C_13 
REMARK    6  A    between atoms: C_13  and  N_14 
REMARK       I    between atoms: N_14  and  C_15 
REMARK       I    between atoms: C_15  and  N_16 
REMARK    7  A    between atoms: N_16  and  C_17 
ROOT
HETATM    1  C   UNL     1     -43.885  57.613 -51.614  1.00  0.00     0.229 C 
HETATM    2  N   UNL     1     -43.975  58.329 -52.819  1.00  0.00    -0.351 N 
HETATM    3  C   UNL     1     -42.801  58.710 -53.600  1.00  0.00     0.132 C 
HETATM    4  C   UNL     1     -43.091  59.107 -55.054  1.00  0.00     0.021 C 
HETATM    5  C   UNL     1     -44.294  60.053 -55.150  1.00  0.00     0.009 C 
HETATM    6  C   UNL     1     -45.495  59.524 -54.379  1.00  0.00     0.020 C 
HETATM    7  C   UNL     1     -45.125  59.229 -52.931  1.00  0.00     0.126 C 
HETATM    8  O   UNL     1     -44.815  57.643 -50.796  1.00  0.00    -0.273 OA
ENDROOT
BRANCH   1   9
HETATM    9  C   UNL     1     -42.758  56.611 -51.392  1.00  0.00     0.185 C 
BRANCH   9  10
HETATM   10  S   UNL     1     -43.136  54.989 -50.703  1.00  0.00    -0.082 SA
BRANCH  10  11
HETATM   11  C   UNL     1     -41.679  54.503 -49.903  1.00  0.00     0.173 A 
HETATM   12  N   UNL     1     -40.693  53.702 -50.476  1.00  0.00    -0.300 N 
HETATM   13  C   UNL     1     -39.857  53.366 -49.423  1.00  0.00     0.118 A 
HETATM   14  C   UNL     1     -40.332  54.031 -48.320  1.00  0.00     0.137 A 
HETATM   15  N   UNL     1     -41.463  54.725 -48.627  1.00  0.00    -0.235 NA
BRANCH  12  16
HETATM   16  C   UNL     1     -40.496  53.287 -51.830  1.00  0.00     0.042 A 
HETATM   17  C   UNL     1     -40.153  51.965 -52.147  1.00  0.00     0.037 A 
HETATM   18  C   UNL     1     -39.964  51.568 -53.478  1.00  0.00    -0.059 A 
HETATM   19  C   UNL     1     -39.616  50.145 -53.812  1.00  0.00     0.048 C 
HETATM   20  C   UNL     1     -40.140  52.504 -54.502  1.00  0.00     0.013 A 
HETATM   21  C   UNL     1     -40.497  53.825 -54.209  1.00  0.00    -0.059 A 
HETATM   22  C   UNL     1     -40.685  54.207 -52.873  1.00  0.00     0.037 A 
HETATM   23  C   UNL     1     -40.677  54.810 -55.328  1.00  0.00     0.048 C 
ENDBRANCH  12  16
ENDBRANCH  10  11
ENDBRANCH   9  10
ENDBRANCH   1   9
BRANCH   4  24
HETATM   24  C   UNL     1     -43.237  57.840 -55.918  1.00  0.00     0.130 C 
BRANCH  24  25
HETATM   25  N   UNL     1     -43.195  58.094 -57.347  1.00  0.00    -0.342 N 
HETATM   26  C   UNL     1     -42.974  57.085 -58.237  1.00  0.00     0.320 C 
HETATM   27  N   UNL     1     -43.050  57.389 -59.563  1.00  0.00    -0.309 N 
HETATM   28  O   UNL     1     -42.768  55.921 -57.901  1.00  0.00    -0.247 OA
HETATM   29  H   UNL     1     -43.054  56.543 -60.120  1.00  0.00     0.170 HD
HETATM   30  H   UNL     1     -43.874  58.763 -57.681  1.00  0.00     0.164 HD
BRANCH  27  31
HETATM   31  C   UNL     1     -43.107  58.604 -60.269  1.00  0.00     0.039 A 
HETATM   32  C   UNL     1     -41.993  59.340 -60.672  1.00  0.00     0.071 A 
HETATM   33  C   UNL     1     -42.167  60.545 -61.349  1.00  0.00     0.118 A 
HETATM   34  F   UNL     1     -41.089  61.250 -61.719  1.00  0.00    -0.206 F 
HETATM   35  C   UNL     1     -43.432  61.029 -61.654  1.00  0.00     0.042 A 
HETATM   36  C   UNL     1     -44.549  60.284 -61.292  1.00  0.00     0.005 A 
HETATM   37  C   UNL     1     -44.385  59.073 -60.611  1.00  0.00     0.030 A 
ENDBRANCH  27  31
ENDBRANCH  24  25
ENDBRANCH   4  24
TORSDOF 7
ENDMDL
MODEL 8
REMARK VINA RESULT:      -8.4      1.933      3.058
REMARK  7 active torsions:
REMARK  status: ('A' for Active; 'I' for Inactive)
REMARK    1  A    between atoms: C_4  and  N_5 
REMARK    2  A    between atoms: C_6  and  S_7 
REMARK    3  A    between atoms: S_7  and  C_8 
REMARK    4  A    between atoms: C_8  and  C_9 
REMARK       I    between atoms: C_9  and  N_10 
REMARK    5  A    between atoms: C_12  and  C_13 
REMARK    6  A    between atoms: C_13  and  N_14 
REMARK       I    between atoms: N_14  and  C_15 
REMARK       I    between atoms: C_15  and  N_16 
REMARK    7  A    between atoms: N_16  and  C_17 
ROOT
HETATM    1  C   UNL     1     -41.071  58.517 -51.438  1.00  0.00     0.229 C 
HETATM    2  N   UNL     1     -41.642  57.252 -51.221  1.00  0.00    -0.351 N 
HETATM    3  C   UNL     1     -43.074  56.999 -51.361  1.00  0.00     0.132 C 
HETATM    4  C   UNL     1     -43.460  55.520 -51.495  1.00  0.00     0.021 C 
HETATM    5  C   UNL     1     -42.724  54.650 -50.470  1.00  0.00     0.009 C 
HETATM    6  C   UNL     1     -41.227  54.923 -50.465  1.00  0.00     0.020 C 
HETATM    7  C   UNL     1     -40.944  56.404 -50.253  1.00  0.00     0.126 C 
HETATM    8  O   UNL     1     -39.968  58.798 -50.951  1.00  0.00    -0.273 OA
ENDROOT
BRANCH   1   9
HETATM    9  C   UNL     1     -41.679  59.476 -52.455  1.00  0.00     0.185 C 
BRANCH   9  10
HETATM   10  S   UNL     1     -42.523  60.960 -51.878  1.00  0.00    -0.082 SA
BRANCH  10  11
HETATM   11  C   UNL     1     -44.076  60.404 -51.351  1.00  0.00     0.173 A 
HETATM   12  N   UNL     1     -45.135  60.095 -52.202  1.00  0.00    -0.300 N 
HETATM   13  C   UNL     1     -46.228  59.942 -51.364  1.00  0.00     0.118 A 
HETATM   14  C   UNL     1     -45.760  60.087 -50.082  1.00  0.00     0.137 A 
HETATM   15  N   UNL     1     -44.429  60.380 -50.086  1.00  0.00    -0.235 NA
BRANCH  12  16
HETATM   16  C   UNL     1     -45.175  59.929 -53.622  1.00  0.00     0.042 A 
HETATM   17  C   UNL     1     -45.673  60.936 -54.461  1.00  0.00     0.037 A 
HETATM   18  C   UNL     1     -45.705  60.765 -55.852  1.00  0.00    -0.059 A 
HETATM   19  C   UNL     1     -46.222  61.856 -56.747  1.00  0.00     0.048 C 
HETATM   20  C   UNL     1     -45.215  59.579 -56.407  1.00  0.00     0.013 A 
HETATM   21  C   UNL     1     -44.699  58.567 -55.589  1.00  0.00    -0.059 A 
HETATM   22  C   UNL     1     -44.671  58.753 -54.199  1.00  0.00     0.037 A 
HETATM   23  C   UNL     1     -44.181  57.303 -56.211  1.00  0.00     0.048 C 
ENDBRANCH  12  16
ENDBRANCH  10  11
ENDBRANCH   9  10
ENDBRANCH   1   9
BRANCH   4  24
HETATM   24  C   UNL     1     -43.252  55.060 -52.951  1.00  0.00     0.130 C 
BRANCH  24  25
HETATM   25  N   UNL     1     -42.164  54.113 -53.119  1.00  0.00    -0.342 N 
HETATM   26  C   UNL     1     -41.098  54.396 -53.920  1.00  0.00     0.320 C 
HETATM   27  N   UNL     1     -40.073  53.498 -53.944  1.00  0.00    -0.309 N 
HETATM   28  O   UNL     1     -40.998  55.435 -54.568  1.00  0.00    -0.247 OA
HETATM   29  H   UNL     1     -39.270  53.892 -54.418  1.00  0.00     0.170 HD
HETATM   30  H   UNL     1     -41.897  53.618 -52.279  1.00  0.00     0.164 HD
BRANCH  27  31
HETATM   31  C   UNL     1     -39.937  52.182 -53.466  1.00  0.00     0.039 A 
HETATM   32  C   UNL     1     -39.748  51.841 -52.127  1.00  0.00     0.071 A 
HETATM   33  C   UNL     1     -39.603  50.502 -51.767  1.00  0.00     0.118 A 
HETATM   34  F   UNL     1     -39.407  50.188 -50.480  1.00  0.00    -0.206 F 
HETATM   35  C   UNL     1     -39.665  49.487 -52.713  1.00  0.00     0.042 A 
HETATM   36  C   UNL     1     -39.894  49.814 -54.045  1.00  0.00     0.005 A 
HETATM   37  C   UNL     1     -40.038  51.154 -54.416  1.00  0.00     0.030 A 
ENDBRANCH  27  31
ENDBRANCH  24  25
ENDBRANCH   4  24
TORSDOF 7
ENDMDL
MODEL 9
REMARK VINA RESULT:      -8.3      2.539      4.297
REMARK  7 active torsions:
REMARK  status: ('A' for Active; 'I' for Inactive)
REMARK    1  A    between atoms: C_4  and  N_5 
REMARK    2  A    between atoms: C_6  and  S_7 
REMARK    3  A    between atoms: S_7  and  C_8 
REMARK    4  A    between atoms: C_8  and  C_9 
REMARK       I    between atoms: C_9  and  N_10 
REMARK    5  A    between atoms: C_12  and  C_13 
REMARK    6  A    between atoms: C_13  and  N_14 
REMARK       I    between atoms: N_14  and  C_15 
REMARK       I    between atoms: C_15  and  N_16 
REMARK    7  A    between atoms: N_16  and  C_17 
ROOT
HETATM    1  C   UNL     1     -42.191  60.224 -55.176  1.00  0.00     0.229 C 
HETATM    2  N   UNL     1     -41.982  59.786 -53.857  1.00  0.00    -0.351 N 
HETATM    3  C   UNL     1     -42.532  60.485 -52.698  1.00  0.00     0.132 C 
HETATM    4  C   UNL     1     -42.562  59.664 -51.401  1.00  0.00     0.021 C 
HETATM    5  C   UNL     1     -41.238  58.926 -51.171  1.00  0.00     0.009 C 
HETATM    6  C   UNL     1     -40.796  58.156 -52.407  1.00  0.00     0.020 C 
HETATM    7  C   UNL     1     -40.727  59.070 -53.623  1.00  0.00     0.126 C 
HETATM    8  O   UNL     1     -41.424  59.871 -56.082  1.00  0.00    -0.273 OA
ENDROOT
BRANCH   1   9
HETATM    9  C   UNL     1     -43.478  60.944 -55.557  1.00  0.00     0.185 C 
BRANCH   9  10
HETATM   10  S   UNL     1     -44.528  60.257 -56.851  1.00  0.00    -0.082 SA
BRANCH  10  11
HETATM   11  C   UNL     1     -43.609  60.445 -58.306  1.00  0.00     0.173 A 
HETATM   12  N   UNL     1     -43.089  59.390 -59.054  1.00  0.00    -0.300 N 
HETATM   13  C   UNL     1     -42.235  59.991 -59.965  1.00  0.00     0.118 A 
HETATM   14  C   UNL     1     -42.346  61.345 -59.769  1.00  0.00     0.137 A 
HETATM   15  N   UNL     1     -43.193  61.614 -58.736  1.00  0.00    -0.235 NA
BRANCH  12  16
HETATM   16  C   UNL     1     -43.339  57.984 -58.984  1.00  0.00     0.042 A 
HETATM   17  C   UNL     1     -43.992  57.305 -60.023  1.00  0.00     0.037 A 
HETATM   18  C   UNL     1     -44.229  55.926 -59.947  1.00  0.00    -0.059 A 
HETATM   19  C   UNL     1     -44.911  55.202 -61.072  1.00  0.00     0.048 C 
HETATM   20  C   UNL     1     -43.789  55.218 -58.824  1.00  0.00     0.013 A 
HETATM   21  C   UNL     1     -43.121  55.872 -57.782  1.00  0.00    -0.059 A 
HETATM   22  C   UNL     1     -42.889  57.252 -57.874  1.00  0.00     0.037 A 
HETATM   23  C   UNL     1     -42.662  55.087 -56.588  1.00  0.00     0.048 C 
ENDBRANCH  12  16
ENDBRANCH  10  11
ENDBRANCH   9  10
ENDBRANCH   1   9
BRANCH   4  24
HETATM   24  C   UNL     1     -43.789  58.734 -51.405  1.00  0.00     0.130 C 
BRANCH  24  25
HETATM   25  N   UNL     1     -43.457  57.321 -51.467  1.00  0.00    -0.342 N 
HETATM   26  C   UNL     1     -44.270  56.379 -50.910  1.00  0.00     0.320 C 
HETATM   27  N   UNL     1     -43.939  55.071 -51.099  1.00  0.00    -0.309 N 
HETATM   28  O   UNL     1     -45.302  56.653 -50.302  1.00  0.00    -0.247 OA
HETATM   29  H   UNL     1     -44.699  54.469 -50.807  1.00  0.00     0.170 HD
HETATM   30  H   UNL     1     -43.054  57.017 -52.342  1.00  0.00     0.164 HD
BRANCH  27  31
HETATM   31  C   UNL     1     -42.785  54.433 -51.590  1.00  0.00     0.039 A 
HETATM   32  C   UNL     1     -42.616  54.005 -52.906  1.00  0.00     0.071 A 
HETATM   33  C   UNL     1     -41.436  53.363 -53.279  1.00  0.00     0.118 A 
HETATM   34  F   UNL     1     -41.291  52.942 -54.543  1.00  0.00    -0.206 F 
HETATM   35  C   UNL     1     -40.407  53.154 -52.371  1.00  0.00     0.042 A 
HETATM   36  C   UNL     1     -40.549  53.613 -51.066  1.00  0.00     0.005 A 
HETATM   37  C   UNL     1     -41.729  54.258 -50.682  1.00  0.00     0.030 A 
ENDBRANCH  27  31
ENDBRANCH  24  25
ENDBRANCH   4  24
TORSDOF 7
ENDMDL
MODEL 10
REMARK VINA RESULT:      -8.3      3.701      8.548
REMARK  7 active torsions:
REMARK  status: ('A' for Active; 'I' for Inactive)
REMARK    1  A    between atoms: C_4  and  N_5 
REMARK    2  A    between atoms: C_6  and  S_7 
REMARK    3  A    between atoms: S_7  and  C_8 
REMARK    4  A    between atoms: C_8  and  C_9 
REMARK       I    between atoms: C_9  and  N_10 
REMARK    5  A    between atoms: C_12  and  C_13 
REMARK    6  A    between atoms: C_13  and  N_14 
REMARK       I    between atoms: N_14  and  C_15 
REMARK       I    between atoms: C_15  and  N_16 
REMARK    7  A    between atoms: N_16  and  C_17 
ROOT
HETATM    1  C   UNL     1     -43.909  57.426 -51.742  1.00  0.00     0.229 C 
HETATM    2  N   UNL     1     -44.025  58.229 -52.889  1.00  0.00    -0.351 N 
HETATM    3  C   UNL     1     -42.886  58.551 -53.744  1.00  0.00     0.132 C 
HETATM    4  C   UNL     1     -43.252  59.072 -55.141  1.00  0.00     0.021 C 
HETATM    5  C   UNL     1     -44.360  60.130 -55.075  1.00  0.00     0.009 C 
HETATM    6  C   UNL     1     -45.541  59.663 -54.236  1.00  0.00     0.020 C 
HETATM    7  C   UNL     1     -45.087  59.236 -52.847  1.00  0.00     0.126 C 
HETATM    8  O   UNL     1     -44.763  57.486 -50.846  1.00  0.00    -0.273 OA
ENDROOT
BRANCH   1   9
HETATM    9  C   UNL     1     -42.871  56.312 -51.679  1.00  0.00     0.185 C 
BRANCH   9  10
HETATM   10  S   UNL     1     -43.214  54.835 -50.704  1.00  0.00    -0.082 SA
BRANCH  10  11
HETATM   11  C   UNL     1     -41.711  54.463 -49.930  1.00  0.00     0.173 A 
HETATM   12  N   UNL     1     -40.703  53.684 -50.495  1.00  0.00    -0.300 N 
HETATM   13  C   UNL     1     -39.818  53.444 -49.455  1.00  0.00     0.118 A 
HETATM   14  C   UNL     1     -40.293  54.139 -48.371  1.00  0.00     0.137 A 
HETATM   15  N   UNL     1     -41.467  54.759 -48.674  1.00  0.00    -0.235 NA
BRANCH  12  16
HETATM   16  C   UNL     1     -40.525  53.213 -51.833  1.00  0.00     0.042 A 
HETATM   17  C   UNL     1     -40.662  54.070 -52.934  1.00  0.00     0.037 A 
HETATM   18  C   UNL     1     -40.483  53.598 -54.242  1.00  0.00    -0.059 A 
HETATM   19  C   UNL     1     -40.611  54.527 -55.416  1.00  0.00     0.048 C 
HETATM   20  C   UNL     1     -40.145  52.257 -54.445  1.00  0.00     0.013 A 
HETATM   21  C   UNL     1     -39.989  51.387 -53.360  1.00  0.00    -0.059 A 
HETATM   22  C   UNL     1     -40.169  51.873 -52.057  1.00  0.00     0.037 A 
HETATM   23  C   UNL     1     -39.629  49.950 -53.606  1.00  0.00     0.048 C 
ENDBRANCH  12  16
ENDBRANCH  10  11
ENDBRANCH   9  10
ENDBRANCH   1   9
BRANCH   4  24
HETATM   24  C   UNL     1     -43.591  57.886 -56.064  1.00  0.00     0.130 C 
BRANCH  24  25
HETATM   25  N   UNL     1     -43.438  58.178 -57.478  1.00  0.00    -0.342 N 
HETATM   26  C   UNL     1     -43.201  57.187 -58.383  1.00  0.00     0.320 C 
HETATM   27  N   UNL     1     -43.172  57.531 -59.700  1.00  0.00    -0.309 N 
HETATM   28  O   UNL     1     -43.070  56.005 -58.070  1.00  0.00    -0.247 OA
HETATM   29  H   UNL     1     -43.174  56.702 -60.282  1.00  0.00     0.170 HD
HETATM   30  H   UNL     1     -44.062  58.888 -57.836  1.00  0.00     0.164 HD
BRANCH  27  31
HETATM   31  C   UNL     1     -43.127  58.768 -60.369  1.00  0.00     0.039 A 
HETATM   32  C   UNL     1     -41.958  59.478 -60.644  1.00  0.00     0.071 A 
HETATM   33  C   UNL     1     -42.032  60.708 -61.295  1.00  0.00     0.118 A 
HETATM   34  F   UNL     1     -40.904  61.388 -61.540  1.00  0.00    -0.206 F 
HETATM   35  C   UNL     1     -43.248  61.240 -61.702  1.00  0.00     0.042 A 
HETATM   36  C   UNL     1     -44.416  60.521 -61.469  1.00  0.00     0.005 A 
HETATM   37  C   UNL     1     -44.352  59.287 -60.815  1.00  0.00     0.030 A 
ENDBRANCH  27  31
ENDBRANCH  24  25
ENDBRANCH   4  24
TORSDOF 7
ENDMDL
