MODEL 1
REMARK VINA RESULT:      -8.3      0.000      0.000
REMARK  6 active torsions:
REMARK  status: ('A' for Active; 'I' for Inactive)
REMARK    1  A    between atoms: C_6  and  C_7 
REMARK    2  A    between atoms: N_8  and  N_9 
REMARK       I    between atoms: N_9  and  C_10 
REMARK    3  A    between atoms: C_10  and  C_11 
REMARK    4  A    between atoms: C_14  and  O_15 
REMARK    5  A    between atoms: O_15  and  C_16 
REMARK    6  A    between atoms: C_16  and  C_17 
ROOT
HETATM    1  C   UNL     1     -41.240  57.887 -53.141  1.00  0.00     0.244 C 
HETATM    2  N   UNL     1     -42.448  58.044 -53.944  1.00  0.00    -0.225 N 
HETATM    3  C   UNL     1     -43.622  58.566 -53.432  1.00  0.00     0.276 C 
HETATM    4  O   UNL     1     -44.707  58.458 -54.002  1.00  0.00    -0.266 OA
HETATM    5  C   UNL     1     -43.482  59.317 -52.167  1.00  0.00     0.060 A 
HETATM    6  C   UNL     1     -42.182  59.625 -51.738  1.00  0.00     0.045 A 
HETATM    7  N   UNL     1     -41.069  59.191 -52.473  1.00  0.00    -0.362 N 
HETATM    8  C   UNL     1     -44.607  59.776 -51.475  1.00  0.00     0.019 A 
HETATM    9  C   UNL     1     -44.435  60.566 -50.341  1.00  0.00     0.001 A 
HETATM   10  C   UNL     1     -43.148  60.914 -49.923  1.00  0.00     0.002 A 
HETATM   11  C   UNL     1     -42.028  60.458 -50.628  1.00  0.00     0.030 A 
HETATM   12  H   UNL     1     -40.170  59.316 -52.034  1.00  0.00     0.162 HD
ENDROOT
BRANCH   2  13
HETATM   13  N   UNL     1     -42.503  57.509 -55.251  1.00  0.00    -0.258 N 
HETATM   14  C   UNL     1     -42.286  58.295 -56.366  1.00  0.00     0.270 C 
HETATM   15  O   UNL     1     -41.750  59.396 -56.380  1.00  0.00    -0.266 OA
HETATM   16  H   UNL     1     -43.087  56.678 -55.318  1.00  0.00     0.190 HD
BRANCH  14  17
HETATM   17  C   UNL     1     -42.691  57.660 -57.643  1.00  0.00     0.033 A 
HETATM   18  C   UNL     1     -42.723  58.389 -58.837  1.00  0.00     0.020 A 
HETATM   19  C   UNL     1     -43.138  57.769 -60.021  1.00  0.00     0.038 A 
HETATM   20  C   UNL     1     -43.524  56.426 -60.015  1.00  0.00     0.069 A 
HETATM   21  C   UNL     1     -43.477  55.703 -58.818  1.00  0.00     0.038 A 
HETATM   22  C   UNL     1     -43.052  56.311 -57.635  1.00  0.00     0.020 A 
BRANCH  20  23
HETATM   23  O   UNL     1     -43.966  55.710 -61.093  1.00  0.00    -0.348 OA
BRANCH  23  24
HETATM   24  C   UNL     1     -45.203  55.016 -60.952  1.00  0.00     0.202 C 
BRANCH  24  25
HETATM   25  C   UNL     1     -46.301  56.031 -61.052  1.00  0.00    -0.011 C 
HETATM   26  C   UNL     1     -47.019  56.484 -60.016  1.00  0.00     0.009 C 
ENDBRANCH  24  25
ENDBRANCH  23  24
ENDBRANCH  20  23
ENDBRANCH  14  17
ENDBRANCH   2  13
BRANCH   1  27
HETATM   27  C   UNL     1     -41.214  56.708 -52.127  1.00  0.00    -0.009 A 
HETATM   28  C   UNL     1     -41.120  55.333 -52.464  1.00  0.00    -0.051 A 
HETATM   29  C   UNL     1     -41.048  54.358 -51.439  1.00  0.00     0.014 A 
HETATM   30  C   UNL     1     -41.056  54.804 -53.869  1.00  0.00     0.049 C 
HETATM   31  C   UNL     1     -41.039  54.698 -50.087  1.00  0.00    -0.061 A 
HETATM   32  C   UNL     1     -40.908  53.643 -49.030  1.00  0.00     0.048 C 
HETATM   33  C   UNL     1     -41.074  56.042 -49.746  1.00  0.00     0.007 A 
HETATM   34  C   UNL     1     -41.153  57.020 -50.743  1.00  0.00     0.012 A 
ENDBRANCH   1  27
TORSDOF 6
ENDMDL
MODEL 2
REMARK VINA RESULT:      -8.3      1.512      2.057
REMARK  6 active torsions:
REMARK  status: ('A' for Active; 'I' for Inactive)
REMARK    1  A    between atoms: C_6  and  C_7 
REMARK    2  A    between atoms: N_8  and  N_9 
REMARK       I    between atoms: N_9  and  C_10 
REMARK    3  A    between atoms: C_10  and  C_11 
REMARK    4  A    between atoms: C_14  and  O_15 
REMARK    5  A    between atoms: O_15  and  C_16 
REMARK    6  A    between atoms: C_16  and  C_17 
ROOT
HETATM    1  C   UNL     1     -41.307  56.735 -54.359  1.00  0.00     0.244 C 
HETATM    2  N   UNL     1     -42.677  57.088 -54.716  1.00  0.00    -0.225 N 
HETATM    3  C   UNL     1     -43.524  57.757 -53.852  1.00  0.00     0.276 C 
HETATM    4  O   UNL     1     -44.741  57.824 -54.025  1.00  0.00    -0.266 OA
HETATM    5  C   UNL     1     -42.863  58.441 -52.720  1.00  0.00     0.060 A 
HETATM    6  C   UNL     1     -41.465  58.546 -52.755  1.00  0.00     0.045 A 
HETATM    7  N   UNL     1     -40.736  57.979 -53.811  1.00  0.00    -0.362 N 
HETATM    8  C   UNL     1     -43.615  59.035 -51.702  1.00  0.00     0.019 A 
HETATM    9  C   UNL     1     -42.962  59.757 -50.704  1.00  0.00     0.001 A 
HETATM   10  C   UNL     1     -41.574  59.903 -50.747  1.00  0.00     0.002 A 
HETATM   11  C   UNL     1     -40.831  59.314 -51.776  1.00  0.00     0.030 A 
HETATM   12  H   UNL     1     -39.733  57.961 -53.700  1.00  0.00     0.162 HD
ENDROOT
BRANCH   2  13
HETATM   13  N   UNL     1     -43.241  56.608 -55.919  1.00  0.00    -0.258 N 
HETATM   14  C   UNL     1     -43.025  57.244 -57.126  1.00  0.00     0.270 C 
HETATM   15  O   UNL     1     -42.140  58.055 -57.367  1.00  0.00    -0.266 OA
HETATM   16  H   UNL     1     -44.088  56.063 -55.773  1.00  0.00     0.190 HD
BRANCH  14  17
HETATM   17  C   UNL     1     -43.932  56.805 -58.214  1.00  0.00     0.033 A 
HETATM   18  C   UNL     1     -43.662  55.656 -58.964  1.00  0.00     0.020 A 
HETATM   19  C   UNL     1     -44.521  55.285 -60.005  1.00  0.00     0.038 A 
HETATM   20  C   UNL     1     -45.646  56.059 -60.299  1.00  0.00     0.069 A 
HETATM   21  C   UNL     1     -45.914  57.200 -59.535  1.00  0.00     0.038 A 
HETATM   22  C   UNL     1     -45.068  57.570 -58.487  1.00  0.00     0.020 A 
BRANCH  20  23
HETATM   23  O   UNL     1     -46.550  55.819 -61.296  1.00  0.00    -0.348 OA
BRANCH  23  24
HETATM   24  C   UNL     1     -47.776  56.547 -61.253  1.00  0.00     0.202 C 
BRANCH  24  25
HETATM   25  C   UNL     1     -48.312  56.604 -62.652  1.00  0.00    -0.011 C 
HETATM   26  C   UNL     1     -48.870  57.685 -63.213  1.00  0.00     0.009 C 
ENDBRANCH  24  25
ENDBRANCH  23  24
ENDBRANCH  20  23
ENDBRANCH  14  17
ENDBRANCH   2  13
BRANCH   1  27
HETATM   27  C   UNL     1     -41.117  55.533 -53.389  1.00  0.00    -0.009 A 
HETATM   28  C   UNL     1     -40.633  54.251 -53.753  1.00  0.00    -0.051 A 
HETATM   29  C   UNL     1     -40.452  53.257 -52.760  1.00  0.00     0.014 A 
HETATM   30  C   UNL     1     -40.251  53.849 -55.150  1.00  0.00     0.049 C 
HETATM   31  C   UNL     1     -40.709  53.497 -51.410  1.00  0.00    -0.061 A 
HETATM   32  C   UNL     1     -40.455  52.439 -50.380  1.00  0.00     0.048 C 
HETATM   33  C   UNL     1     -41.128  54.765 -51.036  1.00  0.00     0.007 A 
HETATM   34  C   UNL     1     -41.320  55.757 -52.002  1.00  0.00     0.012 A 
ENDBRANCH   1  27
TORSDOF 6
ENDMDL
MODEL 3
REMARK VINA RESULT:      -7.9      3.575      9.123
REMARK  6 active torsions:
REMARK  status: ('A' for Active; 'I' for Inactive)
REMARK    1  A    between atoms: C_6  and  C_7 
REMARK    2  A    between atoms: N_8  and  N_9 
REMARK       I    between atoms: N_9  and  C_10 
REMARK    3  A    between atoms: C_10  and  C_11 
REMARK    4  A    between atoms: C_14  and  O_15 
REMARK    5  A    between atoms: O_15  and  C_16 
REMARK    6  A    between atoms: C_16  and  C_17 
ROOT
HETATM    1  C   UNL     1     -44.139  57.354 -51.175  1.00  0.00     0.244 C 
HETATM    2  N   UNL     1     -43.809  58.772 -51.268  1.00  0.00    -0.225 N 
HETATM    3  C   UNL     1     -43.133  59.311 -52.347  1.00  0.00     0.276 C 
HETATM    4  O   UNL     1     -42.616  60.428 -52.323  1.00  0.00    -0.266 OA
HETATM    5  C   UNL     1     -43.115  58.474 -53.565  1.00  0.00     0.060 A 
HETATM    6  C   UNL     1     -43.957  57.352 -53.592  1.00  0.00     0.045 A 
HETATM    7  N   UNL     1     -44.747  57.030 -52.479  1.00  0.00    -0.362 N 
HETATM    8  C   UNL     1     -42.351  58.840 -54.678  1.00  0.00     0.019 A 
HETATM    9  C   UNL     1     -42.436  58.082 -55.843  1.00  0.00     0.001 A 
HETATM   10  C   UNL     1     -43.299  56.985 -55.898  1.00  0.00     0.002 A 
HETATM   11  C   UNL     1     -44.067  56.632 -54.783  1.00  0.00     0.030 A 
HETATM   12  H   UNL     1     -45.213  56.136 -52.508  1.00  0.00     0.162 HD
ENDROOT
BRANCH   2  13
HETATM   13  N   UNL     1     -44.033  59.625 -50.164  1.00  0.00    -0.258 N 
HETATM   14  C   UNL     1     -45.227  60.300 -50.000  1.00  0.00     0.270 C 
HETATM   15  O   UNL     1     -46.286  60.041 -50.558  1.00  0.00    -0.266 OA
HETATM   16  H   UNL     1     -43.174  60.004 -49.771  1.00  0.00     0.190 HD
BRANCH  14  17
HETATM   17  C   UNL     1     -45.179  61.379 -48.984  1.00  0.00     0.033 A 
HETATM   18  C   UNL     1     -44.745  62.667 -49.313  1.00  0.00     0.020 A 
HETATM   19  C   UNL     1     -44.682  63.656 -48.323  1.00  0.00     0.038 A 
HETATM   20  C   UNL     1     -45.049  63.359 -47.008  1.00  0.00     0.069 A 
HETATM   21  C   UNL     1     -45.494  62.071 -46.692  1.00  0.00     0.038 A 
HETATM   22  C   UNL     1     -45.570  61.083 -47.676  1.00  0.00     0.020 A 
BRANCH  20  23
HETATM   23  O   UNL     1     -45.017  64.224 -45.949  1.00  0.00    -0.348 OA
BRANCH  23  24
HETATM   24  C   UNL     1     -45.418  63.714 -44.680  1.00  0.00     0.202 C 
BRANCH  24  25
HETATM   25  C   UNL     1     -44.265  63.895 -43.739  1.00  0.00    -0.011 C 
HETATM   26  C   UNL     1     -43.691  62.910 -43.036  1.00  0.00     0.009 C 
ENDBRANCH  24  25
ENDBRANCH  23  24
ENDBRANCH  20  23
ENDBRANCH  14  17
ENDBRANCH   2  13
BRANCH   1  27
HETATM   27  C   UNL     1     -42.980  56.380 -50.817  1.00  0.00    -0.009 A 
HETATM   28  C   UNL     1     -43.102  54.976 -50.662  1.00  0.00    -0.051 A 
HETATM   29  C   UNL     1     -41.954  54.192 -50.391  1.00  0.00     0.014 A 
HETATM   30  C   UNL     1     -44.391  54.213 -50.797  1.00  0.00     0.049 C 
HETATM   31  C   UNL     1     -40.679  54.749 -50.294  1.00  0.00    -0.061 A 
HETATM   32  C   UNL     1     -39.478  53.883 -50.059  1.00  0.00     0.048 C 
HETATM   33  C   UNL     1     -40.539  56.113 -50.499  1.00  0.00     0.007 A 
HETATM   34  C   UNL     1     -41.662  56.905 -50.760  1.00  0.00     0.012 A 
ENDBRANCH   1  27
TORSDOF 6
ENDMDL
MODEL 4
REMARK VINA RESULT:      -7.9      3.476      8.298
REMARK  6 active torsions:
REMARK  status: ('A' for Active; 'I' for Inactive)
REMARK    1  A    between atoms: C_6  and  C_7 
REMARK    2  A    between atoms: N_8  and  N_9 
REMARK       I    between atoms: N_9  and  C_10 
REMARK    3  A    between atoms: C_10  and  C_11 
REMARK    4  A    between atoms: C_14  and  O_15 
REMARK    5  A    between atoms: O_15  and  C_16 
REMARK    6  A    between atoms: C_16  and  C_17 
ROOT
HETATM    1  C   UNL     1     -42.918  57.850 -58.407  1.00  0.00     0.244 C 
HETATM    2  N   UNL     1     -43.570  57.484 -57.154  1.00  0.00    -0.225 N 
HETATM    3  C   UNL     1     -44.827  57.943 -56.806  1.00  0.00     0.276 C 
HETATM    4  O   UNL     1     -45.274  57.869 -55.661  1.00  0.00    -0.266 OA
HETATM    5  C   UNL     1     -45.633  58.489 -57.919  1.00  0.00     0.060 A 
HETATM    6  C   UNL     1     -45.159  58.281 -59.223  1.00  0.00     0.045 A 
HETATM    7  N   UNL     1     -43.944  57.617 -59.440  1.00  0.00    -0.362 N 
HETATM    8  C   UNL     1     -46.863  59.110 -57.679  1.00  0.00     0.019 A 
HETATM    9  C   UNL     1     -47.641  59.523 -58.758  1.00  0.00     0.001 A 
HETATM   10  C   UNL     1     -47.202  59.288 -60.062  1.00  0.00     0.002 A 
HETATM   11  C   UNL     1     -45.975  58.656 -60.293  1.00  0.00     0.030 A 
HETATM   12  H   UNL     1     -43.592  57.632 -60.385  1.00  0.00     0.162 HD
ENDROOT
BRANCH   2  13
HETATM   13  N   UNL     1     -42.858  56.764 -56.170  1.00  0.00    -0.258 N 
HETATM   14  C   UNL     1     -42.866  55.383 -56.134  1.00  0.00     0.270 C 
HETATM   15  O   UNL     1     -43.197  54.639 -57.048  1.00  0.00    -0.266 OA
HETATM   16  H   UNL     1     -42.709  57.296 -55.315  1.00  0.00     0.190 HD
BRANCH  14  17
HETATM   17  C   UNL     1     -42.342  54.806 -54.873  1.00  0.00     0.033 A 
HETATM   18  C   UNL     1     -41.035  54.317 -54.787  1.00  0.00     0.020 A 
HETATM   19  C   UNL     1     -40.579  53.750 -53.591  1.00  0.00     0.038 A 
HETATM   20  C   UNL     1     -41.427  53.667 -52.483  1.00  0.00     0.069 A 
HETATM   21  C   UNL     1     -42.729  54.170 -52.576  1.00  0.00     0.038 A 
HETATM   22  C   UNL     1     -43.187  54.748 -53.762  1.00  0.00     0.020 A 
BRANCH  20  23
HETATM   23  O   UNL     1     -41.114  53.123 -51.269  1.00  0.00    -0.348 OA
BRANCH  23  24
HETATM   24  C   UNL     1     -39.831  53.432 -50.728  1.00  0.00     0.202 C 
BRANCH  24  25
HETATM   25  C   UNL     1     -40.012  54.564 -49.762  1.00  0.00    -0.011 C 
HETATM   26  C   UNL     1     -40.954  54.613 -48.811  1.00  0.00     0.009 C 
ENDBRANCH  24  25
ENDBRANCH  23  24
ENDBRANCH  20  23
ENDBRANCH  14  17
ENDBRANCH   2  13
BRANCH   1  27
HETATM   27  C   UNL     1     -42.319  59.283 -58.499  1.00  0.00    -0.009 A 
HETATM   28  C   UNL     1     -41.902  59.926 -59.692  1.00  0.00    -0.051 A 
HETATM   29  C   UNL     1     -41.425  61.259 -59.647  1.00  0.00     0.014 A 
HETATM   30  C   UNL     1     -41.955  59.303 -61.059  1.00  0.00     0.049 C 
HETATM   31  C   UNL     1     -41.370  61.990 -58.460  1.00  0.00    -0.061 A 
HETATM   32  C   UNL     1     -40.909  63.417 -58.457  1.00  0.00     0.048 C 
HETATM   33  C   UNL     1     -41.828  61.391 -57.297  1.00  0.00     0.007 A 
HETATM   34  C   UNL     1     -42.295  60.073 -57.320  1.00  0.00     0.012 A 
ENDBRANCH   1  27
TORSDOF 6
ENDMDL
MODEL 5
REMARK VINA RESULT:      -7.8      3.624      7.141
REMARK  6 active torsions:
REMARK  status: ('A' for Active; 'I' for Inactive)
REMARK    1  A    between atoms: C_6  and  C_7 
REMARK    2  A    between atoms: N_8  and  N_9 
REMARK       I    between atoms: N_9  and  C_10 
REMARK    3  A    between atoms: C_10  and  C_11 
REMARK    4  A    between atoms: C_14  and  O_15 
REMARK    5  A    between atoms: O_15  and  C_16 
REMARK    6  A    between atoms: C_16  and  C_17 
ROOT
HETATM    1  C   UNL     1     -44.670  58.328 -52.214  1.00  0.00     0.244 C 
HETATM    2  N   UNL     1     -43.286  58.133 -51.795  1.00  0.00    -0.225 N 
HETATM    3  C   UNL     1     -42.509  59.158 -51.290  1.00  0.00     0.276 C 
HETATM    4  O   UNL     1     -41.285  59.082 -51.187  1.00  0.00    -0.266 OA
HETATM    5  C   UNL     1     -43.253  60.349 -50.827  1.00  0.00     0.060 A 
HETATM    6  C   UNL     1     -44.648  60.240 -50.725  1.00  0.00     0.045 A 
HETATM    7  N   UNL     1     -45.297  59.053 -51.094  1.00  0.00    -0.362 N 
HETATM    8  C   UNL     1     -42.580  61.506 -50.424  1.00  0.00     0.019 A 
HETATM    9  C   UNL     1     -43.307  62.571 -49.899  1.00  0.00     0.001 A 
HETATM   10  C   UNL     1     -44.692  62.463 -49.754  1.00  0.00     0.002 A 
HETATM   11  C   UNL     1     -45.357  61.298 -50.151  1.00  0.00     0.030 A 
HETATM   12  H   UNL     1     -46.304  59.092 -51.137  1.00  0.00     0.162 HD
ENDROOT
BRANCH   2  13
HETATM   13  N   UNL     1     -42.638  56.903 -52.046  1.00  0.00    -0.258 N 
HETATM   14  C   UNL     1     -42.929  55.768 -51.316  1.00  0.00     0.270 C 
HETATM   15  O   UNL     1     -43.923  55.589 -50.623  1.00  0.00    -0.266 OA
HETATM   16  H   UNL     1     -41.720  57.016 -52.471  1.00  0.00     0.190 HD
BRANCH  14  17
HETATM   17  C   UNL     1     -41.949  54.668 -51.488  1.00  0.00     0.033 A 
HETATM   18  C   UNL     1     -41.161  54.225 -50.421  1.00  0.00     0.020 A 
HETATM   19  C   UNL     1     -40.223  53.205 -50.623  1.00  0.00     0.038 A 
HETATM   20  C   UNL     1     -40.069  52.631 -51.888  1.00  0.00     0.069 A 
HETATM   21  C   UNL     1     -40.872  53.073 -52.945  1.00  0.00     0.038 A 
HETATM   22  C   UNL     1     -41.817  54.081 -52.749  1.00  0.00     0.020 A 
BRANCH  20  23
HETATM   23  O   UNL     1     -39.182  51.646 -52.222  1.00  0.00    -0.348 OA
BRANCH  23  24
HETATM   24  C   UNL     1     -39.550  50.304 -51.909  1.00  0.00     0.202 C 
BRANCH  24  25
HETATM   25  C   UNL     1     -39.488  49.514 -53.182  1.00  0.00    -0.011 C 
HETATM   26  C   UNL     1     -39.805  49.991 -54.393  1.00  0.00     0.009 C 
ENDBRANCH  24  25
ENDBRANCH  23  24
ENDBRANCH  20  23
ENDBRANCH  14  17
ENDBRANCH   2  13
BRANCH   1  27
HETATM   27  C   UNL     1     -44.902  59.049 -53.573  1.00  0.00    -0.009 A 
HETATM   28  C   UNL     1     -44.714  58.472 -54.855  1.00  0.00    -0.051 A 
HETATM   29  C   UNL     1     -45.015  59.220 -56.018  1.00  0.00     0.014 A 
HETATM   30  C   UNL     1     -44.232  57.068 -55.094  1.00  0.00     0.049 C 
HETATM   31  C   UNL     1     -45.525  60.517 -55.958  1.00  0.00    -0.061 A 
HETATM   32  C   UNL     1     -45.884  61.261 -57.209  1.00  0.00     0.048 C 
HETATM   33  C   UNL     1     -45.767  61.072 -54.710  1.00  0.00     0.007 A 
HETATM   34  C   UNL     1     -45.468  60.351 -53.549  1.00  0.00     0.012 A 
ENDBRANCH   1  27
TORSDOF 6
ENDMDL
MODEL 6
REMARK VINA RESULT:      -7.7      3.515      8.763
REMARK  6 active torsions:
REMARK  status: ('A' for Active; 'I' for Inactive)
REMARK    1  A    between atoms: C_6  and  C_7 
REMARK    2  A    between atoms: N_8  and  N_9 
REMARK       I    between atoms: N_9  and  C_10 
REMARK    3  A    between atoms: C_10  and  C_11 
REMARK    4  A    between atoms: C_14  and  O_15 
REMARK    5  A    between atoms: O_15  and  C_16 
REMARK    6  A    between atoms: C_16  and  C_17 
ROOT
HETATM    1  C   UNL     1     -44.900  58.578 -58.489  1.00  0.00     0.244 C 
HETATM    2  N   UNL     1     -43.573  57.981 -58.384  1.00  0.00    -0.225 N 
HETATM    3  C   UNL     1     -42.561  58.248 -59.288  1.00  0.00     0.276 C 
HETATM    4  O   UNL     1     -41.542  57.563 -59.374  1.00  0.00    -0.266 OA
HETATM    5  C   UNL     1     -42.757  59.455 -60.119  1.00  0.00     0.060 A 
HETATM    6  C   UNL     1     -43.801  60.322 -59.765  1.00  0.00     0.045 A 
HETATM    7  N   UNL     1     -44.643  60.017 -58.686  1.00  0.00    -0.362 N 
HETATM    8  C   UNL     1     -41.878  59.759 -61.164  1.00  0.00     0.019 A 
HETATM    9  C   UNL     1     -42.035  60.955 -61.861  1.00  0.00     0.001 A 
HETATM   10  C   UNL     1     -43.045  61.847 -61.494  1.00  0.00     0.002 A 
HETATM   11  C   UNL     1     -43.914  61.539 -60.442  1.00  0.00     0.030 A 
HETATM   12  H   UNL     1     -45.458  60.602 -58.578  1.00  0.00     0.162 HD
ENDROOT
BRANCH   2  13
HETATM   13  N   UNL     1     -43.326  56.969 -57.430  1.00  0.00    -0.258 N 
HETATM   14  C   UNL     1     -42.703  57.243 -56.228  1.00  0.00     0.270 C 
HETATM   15  O   UNL     1     -42.571  58.349 -55.718  1.00  0.00    -0.266 OA
HETATM   16  H   UNL     1     -43.257  56.041 -57.841  1.00  0.00     0.190 HD
BRANCH  14  17
HETATM   17  C   UNL     1     -42.241  56.039 -55.496  1.00  0.00     0.033 A 
HETATM   18  C   UNL     1     -42.803  54.782 -55.739  1.00  0.00     0.020 A 
HETATM   19  C   UNL     1     -42.367  53.670 -55.009  1.00  0.00     0.038 A 
HETATM   20  C   UNL     1     -41.374  53.812 -54.037  1.00  0.00     0.069 A 
HETATM   21  C   UNL     1     -40.809  55.071 -53.810  1.00  0.00     0.038 A 
HETATM   22  C   UNL     1     -41.231  56.183 -54.542  1.00  0.00     0.020 A 
BRANCH  20  23
HETATM   23  O   UNL     1     -40.874  52.815 -53.246  1.00  0.00    -0.348 OA
BRANCH  23  24
HETATM   24  C   UNL     1     -39.776  52.064 -53.759  1.00  0.00     0.202 C 
BRANCH  24  25
HETATM   25  C   UNL     1     -40.227  50.640 -53.887  1.00  0.00    -0.011 C 
HETATM   26  C   UNL     1     -39.730  49.758 -54.764  1.00  0.00     0.009 C 
ENDBRANCH  24  25
ENDBRANCH  23  24
ENDBRANCH  20  23
ENDBRANCH  14  17
ENDBRANCH   2  13
BRANCH   1  27
HETATM   27  C   UNL     1     -45.849  58.004 -59.580  1.00  0.00    -0.009 A 
HETATM   28  C   UNL     1     -45.881  56.656 -60.018  1.00  0.00    -0.051 A 
HETATM   29  C   UNL     1     -46.835  56.248 -60.982  1.00  0.00     0.014 A 
HETATM   30  C   UNL     1     -44.975  55.572 -59.504  1.00  0.00     0.049 C 
HETATM   31  C   UNL     1     -47.781  57.126 -61.511  1.00  0.00    -0.061 A 
HETATM   32  C   UNL     1     -48.811  56.648 -62.489  1.00  0.00     0.048 C 
HETATM   33  C   UNL     1     -47.795  58.434 -61.049  1.00  0.00     0.007 A 
HETATM   34  C   UNL     1     -46.856  58.857 -60.103  1.00  0.00     0.012 A 
ENDBRANCH   1  27
TORSDOF 6
ENDMDL
MODEL 7
REMARK VINA RESULT:      -7.5      2.686      8.682
REMARK  6 active torsions:
REMARK  status: ('A' for Active; 'I' for Inactive)
REMARK    1  A    between atoms: C_6  and  C_7 
REMARK    2  A    between atoms: N_8  and  N_9 
REMARK       I    between atoms: N_9  and  C_10 
REMARK    3  A    between atoms: C_10  and  C_11 
REMARK    4  A    between atoms: C_14  and  O_15 
REMARK    5  A    between atoms: O_15  and  C_16 
REMARK    6  A    between atoms: C_16  and  C_17 
ROOT
HETATM    1  C   UNL     1     -42.207  57.928 -54.626  1.00  0.00     0.244 C 
HETATM    2  N   UNL     1     -42.836  57.665 -53.336  1.00  0.00    -0.225 N 
HETATM    3  C   UNL     1     -42.995  56.388 -52.830  1.00  0.00     0.276 C 
HETATM    4  O   UNL     1     -43.748  56.129 -51.892  1.00  0.00    -0.266 OA
HETATM    5  C   UNL     1     -42.154  55.348 -53.459  1.00  0.00     0.060 A 
HETATM    6  C   UNL     1     -41.133  55.776 -54.321  1.00  0.00     0.045 A 
HETATM    7  N   UNL     1     -40.960  57.140 -54.597  1.00  0.00    -0.362 N 
HETATM    8  C   UNL     1     -42.319  53.998 -53.136  1.00  0.00     0.019 A 
HETATM    9  C   UNL     1     -41.443  53.056 -53.672  1.00  0.00     0.001 A 
HETATM   10  C   UNL     1     -40.398  53.470 -54.500  1.00  0.00     0.002 A 
HETATM   11  C   UNL     1     -40.235  54.825 -54.810  1.00  0.00     0.030 A 
HETATM   12  H   UNL     1     -40.310  57.366 -55.333  1.00  0.00     0.162 HD
ENDROOT
BRANCH   2  13
HETATM   13  N   UNL     1     -43.456  58.716 -52.624  1.00  0.00    -0.258 N 
HETATM   14  C   UNL     1     -42.729  59.582 -51.831  1.00  0.00     0.270 C 
HETATM   15  O   UNL     1     -41.517  59.754 -51.872  1.00  0.00    -0.266 OA
HETATM   16  H   UNL     1     -44.436  58.535 -52.417  1.00  0.00     0.190 HD
BRANCH  14  17
HETATM   17  C   UNL     1     -43.556  60.410 -50.920  1.00  0.00     0.033 A 
HETATM   18  C   UNL     1     -43.074  61.614 -50.396  1.00  0.00     0.020 A 
HETATM   19  C   UNL     1     -43.868  62.357 -49.514  1.00  0.00     0.038 A 
HETATM   20  C   UNL     1     -45.137  61.899 -49.153  1.00  0.00     0.069 A 
HETATM   21  C   UNL     1     -45.614  60.700 -49.693  1.00  0.00     0.038 A 
HETATM   22  C   UNL     1     -44.834  59.959 -50.582  1.00  0.00     0.020 A 
BRANCH  20  23
HETATM   23  O   UNL     1     -46.001  62.517 -48.292  1.00  0.00    -0.348 OA
BRANCH  23  24
HETATM   24  C   UNL     1     -46.446  61.765 -47.165  1.00  0.00     0.202 C 
BRANCH  24  25
HETATM   25  C   UNL     1     -45.438  61.955 -46.072  1.00  0.00    -0.011 C 
HETATM   26  C   UNL     1     -44.688  60.978 -45.547  1.00  0.00     0.009 C 
ENDBRANCH  24  25
ENDBRANCH  23  24
ENDBRANCH  20  23
ENDBRANCH  14  17
ENDBRANCH   2  13
BRANCH   1  27
HETATM   27  C   UNL     1     -43.052  57.629 -55.898  1.00  0.00    -0.009 A 
HETATM   28  C   UNL     1     -44.239  58.305 -56.276  1.00  0.00    -0.051 A 
HETATM   29  C   UNL     1     -44.885  57.974 -57.492  1.00  0.00     0.014 A 
HETATM   30  C   UNL     1     -44.880  59.408 -55.481  1.00  0.00     0.049 C 
HETATM   31  C   UNL     1     -44.379  57.011 -58.365  1.00  0.00    -0.061 A 
HETATM   32  C   UNL     1     -45.059  56.724 -59.670  1.00  0.00     0.048 C 
HETATM   33  C   UNL     1     -43.188  56.383 -58.033  1.00  0.00     0.007 A 
HETATM   34  C   UNL     1     -42.540  56.690 -56.833  1.00  0.00     0.012 A 
ENDBRANCH   1  27
TORSDOF 6
ENDMDL
MODEL 8
REMARK VINA RESULT:      -7.4     17.695     21.867
REMARK  6 active torsions:
REMARK  status: ('A' for Active; 'I' for Inactive)
REMARK    1  A    between atoms: C_6  and  C_7 
REMARK    2  A    between atoms: N_8  and  N_9 
REMARK       I    between atoms: N_9  and  C_10 
REMARK    3  A    between atoms: C_10  and  C_11 
REMARK    4  A    between atoms: C_14  and  O_15 
REMARK    5  A    between atoms: O_15  and  C_16 
REMARK    6  A    between atoms: C_16  and  C_17 
ROOT
HETATM    1  C   UNL     1     -34.470  38.768 -53.575  1.00  0.00     0.244 C 
HETATM    2  N   UNL     1     -34.817  39.794 -52.597  1.00  0.00    -0.225 N 
HETATM    3  C   UNL     1     -35.387  41.002 -52.955  1.00  0.00     0.276 C 
HETATM    4  O   UNL     1     -35.438  41.969 -52.195  1.00  0.00    -0.266 OA
HETATM    5  C   UNL     1     -35.988  41.044 -54.305  1.00  0.00     0.060 A 
HETATM    6  C   UNL     1     -36.131  39.826 -54.988  1.00  0.00     0.045 A 
HETATM    7  N   UNL     1     -35.676  38.631 -54.412  1.00  0.00    -0.362 N 
HETATM    8  C   UNL     1     -36.472  42.242 -54.839  1.00  0.00     0.019 A 
HETATM    9  C   UNL     1     -37.121  42.226 -56.072  1.00  0.00     0.001 A 
HETATM   10  C   UNL     1     -37.306  41.017 -56.745  1.00  0.00     0.002 A 
HETATM   11  C   UNL     1     -36.827  39.822 -56.198  1.00  0.00     0.030 A 
HETATM   12  H   UNL     1     -35.674  37.821 -55.013  1.00  0.00     0.162 HD
ENDROOT
BRANCH   2  13
HETATM   13  N   UNL     1     -34.428  39.645 -51.247  1.00  0.00    -0.258 N 
HETATM   14  C   UNL     1     -33.150  39.952 -50.824  1.00  0.00     0.270 C 
HETATM   15  O   UNL     1     -32.333  40.634 -51.428  1.00  0.00    -0.266 OA
HETATM   16  H   UNL     1     -34.980  38.952 -50.747  1.00  0.00     0.190 HD
BRANCH  14  17
HETATM   17  C   UNL     1     -32.822  39.445 -49.469  1.00  0.00     0.033 A 
HETATM   18  C   UNL     1     -33.673  38.559 -48.801  1.00  0.00     0.020 A 
HETATM   19  C   UNL     1     -33.350  38.122 -47.510  1.00  0.00     0.038 A 
HETATM   20  C   UNL     1     -32.184  38.571 -46.886  1.00  0.00     0.069 A 
HETATM   21  C   UNL     1     -31.333  39.448 -47.569  1.00  0.00     0.038 A 
HETATM   22  C   UNL     1     -31.642  39.878 -48.860  1.00  0.00     0.020 A 
BRANCH  20  23
HETATM   23  O   UNL     1     -31.764  38.238 -45.628  1.00  0.00    -0.348 OA
BRANCH  23  24
HETATM   24  C   UNL     1     -30.430  38.593 -45.271  1.00  0.00     0.202 C 
BRANCH  24  25
HETATM   25  C   UNL     1     -30.517  39.639 -44.200  1.00  0.00    -0.011 C 
HETATM   26  C   UNL     1     -29.902  40.828 -44.242  1.00  0.00     0.009 C 
ENDBRANCH  24  25
ENDBRANCH  23  24
ENDBRANCH  20  23
ENDBRANCH  14  17
ENDBRANCH   2  13
BRANCH   1  27
HETATM   27  C   UNL     1     -33.194  39.011 -54.431  1.00  0.00    -0.009 A 
HETATM   28  C   UNL     1     -31.917  38.444 -54.187  1.00  0.00    -0.051 A 
HETATM   29  C   UNL     1     -30.847  38.702 -55.078  1.00  0.00     0.014 A 
HETATM   30  C   UNL     1     -31.596  37.533 -53.035  1.00  0.00     0.049 C 
HETATM   31  C   UNL     1     -31.004  39.482 -56.224  1.00  0.00    -0.061 A 
HETATM   32  C   UNL     1     -29.864  39.690 -57.174  1.00  0.00     0.048 C 
HETATM   33  C   UNL     1     -32.262  39.995 -56.503  1.00  0.00     0.007 A 
HETATM   34  C   UNL     1     -33.329  39.758 -55.631  1.00  0.00     0.012 A 
ENDBRANCH   1  27
TORSDOF 6
ENDMDL
MODEL 9
REMARK VINA RESULT:      -7.3      3.862      8.340
REMARK  6 active torsions:
REMARK  status: ('A' for Active; 'I' for Inactive)
REMARK    1  A    between atoms: C_6  and  C_7 
REMARK    2  A    between atoms: N_8  and  N_9 
REMARK       I    between atoms: N_9  and  C_10 
REMARK    3  A    between atoms: C_10  and  C_11 
REMARK    4  A    between atoms: C_14  and  O_15 
REMARK    5  A    between atoms: O_15  and  C_16 
REMARK    6  A    between atoms: C_16  and  C_17 
ROOT
HETATM    1  C   UNL     1     -43.258  57.878 -59.260  1.00  0.00     0.244 C 
HETATM    2  N   UNL     1     -43.686  57.577 -57.898  1.00  0.00    -0.225 N 
HETATM    3  C   UNL     1     -44.811  58.144 -57.328  1.00  0.00     0.276 C 
HETATM    4  O   UNL     1     -45.034  58.116 -56.118  1.00  0.00    -0.266 OA
HETATM    5  C   UNL     1     -45.768  58.748 -58.279  1.00  0.00     0.060 A 
HETATM    6  C   UNL     1     -45.571  58.491 -59.645  1.00  0.00     0.045 A 
HETATM    7  N   UNL     1     -44.479  57.725 -60.074  1.00  0.00    -0.362 N 
HETATM    8  C   UNL     1     -46.873  59.473 -57.824  1.00  0.00     0.019 A 
HETATM    9  C   UNL     1     -47.808  59.942 -58.745  1.00  0.00     0.001 A 
HETATM   10  C   UNL     1     -47.647  59.661 -60.103  1.00  0.00     0.002 A 
HETATM   11  C   UNL     1     -46.543  58.926 -60.549  1.00  0.00     0.030 A 
HETATM   12  H   UNL     1     -44.314  57.703 -61.068  1.00  0.00     0.162 HD
ENDROOT
BRANCH   2  13
HETATM   13  N   UNL     1     -42.860  56.806 -57.051  1.00  0.00    -0.258 N 
HETATM   14  C   UNL     1     -42.998  55.435 -56.955  1.00  0.00     0.270 C 
HETATM   15  O   UNL     1     -43.584  54.711 -57.749  1.00  0.00    -0.266 OA
HETATM   16  H   UNL     1     -42.484  57.338 -56.268  1.00  0.00     0.190 HD
BRANCH  14  17
HETATM   17  C   UNL     1     -42.283  54.833 -55.804  1.00  0.00     0.033 A 
HETATM   18  C   UNL     1     -42.980  54.237 -54.748  1.00  0.00     0.020 A 
HETATM   19  C   UNL     1     -42.276  53.704 -53.661  1.00  0.00     0.038 A 
HETATM   20  C   UNL     1     -40.881  53.768 -53.626  1.00  0.00     0.069 A 
HETATM   21  C   UNL     1     -40.193  54.355 -54.693  1.00  0.00     0.038 A 
HETATM   22  C   UNL     1     -40.887  54.878 -55.786  1.00  0.00     0.020 A 
BRANCH  20  23
HETATM   23  O   UNL     1     -40.079  53.304 -52.620  1.00  0.00    -0.348 OA
BRANCH  23  24
HETATM   24  C   UNL     1     -39.974  51.890 -52.470  1.00  0.00     0.202 C 
BRANCH  24  25
HETATM   25  C   UNL     1     -39.978  51.291 -53.845  1.00  0.00    -0.011 C 
HETATM   26  C   UNL     1     -39.504  50.077 -54.150  1.00  0.00     0.009 C 
ENDBRANCH  24  25
ENDBRANCH  23  24
ENDBRANCH  20  23
ENDBRANCH  14  17
ENDBRANCH   2  13
BRANCH   1  27
HETATM   27  C   UNL     1     -42.572  59.254 -59.498  1.00  0.00    -0.009 A 
HETATM   28  C   UNL     1     -42.003  60.075 -58.492  1.00  0.00    -0.051 A 
HETATM   29  C   UNL     1     -41.355  61.283 -58.849  1.00  0.00     0.014 A 
HETATM   30  C   UNL     1     -41.999  59.746 -57.025  1.00  0.00     0.049 C 
HETATM   31  C   UNL     1     -41.228  61.696 -60.175  1.00  0.00    -0.061 A 
HETATM   32  C   UNL     1     -40.489  62.954 -60.521  1.00  0.00     0.048 C 
HETATM   33  C   UNL     1     -41.731  60.873 -61.171  1.00  0.00     0.007 A 
HETATM   34  C   UNL     1     -42.380  59.680 -60.839  1.00  0.00     0.012 A 
ENDBRANCH   1  27
TORSDOF 6
ENDMDL
MODEL 10
REMARK VINA RESULT:      -7.0     17.549     20.625
REMARK  6 active torsions:
REMARK  status: ('A' for Active; 'I' for Inactive)
REMARK    1  A    between atoms: C_6  and  C_7 
REMARK    2  A    between atoms: N_8  and  N_9 
REMARK       I    between atoms: N_9  and  C_10 
REMARK    3  A    between atoms: C_10  and  C_11 
REMARK    4  A    between atoms: C_14  and  O_15 
REMARK    5  A    between atoms: O_15  and  C_16 
REMARK    6  A    between atoms: C_16  and  C_17 
ROOT
HETATM    1  C   UNL     1     -35.147  40.952 -53.918  1.00  0.00     0.244 C 
HETATM    2  N   UNL     1     -35.420  39.642 -53.340  1.00  0.00    -0.225 N 
HETATM    3  C   UNL     1     -34.796  38.488 -53.777  1.00  0.00     0.276 C 
HETATM    4  O   UNL     1     -35.201  37.360 -53.496  1.00  0.00    -0.266 OA
HETATM    5  C   UNL     1     -33.566  38.695 -54.571  1.00  0.00     0.060 A 
HETATM    6  C   UNL     1     -33.030  39.992 -54.606  1.00  0.00     0.045 A 
HETATM    7  N   UNL     1     -33.675  41.045 -53.943  1.00  0.00    -0.362 N 
HETATM    8  C   UNL     1     -32.918  37.621 -55.187  1.00  0.00     0.019 A 
HETATM    9  C   UNL     1     -31.708  37.838 -55.842  1.00  0.00     0.001 A 
HETATM   10  C   UNL     1     -31.142  39.114 -55.852  1.00  0.00     0.002 A 
HETATM   11  C   UNL     1     -31.792  40.182 -55.224  1.00  0.00     0.030 A 
HETATM   12  H   UNL     1     -33.321  41.971 -54.130  1.00  0.00     0.162 HD
ENDROOT
BRANCH   2  13
HETATM   13  N   UNL     1     -36.468  39.485 -52.405  1.00  0.00    -0.258 N 
HETATM   14  C   UNL     1     -36.245  39.571 -51.045  1.00  0.00     0.270 C 
HETATM   15  O   UNL     1     -35.264  40.064 -50.503  1.00  0.00    -0.266 OA
HETATM   16  H   UNL     1     -37.242  38.928 -52.762  1.00  0.00     0.190 HD
BRANCH  14  17
HETATM   17  C   UNL     1     -37.368  39.074 -50.213  1.00  0.00     0.033 A 
HETATM   18  C   UNL     1     -37.259  38.990 -48.822  1.00  0.00     0.020 A 
HETATM   19  C   UNL     1     -38.326  38.487 -48.067  1.00  0.00     0.038 A 
HETATM   20  C   UNL     1     -39.498  38.066 -48.700  1.00  0.00     0.069 A 
HETATM   21  C   UNL     1     -39.602  38.166 -50.091  1.00  0.00     0.038 A 
HETATM   22  C   UNL     1     -38.547  38.677 -50.849  1.00  0.00     0.020 A 
BRANCH  20  23
HETATM   23  O   UNL     1     -40.601  37.542 -48.085  1.00  0.00    -0.348 OA
BRANCH  23  24
HETATM   24  C   UNL     1     -41.766  38.361 -48.028  1.00  0.00     0.202 C 
BRANCH  24  25
HETATM   25  C   UNL     1     -41.961  38.766 -46.598  1.00  0.00    -0.011 C 
HETATM   26  C   UNL     1     -41.507  39.905 -46.058  1.00  0.00     0.009 C 
ENDBRANCH  24  25
ENDBRANCH  23  24
ENDBRANCH  20  23
ENDBRANCH  14  17
ENDBRANCH   2  13
BRANCH   1  27
HETATM   27  C   UNL     1     -35.770  41.254 -55.312  1.00  0.00    -0.009 A 
HETATM   28  C   UNL     1     -37.158  41.329 -55.594  1.00  0.00    -0.051 A 
HETATM   29  C   UNL     1     -37.596  41.669 -56.897  1.00  0.00     0.014 A 
HETATM   30  C   UNL     1     -38.246  41.101 -54.583  1.00  0.00     0.049 C 
HETATM   31  C   UNL     1     -36.704  41.965 -57.929  1.00  0.00    -0.061 A 
HETATM   32  C   UNL     1     -37.204  42.373 -59.282  1.00  0.00     0.048 C 
HETATM   33  C   UNL     1     -35.346  41.950 -57.649  1.00  0.00     0.007 A 
HETATM   34  C   UNL     1     -34.894  41.609 -56.371  1.00  0.00     0.012 A 
ENDBRANCH   1  27
TORSDOF 6
ENDMDL
