MODEL 1
REMARK VINA RESULT:      -8.8      0.000      0.000
REMARK  7 active torsions:
REMARK  status: ('A' for Active; 'I' for Inactive)
REMARK    1  A    between atoms: O_2  and  C_3 
REMARK    2  A    between atoms: C_5  and  C_6 
REMARK    3  A    between atoms: N_8  and  C_9 
REMARK    4  A    between atoms: C_9  and  C_10 
REMARK    5  A    between atoms: C_17  and  C_18 
REMARK       I    between atoms: C_18  and  N_19 
REMARK    6  A    between atoms: N_19  and  N_20 
REMARK       I    between atoms: N_20  and  C_21 
REMARK    7  A    between atoms: C_21  and  C_22 
ROOT
HETATM    1  C   UNL     1     -41.747  55.985 -52.490  1.00  0.00     0.104 A 
HETATM    2  N   UNL     1     -40.974  55.517 -51.491  1.00  0.00    -0.171 NA
HETATM    3  N   UNL     1     -41.049  54.182 -51.587  1.00  0.00    -0.275 N 
HETATM    4  C   UNL     1     -41.818  53.762 -52.629  1.00  0.00     0.132 A 
HETATM    5  C   UNL     1     -42.305  54.903 -53.250  1.00  0.00     0.082 A 
ENDROOT
BRANCH   5   6
HETATM    6  C   UNL     1     -43.208  54.937 -54.392  1.00  0.00     0.274 C 
HETATM    7  N   UNL     1     -42.649  54.492 -55.577  1.00  0.00    -0.263 N 
HETATM    8  H   UNL     1     -41.648  54.337 -55.677  1.00  0.00     0.190 HD
HETATM    9  O   UNL     1     -44.368  55.339 -54.341  1.00  0.00    -0.266 OA
BRANCH   7  10
HETATM   10  N   UNL     1     -43.356  54.687 -56.774  1.00  0.00    -0.262 N 
HETATM   11  C   UNL     1     -43.131  55.849 -57.482  1.00  0.00     0.286 C 
HETATM   12  O   UNL     1     -42.271  56.659 -57.133  1.00  0.00    -0.264 OA
HETATM   13  H   UNL     1     -44.125  54.049 -56.964  1.00  0.00     0.190 HD
BRANCH  11  14
HETATM   14  C   UNL     1     -43.965  56.053 -58.645  1.00  0.00     0.102 A 
HETATM   15  N   UNL     1     -45.018  56.946 -58.621  1.00  0.00    -0.361 N 
HETATM   16  H   UNL     1     -45.267  57.498 -57.810  1.00  0.00     0.165 HD
HETATM   17  C   UNL     1     -45.652  56.968 -59.834  1.00  0.00     0.088 A 
HETATM   18  C   UNL     1     -45.009  56.077 -60.660  1.00  0.00     0.019 A 
HETATM   19  C   UNL     1     -43.948  55.500 -59.916  1.00  0.00     0.036 A 
ENDBRANCH  11  14
ENDBRANCH   7  10
ENDBRANCH   5   6
BRANCH   1  20
HETATM   20  C   UNL     1     -41.883  57.437 -52.658  1.00  0.00    -0.002 A 
HETATM   21  C   UNL     1     -41.608  58.073 -53.875  1.00  0.00     0.050 A 
HETATM   22  C   UNL     1     -41.732  59.461 -54.009  1.00  0.00     0.069 A 
HETATM   23  C   UNL     1     -42.103  60.230 -52.905  1.00  0.00     0.037 A 
HETATM   24  C   UNL     1     -42.361  59.614 -51.681  1.00  0.00     0.004 A 
HETATM   25  C   UNL     1     -42.252  58.228 -51.558  1.00  0.00     0.014 A 
BRANCH  22  26
HETATM   26  O   UNL     1     -41.449  59.945 -55.258  1.00  0.00    -0.356 OA
HETATM   27  C   UNL     1     -42.547  60.088 -56.150  1.00  0.00     0.210 C 
ENDBRANCH  22  26
ENDBRANCH   1  20
BRANCH   3  28
HETATM   28  C   UNL     1     -40.291  53.343 -50.667  1.00  0.00     0.189 C 
BRANCH  28  29
HETATM   29  C   UNL     1     -40.017  51.973 -51.238  1.00  0.00    -0.038 A 
HETATM   30  C   UNL     1     -40.118  50.829 -50.433  1.00  0.00     0.009 A 
HETATM   31  C   UNL     1     -39.891  49.562 -50.973  1.00  0.00     0.001 A 
HETATM   32  C   UNL     1     -39.562  49.423 -52.320  1.00  0.00     0.000 A 
HETATM   33  C   UNL     1     -39.458  50.551 -53.130  1.00  0.00     0.001 A 
HETATM   34  C   UNL     1     -39.686  51.819 -52.594  1.00  0.00     0.009 A 
ENDBRANCH  28  29
ENDBRANCH   3  28
TORSDOF 7
ENDMDL
MODEL 2
REMARK VINA RESULT:      -8.6      1.994      7.566
REMARK  7 active torsions:
REMARK  status: ('A' for Active; 'I' for Inactive)
REMARK    1  A    between atoms: O_2  and  C_3 
REMARK    2  A    between atoms: C_5  and  C_6 
REMARK    3  A    between atoms: N_8  and  C_9 
REMARK    4  A    between atoms: C_9  and  C_10 
REMARK    5  A    between atoms: C_17  and  C_18 
REMARK       I    between atoms: C_18  and  N_19 
REMARK    6  A    between atoms: N_19  and  N_20 
REMARK       I    between atoms: N_20  and  C_21 
REMARK    7  A    between atoms: C_21  and  C_22 
ROOT
HETATM    1  C   UNL     1     -42.454  57.401 -55.266  1.00  0.00     0.104 A 
HETATM    2  N   UNL     1     -42.704  58.228 -56.300  1.00  0.00    -0.171 NA
HETATM    3  N   UNL     1     -42.934  57.421 -57.346  1.00  0.00    -0.275 N 
HETATM    4  C   UNL     1     -42.872  56.099 -57.026  1.00  0.00     0.132 A 
HETATM    5  C   UNL     1     -42.554  56.030 -55.677  1.00  0.00     0.082 A 
ENDROOT
BRANCH   5   6
HETATM    6  C   UNL     1     -42.343  54.810 -54.909  1.00  0.00     0.274 C 
HETATM    7  N   UNL     1     -41.059  54.303 -54.982  1.00  0.00    -0.263 N 
HETATM    8  H   UNL     1     -40.380  54.645 -55.659  1.00  0.00     0.190 HD
HETATM    9  O   UNL     1     -43.220  54.248 -54.258  1.00  0.00    -0.266 OA
BRANCH   7  10
HETATM   10  N   UNL     1     -40.806  53.023 -54.463  1.00  0.00    -0.262 N 
HETATM   11  C   UNL     1     -40.326  52.926 -53.174  1.00  0.00     0.286 C 
HETATM   12  O   UNL     1     -40.203  53.920 -52.456  1.00  0.00    -0.264 OA
HETATM   13  H   UNL     1     -40.819  52.248 -55.120  1.00  0.00     0.190 HD
BRANCH  11  14
HETATM   14  C   UNL     1     -39.975  51.597 -52.726  1.00  0.00     0.102 A 
HETATM   15  N   UNL     1     -39.728  51.334 -51.394  1.00  0.00    -0.361 N 
HETATM   16  H   UNL     1     -39.776  52.036 -50.665  1.00  0.00     0.165 HD
HETATM   17  C   UNL     1     -39.421  50.012 -51.217  1.00  0.00     0.088 A 
HETATM   18  C   UNL     1     -39.464  49.403 -52.450  1.00  0.00     0.019 A 
HETATM   19  C   UNL     1     -39.811  50.397 -53.400  1.00  0.00     0.036 A 
ENDBRANCH  11  14
ENDBRANCH   7  10
ENDBRANCH   5   6
BRANCH   1  20
HETATM   20  C   UNL     1     -42.154  57.983 -53.952  1.00  0.00    -0.002 A 
HETATM   21  C   UNL     1     -40.857  58.366 -53.589  1.00  0.00     0.050 A 
HETATM   22  C   UNL     1     -40.592  58.908 -52.326  1.00  0.00     0.069 A 
HETATM   23  C   UNL     1     -41.628  59.040 -51.400  1.00  0.00     0.037 A 
HETATM   24  C   UNL     1     -42.921  58.644 -51.740  1.00  0.00     0.004 A 
HETATM   25  C   UNL     1     -43.183  58.121 -53.007  1.00  0.00     0.014 A 
BRANCH  22  26
HETATM   26  O   UNL     1     -39.284  59.253 -52.112  1.00  0.00    -0.356 OA
HETATM   27  C   UNL     1     -38.887  59.439 -50.759  1.00  0.00     0.210 C 
ENDBRANCH  22  26
ENDBRANCH   1  20
BRANCH   3  28
HETATM   28  C   UNL     1     -43.280  57.990 -58.642  1.00  0.00     0.189 C 
BRANCH  28  29
HETATM   29  C   UNL     1     -44.458  57.293 -59.276  1.00  0.00    -0.038 A 
HETATM   30  C   UNL     1     -45.768  57.582 -58.863  1.00  0.00     0.009 A 
HETATM   31  C   UNL     1     -46.856  56.955 -59.473  1.00  0.00     0.001 A 
HETATM   32  C   UNL     1     -46.650  56.037 -60.500  1.00  0.00     0.000 A 
HETATM   33  C   UNL     1     -45.354  55.741 -60.919  1.00  0.00     0.001 A 
HETATM   34  C   UNL     1     -44.265  56.366 -60.313  1.00  0.00     0.009 A 
ENDBRANCH  28  29
ENDBRANCH   3  28
TORSDOF 7
ENDMDL
MODEL 3
REMARK VINA RESULT:      -8.6      1.038      1.812
REMARK  7 active torsions:
REMARK  status: ('A' for Active; 'I' for Inactive)
REMARK    1  A    between atoms: O_2  and  C_3 
REMARK    2  A    between atoms: C_5  and  C_6 
REMARK    3  A    between atoms: N_8  and  C_9 
REMARK    4  A    between atoms: C_9  and  C_10 
REMARK    5  A    between atoms: C_17  and  C_18 
REMARK       I    between atoms: C_18  and  N_19 
REMARK    6  A    between atoms: N_19  and  N_20 
REMARK       I    between atoms: N_20  and  C_21 
REMARK    7  A    between atoms: C_21  and  C_22 
ROOT
HETATM    1  C   UNL     1     -41.750  56.021 -52.384  1.00  0.00     0.104 A 
HETATM    2  N   UNL     1     -40.977  55.528 -51.397  1.00  0.00    -0.171 NA
HETATM    3  N   UNL     1     -41.024  54.197 -51.548  1.00  0.00    -0.275 N 
HETATM    4  C   UNL     1     -41.775  53.805 -52.614  1.00  0.00     0.132 A 
HETATM    5  C   UNL     1     -42.279  54.961 -53.192  1.00  0.00     0.082 A 
ENDROOT
BRANCH   5   6
HETATM    6  C   UNL     1     -43.172  55.023 -54.341  1.00  0.00     0.274 C 
HETATM    7  N   UNL     1     -42.617  54.567 -55.523  1.00  0.00    -0.263 N 
HETATM    8  H   UNL     1     -41.620  54.383 -55.616  1.00  0.00     0.190 HD
HETATM    9  O   UNL     1     -44.321  55.457 -54.297  1.00  0.00    -0.266 OA
BRANCH   7  10
HETATM   10  N   UNL     1     -43.309  54.785 -56.725  1.00  0.00    -0.262 N 
HETATM   11  C   UNL     1     -43.072  55.957 -57.410  1.00  0.00     0.286 C 
HETATM   12  O   UNL     1     -42.212  56.757 -57.038  1.00  0.00    -0.264 OA
HETATM   13  H   UNL     1     -44.079  54.154 -56.934  1.00  0.00     0.190 HD
BRANCH  11  14
HETATM   14  C   UNL     1     -43.891  56.185 -58.579  1.00  0.00     0.102 A 
HETATM   15  N   UNL     1     -45.087  56.868 -58.491  1.00  0.00    -0.361 N 
HETATM   16  H   UNL     1     -45.457  57.242 -57.625  1.00  0.00     0.165 HD
HETATM   17  C   UNL     1     -45.676  56.961 -59.723  1.00  0.00     0.088 A 
HETATM   18  C   UNL     1     -44.857  56.328 -60.628  1.00  0.00     0.019 A 
HETATM   19  C   UNL     1     -43.735  55.839 -59.912  1.00  0.00     0.036 A 
ENDBRANCH  11  14
ENDBRANCH   7  10
ENDBRANCH   5   6
BRANCH   1  20
HETATM   20  C   UNL     1     -41.913  57.476 -52.494  1.00  0.00    -0.002 A 
HETATM   21  C   UNL     1     -42.701  58.205 -51.594  1.00  0.00     0.050 A 
HETATM   22  C   UNL     1     -42.852  59.590 -51.726  1.00  0.00     0.069 A 
HETATM   23  C   UNL     1     -42.236  60.254 -52.787  1.00  0.00     0.037 A 
HETATM   24  C   UNL     1     -41.464  59.540 -53.703  1.00  0.00     0.004 A 
HETATM   25  C   UNL     1     -41.303  58.161 -53.557  1.00  0.00     0.014 A 
BRANCH  22  26
HETATM   26  O   UNL     1     -43.635  60.176 -50.767  1.00  0.00    -0.356 OA
HETATM   27  C   UNL     1     -44.179  61.452 -51.080  1.00  0.00     0.210 C 
ENDBRANCH  22  26
ENDBRANCH   1  20
BRANCH   3  28
HETATM   28  C   UNL     1     -40.258  53.336 -50.656  1.00  0.00     0.189 C 
BRANCH  28  29
HETATM   29  C   UNL     1     -40.032  51.964 -51.241  1.00  0.00    -0.038 A 
HETATM   30  C   UNL     1     -39.684  51.811 -52.592  1.00  0.00     0.009 A 
HETATM   31  C   UNL     1     -39.448  50.541 -53.122  1.00  0.00     0.001 A 
HETATM   32  C   UNL     1     -39.555  49.413 -52.312  1.00  0.00     0.000 A 
HETATM   33  C   UNL     1     -39.900  49.551 -50.969  1.00  0.00     0.001 A 
HETATM   34  C   UNL     1     -40.135  50.819 -50.436  1.00  0.00     0.009 A 
ENDBRANCH  28  29
ENDBRANCH   3  28
TORSDOF 7
ENDMDL
MODEL 4
REMARK VINA RESULT:      -8.6      1.689      6.319
REMARK  7 active torsions:
REMARK  status: ('A' for Active; 'I' for Inactive)
REMARK    1  A    between atoms: O_2  and  C_3 
REMARK    2  A    between atoms: C_5  and  C_6 
REMARK    3  A    between atoms: N_8  and  C_9 
REMARK    4  A    between atoms: C_9  and  C_10 
REMARK    5  A    between atoms: C_17  and  C_18 
REMARK       I    between atoms: C_18  and  N_19 
REMARK    6  A    between atoms: N_19  and  N_20 
REMARK       I    between atoms: N_20  and  C_21 
REMARK    7  A    between atoms: C_21  and  C_22 
ROOT
HETATM    1  C   UNL     1     -41.523  55.544 -52.445  1.00  0.00     0.104 A 
HETATM    2  N   UNL     1     -41.222  56.487 -51.531  1.00  0.00    -0.171 NA
HETATM    3  N   UNL     1     -41.938  57.562 -51.888  1.00  0.00    -0.275 N 
HETATM    4  C   UNL     1     -42.717  57.347 -52.984  1.00  0.00     0.132 A 
HETATM    5  C   UNL     1     -42.478  56.043 -53.392  1.00  0.00     0.082 A 
ENDROOT
BRANCH   5   6
HETATM    6  C   UNL     1     -43.065  55.388 -54.554  1.00  0.00     0.274 C 
HETATM    7  N   UNL     1     -42.547  55.803 -55.767  1.00  0.00    -0.263 N 
HETATM    8  H   UNL     1     -41.949  56.622 -55.847  1.00  0.00     0.190 HD
HETATM    9  O   UNL     1     -43.960  54.548 -54.490  1.00  0.00    -0.266 OA
BRANCH   7  10
HETATM   10  N   UNL     1     -43.189  55.401 -56.950  1.00  0.00    -0.262 N 
HETATM   11  C   UNL     1     -43.461  56.360 -57.902  1.00  0.00     0.286 C 
HETATM   12  O   UNL     1     -43.076  57.523 -57.771  1.00  0.00    -0.264 OA
HETATM   13  H   UNL     1     -43.579  54.462 -56.966  1.00  0.00     0.190 HD
BRANCH  11  14
HETATM   14  C   UNL     1     -44.222  55.918 -59.048  1.00  0.00     0.102 A 
HETATM   15  N   UNL     1     -45.507  56.369 -59.269  1.00  0.00    -0.361 N 
HETATM   16  H   UNL     1     -45.987  57.021 -58.659  1.00  0.00     0.165 HD
HETATM   17  C   UNL     1     -46.018  55.816 -60.413  1.00  0.00     0.088 A 
HETATM   18  C   UNL     1     -45.055  54.990 -60.945  1.00  0.00     0.019 A 
HETATM   19  C   UNL     1     -43.926  55.052 -60.090  1.00  0.00     0.036 A 
ENDBRANCH  11  14
ENDBRANCH   7  10
ENDBRANCH   5   6
BRANCH   1  20
HETATM   20  C   UNL     1     -40.887  54.226 -52.335  1.00  0.00    -0.002 A 
HETATM   21  C   UNL     1     -40.713  53.391 -53.446  1.00  0.00     0.050 A 
HETATM   22  C   UNL     1     -40.115  52.132 -53.316  1.00  0.00     0.069 A 
HETATM   23  C   UNL     1     -39.714  51.685 -52.056  1.00  0.00     0.037 A 
HETATM   24  C   UNL     1     -39.898  52.497 -50.937  1.00  0.00     0.004 A 
HETATM   25  C   UNL     1     -40.479  53.758 -51.076  1.00  0.00     0.014 A 
BRANCH  22  26
HETATM   26  O   UNL     1     -39.994  51.431 -54.486  1.00  0.00    -0.356 OA
HETATM   27  C   UNL     1     -40.057  50.013 -54.388  1.00  0.00     0.210 C 
ENDBRANCH  22  26
ENDBRANCH   1  20
BRANCH   3  28
HETATM   28  C   UNL     1     -41.881  58.776 -51.084  1.00  0.00     0.189 C 
BRANCH  28  29
HETATM   29  C   UNL     1     -42.895  59.802 -51.525  1.00  0.00    -0.038 A 
HETATM   30  C   UNL     1     -44.162  59.861 -50.922  1.00  0.00     0.009 A 
HETATM   31  C   UNL     1     -45.087  60.831 -51.314  1.00  0.00     0.001 A 
HETATM   32  C   UNL     1     -44.759  61.751 -52.307  1.00  0.00     0.000 A 
HETATM   33  C   UNL     1     -43.505  61.703 -52.913  1.00  0.00     0.001 A 
HETATM   34  C   UNL     1     -42.578  60.736 -52.523  1.00  0.00     0.009 A 
ENDBRANCH  28  29
ENDBRANCH   3  28
TORSDOF 7
ENDMDL
MODEL 5
REMARK VINA RESULT:      -8.6      2.033      6.280
REMARK  7 active torsions:
REMARK  status: ('A' for Active; 'I' for Inactive)
REMARK    1  A    between atoms: O_2  and  C_3 
REMARK    2  A    between atoms: C_5  and  C_6 
REMARK    3  A    between atoms: N_8  and  C_9 
REMARK    4  A    between atoms: C_9  and  C_10 
REMARK    5  A    between atoms: C_17  and  C_18 
REMARK       I    between atoms: C_18  and  N_19 
REMARK    6  A    between atoms: N_19  and  N_20 
REMARK       I    between atoms: N_20  and  C_21 
REMARK    7  A    between atoms: C_21  and  C_22 
ROOT
HETATM    1  C   UNL     1     -41.238  55.113 -53.250  1.00  0.00     0.104 A 
HETATM    2  N   UNL     1     -40.981  55.945 -52.222  1.00  0.00    -0.171 NA
HETATM    3  N   UNL     1     -41.585  57.097 -52.545  1.00  0.00    -0.275 N 
HETATM    4  C   UNL     1     -42.251  57.038 -53.731  1.00  0.00     0.132 A 
HETATM    5  C   UNL     1     -42.050  55.763 -54.238  1.00  0.00     0.082 A 
ENDROOT
BRANCH   5   6
HETATM    6  C   UNL     1     -42.545  55.260 -55.512  1.00  0.00     0.274 C 
HETATM    7  N   UNL     1     -42.206  56.037 -56.605  1.00  0.00    -0.263 N 
HETATM    8  H   UNL     1     -41.810  56.969 -56.503  1.00  0.00     0.190 HD
HETATM    9  O   UNL     1     -43.226  54.244 -55.633  1.00  0.00    -0.266 OA
BRANCH   7  10
HETATM   10  N   UNL     1     -42.811  55.767 -57.842  1.00  0.00    -0.262 N 
HETATM   11  C   UNL     1     -43.951  56.468 -58.177  1.00  0.00     0.286 C 
HETATM   12  O   UNL     1     -44.383  57.372 -57.461  1.00  0.00    -0.264 OA
HETATM   13  H   UNL     1     -42.485  54.946 -58.346  1.00  0.00     0.190 HD
BRANCH  11  14
HETATM   14  C   UNL     1     -44.599  56.074 -59.407  1.00  0.00     0.102 A 
HETATM   15  N   UNL     1     -45.830  56.587 -59.762  1.00  0.00    -0.361 N 
HETATM   16  H   UNL     1     -46.344  57.253 -59.199  1.00  0.00     0.165 HD
HETATM   17  C   UNL     1     -46.235  56.069 -60.964  1.00  0.00     0.088 A 
HETATM   18  C   UNL     1     -45.258  55.205 -61.398  1.00  0.00     0.019 A 
HETATM   19  C   UNL     1     -44.229  55.205 -60.423  1.00  0.00     0.036 A 
ENDBRANCH  11  14
ENDBRANCH   7  10
ENDBRANCH   5   6
BRANCH   1  20
HETATM   20  C   UNL     1     -40.701  53.747 -53.204  1.00  0.00    -0.002 A 
HETATM   21  C   UNL     1     -40.507  53.066 -51.996  1.00  0.00     0.050 A 
HETATM   22  C   UNL     1     -39.982  51.768 -51.976  1.00  0.00     0.069 A 
HETATM   23  C   UNL     1     -39.615  51.153 -53.173  1.00  0.00     0.037 A 
HETATM   24  C   UNL     1     -39.783  51.827 -54.383  1.00  0.00     0.004 A 
HETATM   25  C   UNL     1     -40.323  53.113 -54.399  1.00  0.00     0.014 A 
BRANCH  22  26
HETATM   26  O   UNL     1     -39.863  51.217 -50.728  1.00  0.00    -0.356 OA
HETATM   27  C   UNL     1     -39.656  49.811 -50.670  1.00  0.00     0.210 C 
ENDBRANCH  22  26
ENDBRANCH   1  20
BRANCH   3  28
HETATM   28  C   UNL     1     -41.542  58.225 -51.623  1.00  0.00     0.189 C 
BRANCH  28  29
HETATM   29  C   UNL     1     -42.916  58.775 -51.327  1.00  0.00    -0.038 A 
HETATM   30  C   UNL     1     -44.025  57.919 -51.245  1.00  0.00     0.009 A 
HETATM   31  C   UNL     1     -45.290  58.429 -50.943  1.00  0.00     0.001 A 
HETATM   32  C   UNL     1     -45.459  59.793 -50.717  1.00  0.00     0.000 A 
HETATM   33  C   UNL     1     -44.365  60.653 -50.796  1.00  0.00     0.001 A 
HETATM   34  C   UNL     1     -43.101  60.147 -51.097  1.00  0.00     0.009 A 
ENDBRANCH  28  29
ENDBRANCH   3  28
TORSDOF 7
ENDMDL
MODEL 6
REMARK VINA RESULT:      -8.2      2.670      8.367
REMARK  7 active torsions:
REMARK  status: ('A' for Active; 'I' for Inactive)
REMARK    1  A    between atoms: O_2  and  C_3 
REMARK    2  A    between atoms: C_5  and  C_6 
REMARK    3  A    between atoms: N_8  and  C_9 
REMARK    4  A    between atoms: C_9  and  C_10 
REMARK    5  A    between atoms: C_17  and  C_18 
REMARK       I    between atoms: C_18  and  N_19 
REMARK    6  A    between atoms: N_19  and  N_20 
REMARK       I    between atoms: N_20  and  C_21 
REMARK    7  A    between atoms: C_21  and  C_22 
ROOT
HETATM    1  C   UNL     1     -42.248  56.532 -55.866  1.00  0.00     0.104 A 
HETATM    2  N   UNL     1     -42.424  56.215 -57.163  1.00  0.00    -0.171 NA
HETATM    3  N   UNL     1     -42.659  57.381 -57.780  1.00  0.00    -0.275 N 
HETATM    4  C   UNL     1     -42.614  58.451 -56.938  1.00  0.00     0.132 A 
HETATM    5  C   UNL     1     -42.356  57.950 -55.671  1.00  0.00     0.082 A 
ENDROOT
BRANCH   5   6
HETATM    6  C   UNL     1     -42.260  58.731 -54.445  1.00  0.00     0.274 C 
HETATM    7  N   UNL     1     -43.421  58.758 -53.693  1.00  0.00    -0.263 N 
HETATM    8  H   UNL     1     -44.309  58.421 -54.057  1.00  0.00     0.190 HD
HETATM    9  O   UNL     1     -41.252  59.340 -54.094  1.00  0.00    -0.266 OA
BRANCH   7  10
HETATM   10  N   UNL     1     -43.507  59.652 -52.613  1.00  0.00    -0.262 N 
HETATM   11  C   UNL     1     -44.119  59.219 -51.456  1.00  0.00     0.286 C 
HETATM   12  O   UNL     1     -44.502  58.056 -51.327  1.00  0.00    -0.264 OA
HETATM   13  H   UNL     1     -43.276  60.624 -52.801  1.00  0.00     0.190 HD
BRANCH  11  14
HETATM   14  C   UNL     1     -44.284  60.211 -50.417  1.00  0.00     0.102 A 
HETATM   15  N   UNL     1     -45.276  60.090 -49.465  1.00  0.00    -0.361 N 
HETATM   16  H   UNL     1     -45.934  59.320 -49.435  1.00  0.00     0.165 HD
HETATM   17  C   UNL     1     -45.230  61.142 -48.591  1.00  0.00     0.088 A 
HETATM   18  C   UNL     1     -44.197  61.964 -48.978  1.00  0.00     0.019 A 
HETATM   19  C   UNL     1     -43.601  61.382 -50.125  1.00  0.00     0.036 A 
ENDBRANCH  11  14
ENDBRANCH   7  10
ENDBRANCH   5   6
BRANCH   1  20
HETATM   20  C   UNL     1     -41.972  55.456 -54.906  1.00  0.00    -0.002 A 
HETATM   21  C   UNL     1     -42.829  55.180 -53.834  1.00  0.00     0.050 A 
HETATM   22  C   UNL     1     -42.540  54.156 -52.924  1.00  0.00     0.069 A 
HETATM   23  C   UNL     1     -41.363  53.420 -53.065  1.00  0.00     0.037 A 
HETATM   24  C   UNL     1     -40.489  53.696 -54.116  1.00  0.00     0.004 A 
HETATM   25  C   UNL     1     -40.792  54.706 -55.030  1.00  0.00     0.014 A 
BRANCH  22  26
HETATM   26  O   UNL     1     -43.473  53.986 -51.936  1.00  0.00    -0.356 OA
HETATM   27  C   UNL     1     -43.181  54.575 -50.675  1.00  0.00     0.210 C 
ENDBRANCH  22  26
ENDBRANCH   1  20
BRANCH   3  28
HETATM   28  C   UNL     1     -42.862  57.414 -59.223  1.00  0.00     0.189 C 
BRANCH  28  29
HETATM   29  C   UNL     1     -44.234  56.928 -59.619  1.00  0.00    -0.038 A 
HETATM   30  C   UNL     1     -45.386  57.526 -59.086  1.00  0.00     0.009 A 
HETATM   31  C   UNL     1     -46.654  57.091 -59.477  1.00  0.00     0.001 A 
HETATM   32  C   UNL     1     -46.785  56.058 -60.403  1.00  0.00     0.000 A 
HETATM   33  C   UNL     1     -45.649  55.456 -60.939  1.00  0.00     0.001 A 
HETATM   34  C   UNL     1     -44.381  55.889 -60.552  1.00  0.00     0.009 A 
ENDBRANCH  28  29
ENDBRANCH   3  28
TORSDOF 7
ENDMDL
MODEL 7
REMARK VINA RESULT:      -8.1      3.030      5.352
REMARK  7 active torsions:
REMARK  status: ('A' for Active; 'I' for Inactive)
REMARK    1  A    between atoms: O_2  and  C_3 
REMARK    2  A    between atoms: C_5  and  C_6 
REMARK    3  A    between atoms: N_8  and  C_9 
REMARK    4  A    between atoms: C_9  and  C_10 
REMARK    5  A    between atoms: C_17  and  C_18 
REMARK       I    between atoms: C_18  and  N_19 
REMARK    6  A    between atoms: N_19  and  N_20 
REMARK       I    between atoms: N_20  and  C_21 
REMARK    7  A    between atoms: C_21  and  C_22 
ROOT
HETATM    1  C   UNL     1     -43.410  57.042 -54.934  1.00  0.00     0.104 A 
HETATM    2  N   UNL     1     -43.643  55.878 -54.296  1.00  0.00    -0.171 NA
HETATM    3  N   UNL     1     -42.794  55.871 -53.259  1.00  0.00    -0.275 N 
HETATM    4  C   UNL     1     -42.036  57.000 -53.179  1.00  0.00     0.132 A 
HETATM    5  C   UNL     1     -42.395  57.797 -54.257  1.00  0.00     0.082 A 
ENDROOT
BRANCH   5   6
HETATM    6  C   UNL     1     -41.812  59.088 -54.597  1.00  0.00     0.274 C 
HETATM    7  N   UNL     1     -42.369  59.691 -55.710  1.00  0.00    -0.263 N 
HETATM    8  H   UNL     1     -42.995  59.193 -56.338  1.00  0.00     0.190 HD
HETATM    9  O   UNL     1     -40.889  59.612 -53.977  1.00  0.00    -0.266 OA
BRANCH   7  10
HETATM   10  N   UNL     1     -41.741  60.824 -56.252  1.00  0.00    -0.262 N 
HETATM   11  C   UNL     1     -41.847  61.042 -57.609  1.00  0.00     0.286 C 
HETATM   12  O   UNL     1     -42.545  60.321 -58.324  1.00  0.00    -0.264 OA
HETATM   13  H   UNL     1     -41.094  61.325 -55.648  1.00  0.00     0.190 HD
BRANCH  11  14
HETATM   14  C   UNL     1     -41.090  62.156 -58.134  1.00  0.00     0.102 A 
HETATM   15  N   UNL     1     -41.276  63.436 -57.653  1.00  0.00    -0.361 N 
HETATM   16  H   UNL     1     -41.938  63.670 -56.922  1.00  0.00     0.165 HD
HETATM   17  C   UNL     1     -40.448  64.314 -58.298  1.00  0.00     0.088 A 
HETATM   18  C   UNL     1     -39.713  63.600 -59.214  1.00  0.00     0.019 A 
HETATM   19  C   UNL     1     -40.114  62.244 -59.114  1.00  0.00     0.036 A 
ENDBRANCH  11  14
ENDBRANCH   7  10
ENDBRANCH   5   6
BRANCH   1  20
HETATM   20  C   UNL     1     -44.188  57.357 -56.138  1.00  0.00    -0.002 A 
HETATM   21  C   UNL     1     -43.737  57.026 -57.421  1.00  0.00     0.050 A 
HETATM   22  C   UNL     1     -44.491  57.346 -58.556  1.00  0.00     0.069 A 
HETATM   23  C   UNL     1     -45.695  58.035 -58.413  1.00  0.00     0.037 A 
HETATM   24  C   UNL     1     -46.149  58.390 -57.143  1.00  0.00     0.004 A 
HETATM   25  C   UNL     1     -45.402  58.053 -56.014  1.00  0.00     0.014 A 
BRANCH  22  26
HETATM   26  O   UNL     1     -43.937  56.948 -59.744  1.00  0.00    -0.356 OA
HETATM   27  C   UNL     1     -43.955  55.552 -60.019  1.00  0.00     0.210 C 
ENDBRANCH  22  26
ENDBRANCH   1  20
BRANCH   3  28
HETATM   28  C   UNL     1     -42.801  54.757 -52.320  1.00  0.00     0.189 C 
BRANCH  28  29
HETATM   29  C   UNL     1     -41.736  53.736 -52.636  1.00  0.00    -0.038 A 
HETATM   30  C   UNL     1     -41.560  53.269 -53.948  1.00  0.00     0.009 A 
HETATM   31  C   UNL     1     -40.554  52.346 -54.241  1.00  0.00     0.001 A 
HETATM   32  C   UNL     1     -39.714  51.882 -53.231  1.00  0.00     0.000 A 
HETATM   33  C   UNL     1     -39.879  52.338 -51.925  1.00  0.00     0.001 A 
HETATM   34  C   UNL     1     -40.882  53.261 -51.629  1.00  0.00     0.009 A 
ENDBRANCH  28  29
ENDBRANCH   3  28
TORSDOF 7
ENDMDL
MODEL 8
REMARK VINA RESULT:      -7.9     15.191     18.110
REMARK  7 active torsions:
REMARK  status: ('A' for Active; 'I' for Inactive)
REMARK    1  A    between atoms: O_2  and  C_3 
REMARK    2  A    between atoms: C_5  and  C_6 
REMARK    3  A    between atoms: N_8  and  C_9 
REMARK    4  A    between atoms: C_9  and  C_10 
REMARK    5  A    between atoms: C_17  and  C_18 
REMARK       I    between atoms: C_18  and  N_19 
REMARK    6  A    between atoms: N_19  and  N_20 
REMARK       I    between atoms: N_20  and  C_21 
REMARK    7  A    between atoms: C_21  and  C_22 
ROOT
HETATM    1  C   UNL     1     -36.115  40.063 -51.013  1.00  0.00     0.104 A 
HETATM    2  N   UNL     1     -35.419  41.039 -51.629  1.00  0.00    -0.171 NA
HETATM    3  N   UNL     1     -36.214  41.463 -52.621  1.00  0.00    -0.275 N 
HETATM    4  C   UNL     1     -37.414  40.821 -52.658  1.00  0.00     0.132 A 
HETATM    5  C   UNL     1     -37.399  39.889 -51.631  1.00  0.00     0.082 A 
ENDROOT
BRANCH   5   6
HETATM    6  C   UNL     1     -38.462  38.944 -51.317  1.00  0.00     0.274 C 
HETATM    7  N   UNL     1     -39.718  39.512 -51.208  1.00  0.00    -0.263 N 
HETATM    8  H   UNL     1     -39.854  40.519 -51.164  1.00  0.00     0.190 HD
HETATM    9  O   UNL     1     -38.283  37.741 -51.140  1.00  0.00    -0.266 OA
BRANCH   7  10
HETATM   10  N   UNL     1     -40.770  38.735 -50.696  1.00  0.00    -0.262 N 
HETATM   11  C   UNL     1     -41.991  38.790 -51.335  1.00  0.00     0.286 C 
HETATM   12  O   UNL     1     -42.143  39.428 -52.378  1.00  0.00    -0.264 OA
HETATM   13  H   UNL     1     -40.630  38.314 -49.781  1.00  0.00     0.190 HD
BRANCH  11  14
HETATM   14  C   UNL     1     -43.070  38.063 -50.705  1.00  0.00     0.102 A 
HETATM   15  N   UNL     1     -44.042  37.433 -51.457  1.00  0.00    -0.361 N 
HETATM   16  H   UNL     1     -44.061  37.441 -52.470  1.00  0.00     0.165 HD
HETATM   17  C   UNL     1     -44.948  36.812 -50.640  1.00  0.00     0.088 A 
HETATM   18  C   UNL     1     -44.566  37.040 -49.340  1.00  0.00     0.019 A 
HETATM   19  C   UNL     1     -43.387  37.826 -49.377  1.00  0.00     0.036 A 
ENDBRANCH  11  14
ENDBRANCH   7  10
ENDBRANCH   5   6
BRANCH   1  20
HETATM   20  C   UNL     1     -35.508  39.378 -49.866  1.00  0.00    -0.002 A 
HETATM   21  C   UNL     1     -36.238  39.079 -48.709  1.00  0.00     0.050 A 
HETATM   22  C   UNL     1     -35.636  38.436 -47.621  1.00  0.00     0.069 A 
HETATM   23  C   UNL     1     -34.278  38.116 -47.674  1.00  0.00     0.037 A 
HETATM   24  C   UNL     1     -33.533  38.426 -48.811  1.00  0.00     0.004 A 
HETATM   25  C   UNL     1     -34.143  39.051 -49.899  1.00  0.00     0.014 A 
BRANCH  22  26
HETATM   26  O   UNL     1     -36.471  38.190 -46.565  1.00  0.00    -0.356 OA
HETATM   27  C   UNL     1     -35.876  37.641 -45.395  1.00  0.00     0.210 C 
ENDBRANCH  22  26
ENDBRANCH   1  20
BRANCH   3  28
HETATM   28  C   UNL     1     -35.783  42.557 -53.482  1.00  0.00     0.189 C 
BRANCH  28  29
HETATM   29  C   UNL     1     -35.819  42.183 -54.943  1.00  0.00    -0.038 A 
HETATM   30  C   UNL     1     -37.013  42.274 -55.675  1.00  0.00     0.009 A 
HETATM   31  C   UNL     1     -37.035  41.955 -57.034  1.00  0.00     0.001 A 
HETATM   32  C   UNL     1     -35.869  41.542 -57.676  1.00  0.00     0.000 A 
HETATM   33  C   UNL     1     -34.677  41.447 -56.960  1.00  0.00     0.001 A 
HETATM   34  C   UNL     1     -34.652  41.767 -55.602  1.00  0.00     0.009 A 
ENDBRANCH  28  29
ENDBRANCH   3  28
TORSDOF 7
ENDMDL
MODEL 9
REMARK VINA RESULT:      -7.9      3.818      7.146
REMARK  7 active torsions:
REMARK  status: ('A' for Active; 'I' for Inactive)
REMARK    1  A    between atoms: O_2  and  C_3 
REMARK    2  A    between atoms: C_5  and  C_6 
REMARK    3  A    between atoms: N_8  and  C_9 
REMARK    4  A    between atoms: C_9  and  C_10 
REMARK    5  A    between atoms: C_17  and  C_18 
REMARK       I    between atoms: C_18  and  N_19 
REMARK    6  A    between atoms: N_19  and  N_20 
REMARK       I    between atoms: N_20  and  C_21 
REMARK    7  A    between atoms: C_21  and  C_22 
ROOT
HETATM    1  C   UNL     1     -43.137  58.070 -53.570  1.00  0.00     0.104 A 
HETATM    2  N   UNL     1     -43.323  56.811 -54.015  1.00  0.00    -0.171 NA
HETATM    3  N   UNL     1     -43.254  56.040 -52.921  1.00  0.00    -0.275 N 
HETATM    4  C   UNL     1     -43.060  56.751 -51.776  1.00  0.00     0.132 A 
HETATM    5  C   UNL     1     -42.969  58.084 -52.146  1.00  0.00     0.082 A 
ENDROOT
BRANCH   5   6
HETATM    6  C   UNL     1     -42.721  59.206 -51.249  1.00  0.00     0.274 C 
HETATM    7  N   UNL     1     -43.778  59.513 -50.412  1.00  0.00    -0.263 N 
HETATM    8  H   UNL     1     -44.705  59.114 -50.543  1.00  0.00     0.190 HD
HETATM    9  O   UNL     1     -41.677  59.854 -51.231  1.00  0.00    -0.266 OA
BRANCH   7  10
HETATM   10  N   UNL     1     -43.728  60.703 -49.668  1.00  0.00    -0.262 N 
HETATM   11  C   UNL     1     -44.859  61.088 -48.978  1.00  0.00     0.286 C 
HETATM   12  O   UNL     1     -45.860  60.372 -48.934  1.00  0.00    -0.264 OA
HETATM   13  H   UNL     1     -42.926  61.308 -49.820  1.00  0.00     0.190 HD
BRANCH  11  14
HETATM   14  C   UNL     1     -44.794  62.374 -48.322  1.00  0.00     0.102 A 
HETATM   15  N   UNL     1     -45.299  62.554 -47.051  1.00  0.00    -0.361 N 
HETATM   16  H   UNL     1     -45.737  61.816 -46.511  1.00  0.00     0.165 HD
HETATM   17  C   UNL     1     -45.119  63.848 -46.644  1.00  0.00     0.088 A 
HETATM   18  C   UNL     1     -44.491  64.524 -47.663  1.00  0.00     0.019 A 
HETATM   19  C   UNL     1     -44.285  63.601 -48.719  1.00  0.00     0.036 A 
ENDBRANCH  11  14
ENDBRANCH   7  10
ENDBRANCH   5   6
BRANCH   1  20
HETATM   20  C   UNL     1     -43.151  59.171 -54.541  1.00  0.00    -0.002 A 
HETATM   21  C   UNL     1     -42.150  59.320 -55.508  1.00  0.00     0.050 A 
HETATM   22  C   UNL     1     -42.177  60.386 -56.416  1.00  0.00     0.069 A 
HETATM   23  C   UNL     1     -43.197  61.334 -56.337  1.00  0.00     0.037 A 
HETATM   24  C   UNL     1     -44.190  61.211 -55.366  1.00  0.00     0.004 A 
HETATM   25  C   UNL     1     -44.168  60.137 -54.475  1.00  0.00     0.014 A 
BRANCH  22  26
HETATM   26  O   UNL     1     -41.146  60.398 -57.318  1.00  0.00    -0.356 OA
HETATM   27  C   UNL     1     -41.118  61.481 -58.239  1.00  0.00     0.210 C 
ENDBRANCH  22  26
ENDBRANCH   1  20
BRANCH   3  28
HETATM   28  C   UNL     1     -43.451  54.600 -53.032  1.00  0.00     0.189 C 
BRANCH  28  29
HETATM   29  C   UNL     1     -42.145  53.850 -53.121  1.00  0.00    -0.038 A 
HETATM   30  C   UNL     1     -41.420  53.536 -51.961  1.00  0.00     0.009 A 
HETATM   31  C   UNL     1     -40.227  52.816 -52.046  1.00  0.00     0.001 A 
HETATM   32  C   UNL     1     -39.745  52.403 -53.287  1.00  0.00     0.000 A 
HETATM   33  C   UNL     1     -40.456  52.708 -54.446  1.00  0.00     0.001 A 
HETATM   34  C   UNL     1     -41.649  53.426 -54.364  1.00  0.00     0.009 A 
ENDBRANCH  28  29
ENDBRANCH   3  28
TORSDOF 7
ENDMDL
MODEL 10
REMARK VINA RESULT:      -7.8     15.549     18.826
REMARK  7 active torsions:
REMARK  status: ('A' for Active; 'I' for Inactive)
REMARK    1  A    between atoms: O_2  and  C_3 
REMARK    2  A    between atoms: C_5  and  C_6 
REMARK    3  A    between atoms: N_8  and  C_9 
REMARK    4  A    between atoms: C_9  and  C_10 
REMARK    5  A    between atoms: C_17  and  C_18 
REMARK       I    between atoms: C_18  and  N_19 
REMARK    6  A    between atoms: N_19  and  N_20 
REMARK       I    between atoms: N_20  and  C_21 
REMARK    7  A    between atoms: C_21  and  C_22 
ROOT
HETATM    1  C   UNL     1     -35.568  40.993 -56.397  1.00  0.00     0.104 A 
HETATM    2  N   UNL     1     -36.263  41.606 -55.419  1.00  0.00    -0.171 NA
HETATM    3  N   UNL     1     -35.481  41.530 -54.333  1.00  0.00    -0.275 N 
HETATM    4  C   UNL     1     -34.289  40.916 -54.573  1.00  0.00     0.132 A 
HETATM    5  C   UNL     1     -34.298  40.538 -55.908  1.00  0.00     0.082 A 
ENDROOT
BRANCH   5   6
HETATM    6  C   UNL     1     -33.241  39.811 -56.598  1.00  0.00     0.274 C 
HETATM    7  N   UNL     1     -31.960  40.208 -56.261  1.00  0.00    -0.263 N 
HETATM    8  H   UNL     1     -31.780  41.054 -55.725  1.00  0.00     0.190 HD
HETATM    9  O   UNL     1     -33.443  38.928 -57.429  1.00  0.00    -0.266 OA
BRANCH   7  10
HETATM   10  N   UNL     1     -30.881  39.729 -57.022  1.00  0.00    -0.262 N 
HETATM   11  C   UNL     1     -30.005  38.846 -56.427  1.00  0.00     0.286 C 
HETATM   12  O   UNL     1     -30.202  38.411 -55.292  1.00  0.00    -0.264 OA
HETATM   13  H   UNL     1     -30.701  40.194 -57.909  1.00  0.00     0.190 HD
BRANCH  11  14
HETATM   14  C   UNL     1     -28.851  38.473 -57.213  1.00  0.00     0.102 A 
HETATM   15  N   UNL     1     -28.623  39.027 -58.457  1.00  0.00    -0.361 N 
HETATM   16  H   UNL     1     -29.235  39.711 -58.887  1.00  0.00     0.165 HD
HETATM   17  C   UNL     1     -27.473  38.522 -59.001  1.00  0.00     0.088 A 
HETATM   18  C   UNL     1     -26.943  37.626 -58.104  1.00  0.00     0.019 A 
HETATM   19  C   UNL     1     -27.806  37.592 -56.980  1.00  0.00     0.036 A 
ENDBRANCH  11  14
ENDBRANCH   7  10
ENDBRANCH   5   6
BRANCH   1  20
HETATM   20  C   UNL     1     -36.163  40.901 -57.735  1.00  0.00    -0.002 A 
HETATM   21  C   UNL     1     -36.151  39.710 -58.473  1.00  0.00     0.050 A 
HETATM   22  C   UNL     1     -36.715  39.649 -59.753  1.00  0.00     0.069 A 
HETATM   23  C   UNL     1     -37.267  40.798 -60.320  1.00  0.00     0.037 A 
HETATM   24  C   UNL     1     -37.268  41.996 -59.606  1.00  0.00     0.004 A 
HETATM   25  C   UNL     1     -36.722  42.047 -58.324  1.00  0.00     0.014 A 
BRANCH  22  26
HETATM   26  O   UNL     1     -36.648  38.418 -60.351  1.00  0.00    -0.356 OA
HETATM   27  C   UNL     1     -35.409  38.071 -60.956  1.00  0.00     0.210 C 
ENDBRANCH  22  26
ENDBRANCH   1  20
BRANCH   3  28
HETATM   28  C   UNL     1     -35.913  42.136 -53.080  1.00  0.00     0.189 C 
BRANCH  28  29
HETATM   29  C   UNL     1     -36.341  41.105 -52.065  1.00  0.00    -0.038 A 
HETATM   30  C   UNL     1     -37.537  40.391 -52.230  1.00  0.00     0.009 A 
HETATM   31  C   UNL     1     -37.914  39.417 -51.303  1.00  0.00     0.001 A 
HETATM   32  C   UNL     1     -37.102  39.146 -50.203  1.00  0.00     0.000 A 
HETATM   33  C   UNL     1     -35.912  39.848 -50.028  1.00  0.00     0.001 A 
HETATM   34  C   UNL     1     -35.532  40.820 -50.953  1.00  0.00     0.009 A 
ENDBRANCH  28  29
ENDBRANCH   3  28
TORSDOF 7
ENDMDL
