MODEL 1
REMARK VINA RESULT:      -8.4      0.000      0.000
REMARK  2 active torsions:
REMARK  status: ('A' for Active; 'I' for Inactive)
REMARK    1  A    between atoms: C_4  and  C_5 
REMARK    2  A    between atoms: N_11  and  C_12 
ROOT
HETATM    1  C   UNL     1     -43.023  57.111 -56.884  1.00  0.00     0.069 A 
HETATM    2  N   UNL     1     -42.109  56.077 -56.768  1.00  0.00    -0.343 N 
HETATM    3  C   UNL     1     -42.023  55.318 -55.637  1.00  0.00     0.119 A 
HETATM    4  C   UNL     1     -42.880  55.498 -54.618  1.00  0.00     0.125 A 
HETATM    5  C   UNL     1     -42.569  54.468 -53.612  1.00  0.00     0.280 A 
HETATM    6  O   UNL     1     -43.165  54.318 -52.560  1.00  0.00    -0.265 OA
HETATM    7  N   UNL     1     -41.492  53.744 -54.145  1.00  0.00    -0.236 N 
HETATM    8  N   UNL     1     -41.128  54.295 -55.392  1.00  0.00    -0.179 NA
HETATM    9  C   UNL     1     -43.923  56.530 -54.675  1.00  0.00     0.215 A 
HETATM   10  O   UNL     1     -44.735  56.687 -53.771  1.00  0.00    -0.285 OA
HETATM   11  C   UNL     1     -43.928  57.384 -55.918  1.00  0.00     0.112 A 
HETATM   12 CL   UNL     1     -45.094  58.651 -56.001  1.00  0.00    -0.077 Cl
HETATM   13  H   UNL     1     -41.363  56.014 -57.454  1.00  0.00     0.167 HD
HETATM   14  H   UNL     1     -41.153  53.604 -56.143  1.00  0.00     0.155 HD
ENDROOT
BRANCH   1  15
HETATM   15  C   UNL     1     -42.938  57.892 -58.129  1.00  0.00    -0.008 A 
HETATM   16  C   UNL     1     -43.667  57.500 -59.260  1.00  0.00     0.014 A 
HETATM   17  C   UNL     1     -43.592  58.247 -60.436  1.00  0.00     0.001 A 
HETATM   18  C   UNL     1     -42.791  59.388 -60.489  1.00  0.00     0.000 A 
HETATM   19  C   UNL     1     -42.064  59.784 -59.367  1.00  0.00     0.001 A 
HETATM   20  C   UNL     1     -42.137  59.040 -58.189  1.00  0.00     0.014 A 
ENDBRANCH   1  15
BRANCH   7  21
HETATM   21  C   UNL     1     -40.773  52.659 -53.598  1.00  0.00     0.055 A 
HETATM   22  C   UNL     1     -40.234  52.722 -52.308  1.00  0.00     0.031 A 
HETATM   23  C   UNL     1     -39.532  51.638 -51.768  1.00  0.00     0.002 A 
HETATM   24  C   UNL     1     -39.356  50.476 -52.513  1.00  0.00     0.000 A 
HETATM   25  C   UNL     1     -39.879  50.397 -53.799  1.00  0.00     0.002 A 
HETATM   26  C   UNL     1     -40.581  51.480 -54.338  1.00  0.00     0.031 A 
ENDBRANCH   7  21
TORSDOF 2
ENDMDL
MODEL 2
REMARK VINA RESULT:      -8.4      1.627      7.627
REMARK  2 active torsions:
REMARK  status: ('A' for Active; 'I' for Inactive)
REMARK    1  A    between atoms: C_4  and  C_5 
REMARK    2  A    between atoms: N_11  and  C_12 
ROOT
HETATM    1  C   UNL     1     -41.624  53.790 -53.938  1.00  0.00     0.069 A 
HETATM    2  N   UNL     1     -41.456  54.227 -55.240  1.00  0.00    -0.343 N 
HETATM    3  C   UNL     1     -42.158  55.285 -55.740  1.00  0.00     0.119 A 
HETATM    4  C   UNL     1     -42.988  55.994 -54.956  1.00  0.00     0.125 A 
HETATM    5  C   UNL     1     -43.506  57.102 -55.776  1.00  0.00     0.280 A 
HETATM    6  O   UNL     1     -44.273  57.962 -55.382  1.00  0.00    -0.265 OA
HETATM    7  N   UNL     1     -42.919  56.934 -57.039  1.00  0.00    -0.236 N 
HETATM    8  N   UNL     1     -42.105  55.781 -57.028  1.00  0.00    -0.179 NA
HETATM    9  C   UNL     1     -43.186  55.643 -53.544  1.00  0.00     0.215 A 
HETATM   10  O   UNL     1     -43.912  56.296 -52.805  1.00  0.00    -0.285 OA
HETATM   11  C   UNL     1     -42.438  54.425 -53.064  1.00  0.00     0.112 A 
HETATM   12 CL   UNL     1     -42.689  53.935 -51.431  1.00  0.00    -0.077 Cl
HETATM   13  H   UNL     1     -40.951  53.629 -55.888  1.00  0.00     0.167 HD
HETATM   14  H   UNL     1     -41.143  55.984 -57.299  1.00  0.00     0.155 HD
ENDROOT
BRANCH   1  15
HETATM   15  C   UNL     1     -40.859  52.586 -53.572  1.00  0.00    -0.008 A 
HETATM   16  C   UNL     1     -40.119  52.554 -52.382  1.00  0.00     0.014 A 
HETATM   17  C   UNL     1     -39.402  51.409 -52.033  1.00  0.00     0.001 A 
HETATM   18  C   UNL     1     -39.422  50.291 -52.867  1.00  0.00     0.000 A 
HETATM   19  C   UNL     1     -40.158  50.315 -54.051  1.00  0.00     0.001 A 
HETATM   20  C   UNL     1     -40.877  51.459 -54.404  1.00  0.00     0.014 A 
ENDBRANCH   1  15
BRANCH   7  21
HETATM   21  C   UNL     1     -43.078  57.693 -58.218  1.00  0.00     0.055 A 
HETATM   22  C   UNL     1     -42.112  58.625 -58.618  1.00  0.00     0.031 A 
HETATM   23  C   UNL     1     -42.271  59.366 -59.795  1.00  0.00     0.002 A 
HETATM   24  C   UNL     1     -43.400  59.188 -60.588  1.00  0.00     0.000 A 
HETATM   25  C   UNL     1     -44.373  58.272 -60.204  1.00  0.00     0.002 A 
HETATM   26  C   UNL     1     -44.214  57.531 -59.028  1.00  0.00     0.031 A 
ENDBRANCH   7  21
TORSDOF 2
ENDMDL
MODEL 3
REMARK VINA RESULT:      -8.2      2.113      2.871
REMARK  2 active torsions:
REMARK  status: ('A' for Active; 'I' for Inactive)
REMARK    1  A    between atoms: C_4  and  C_5 
REMARK    2  A    between atoms: N_11  and  C_12 
ROOT
HETATM    1  C   UNL     1     -43.832  56.473 -57.905  1.00  0.00     0.069 A 
HETATM    2  N   UNL     1     -43.528  55.301 -57.234  1.00  0.00    -0.343 N 
HETATM    3  C   UNL     1     -42.655  55.280 -56.184  1.00  0.00     0.119 A 
HETATM    4  C   UNL     1     -42.115  56.416 -55.713  1.00  0.00     0.125 A 
HETATM    5  C   UNL     1     -41.304  56.048 -54.540  1.00  0.00     0.280 A 
HETATM    6  O   UNL     1     -40.683  56.834 -53.847  1.00  0.00    -0.265 OA
HETATM    7  N   UNL     1     -41.432  54.656 -54.424  1.00  0.00    -0.236 N 
HETATM    8  N   UNL     1     -42.246  54.171 -55.470  1.00  0.00    -0.179 NA
HETATM    9  C   UNL     1     -42.423  57.715 -56.323  1.00  0.00     0.215 A 
HETATM   10  O   UNL     1     -41.968  58.766 -55.888  1.00  0.00    -0.285 OA
HETATM   11  C   UNL     1     -43.339  57.672 -57.521  1.00  0.00     0.112 A 
HETATM   12 CL   UNL     1     -43.680  59.166 -58.310  1.00  0.00    -0.077 Cl
HETATM   13  H   UNL     1     -43.805  54.419 -57.654  1.00  0.00     0.167 HD
HETATM   14  H   UNL     1     -43.050  53.647 -55.123  1.00  0.00     0.155 HD
ENDROOT
BRANCH   1  15
HETATM   15  C   UNL     1     -44.723  56.322 -59.067  1.00  0.00    -0.008 A 
HETATM   16  C   UNL     1     -44.364  55.479 -60.127  1.00  0.00     0.014 A 
HETATM   17  C   UNL     1     -45.215  55.331 -61.224  1.00  0.00     0.001 A 
HETATM   18  C   UNL     1     -46.426  56.021 -61.267  1.00  0.00     0.000 A 
HETATM   19  C   UNL     1     -46.790  56.861 -60.215  1.00  0.00     0.001 A 
HETATM   20  C   UNL     1     -45.942  57.011 -59.116  1.00  0.00     0.014 A 
ENDBRANCH   1  15
BRANCH   7  21
HETATM   21  C   UNL     1     -40.851  53.769 -53.492  1.00  0.00     0.055 A 
HETATM   22  C   UNL     1     -40.233  52.583 -53.907  1.00  0.00     0.031 A 
HETATM   23  C   UNL     1     -39.648  51.714 -52.978  1.00  0.00     0.002 A 
HETATM   24  C   UNL     1     -39.675  52.017 -51.620  1.00  0.00     0.000 A 
HETATM   25  C   UNL     1     -40.291  53.187 -51.189  1.00  0.00     0.002 A 
HETATM   26  C   UNL     1     -40.874  54.056 -52.117  1.00  0.00     0.031 A 
ENDBRANCH   7  21
TORSDOF 2
ENDMDL
MODEL 4
REMARK VINA RESULT:      -7.7      3.095      7.614
REMARK  2 active torsions:
REMARK  status: ('A' for Active; 'I' for Inactive)
REMARK    1  A    between atoms: C_4  and  C_5 
REMARK    2  A    between atoms: N_11  and  C_12 
ROOT
HETATM    1  C   UNL     1     -41.434  56.288 -52.576  1.00  0.00     0.069 A 
HETATM    2  N   UNL     1     -42.096  55.664 -53.620  1.00  0.00    -0.343 N 
HETATM    3  C   UNL     1     -42.457  56.341 -54.749  1.00  0.00     0.119 A 
HETATM    4  C   UNL     1     -42.112  57.627 -54.922  1.00  0.00     0.125 A 
HETATM    5  C   UNL     1     -42.573  58.016 -56.266  1.00  0.00     0.280 A 
HETATM    6  O   UNL     1     -42.411  59.113 -56.769  1.00  0.00    -0.265 OA
HETATM    7  N   UNL     1     -43.194  56.871 -56.789  1.00  0.00    -0.236 N 
HETATM    8  N   UNL     1     -43.154  55.836 -55.830  1.00  0.00    -0.179 NA
HETATM    9  C   UNL     1     -41.357  58.357 -53.896  1.00  0.00     0.215 A 
HETATM   10  O   UNL     1     -41.004  59.520 -54.049  1.00  0.00    -0.285 OA
HETATM   11  C   UNL     1     -41.045  57.581 -52.641  1.00  0.00     0.112 A 
HETATM   12 CL   UNL     1     -40.215  58.415 -51.382  1.00  0.00    -0.077 Cl
HETATM   13  H   UNL     1     -42.492  54.743 -53.458  1.00  0.00     0.167 HD
HETATM   14  H   UNL     1     -42.704  54.994 -56.190  1.00  0.00     0.155 HD
ENDROOT
BRANCH   1  15
HETATM   15  C   UNL     1     -41.189  55.448 -51.393  1.00  0.00    -0.008 A 
HETATM   16  C   UNL     1     -40.580  54.194 -51.531  1.00  0.00     0.014 A 
HETATM   17  C   UNL     1     -40.340  53.403 -50.406  1.00  0.00     0.001 A 
HETATM   18  C   UNL     1     -40.704  53.861 -49.140  1.00  0.00     0.000 A 
HETATM   19  C   UNL     1     -41.309  55.109 -48.995  1.00  0.00     0.001 A 
HETATM   20  C   UNL     1     -41.550  55.903 -50.118  1.00  0.00     0.014 A 
ENDBRANCH   1  15
BRANCH   7  21
HETATM   21  C   UNL     1     -43.836  56.679 -58.032  1.00  0.00     0.055 A 
HETATM   22  C   UNL     1     -43.424  55.672 -58.913  1.00  0.00     0.031 A 
HETATM   23  C   UNL     1     -44.073  55.479 -60.139  1.00  0.00     0.002 A 
HETATM   24  C   UNL     1     -45.141  56.293 -60.501  1.00  0.00     0.000 A 
HETATM   25  C   UNL     1     -45.560  57.303 -59.642  1.00  0.00     0.002 A 
HETATM   26  C   UNL     1     -44.912  57.494 -58.417  1.00  0.00     0.031 A 
ENDBRANCH   7  21
TORSDOF 2
ENDMDL
MODEL 5
REMARK VINA RESULT:      -7.7      3.201      5.063
REMARK  2 active torsions:
REMARK  status: ('A' for Active; 'I' for Inactive)
REMARK    1  A    between atoms: C_4  and  C_5 
REMARK    2  A    between atoms: N_11  and  C_12 
ROOT
HETATM    1  C   UNL     1     -43.079  57.901 -52.495  1.00  0.00     0.069 A 
HETATM    2  N   UNL     1     -42.633  56.721 -51.925  1.00  0.00    -0.343 N 
HETATM    3  C   UNL     1     -42.118  55.707 -52.680  1.00  0.00     0.119 A 
HETATM    4  C   UNL     1     -41.955  55.849 -54.006  1.00  0.00     0.125 A 
HETATM    5  C   UNL     1     -41.303  54.620 -54.489  1.00  0.00     0.280 A 
HETATM    6  O   UNL     1     -40.982  54.408 -55.645  1.00  0.00    -0.265 OA
HETATM    7  N   UNL     1     -41.144  53.814 -53.351  1.00  0.00    -0.236 N 
HETATM    8  N   UNL     1     -41.684  54.476 -52.228  1.00  0.00    -0.179 NA
HETATM    9  C   UNL     1     -42.344  57.087 -54.692  1.00  0.00     0.215 A 
HETATM   10  O   UNL     1     -42.171  57.249 -55.894  1.00  0.00    -0.285 OA
HETATM   11  C   UNL     1     -42.968  58.147 -53.820  1.00  0.00     0.112 A 
HETATM   12 CL   UNL     1     -43.499  59.594 -54.592  1.00  0.00    -0.077 Cl
HETATM   13  H   UNL     1     -42.875  56.532 -50.957  1.00  0.00     0.167 HD
HETATM   14  H   UNL     1     -41.001  54.586 -51.478  1.00  0.00     0.155 HD
ENDROOT
BRANCH   1  15
HETATM   15  C   UNL     1     -43.684  58.865 -51.562  1.00  0.00    -0.008 A 
HETATM   16  C   UNL     1     -45.016  58.713 -51.155  1.00  0.00     0.014 A 
HETATM   17  C   UNL     1     -45.585  59.622 -50.263  1.00  0.00     0.001 A 
HETATM   18  C   UNL     1     -44.828  60.686 -49.772  1.00  0.00     0.000 A 
HETATM   19  C   UNL     1     -43.502  60.843 -50.171  1.00  0.00     0.001 A 
HETATM   20  C   UNL     1     -42.929  59.934 -51.063  1.00  0.00     0.014 A 
ENDBRANCH   1  15
BRANCH   7  21
HETATM   21  C   UNL     1     -40.599  52.517 -53.231  1.00  0.00     0.055 A 
HETATM   22  C   UNL     1     -40.657  51.603 -54.289  1.00  0.00     0.031 A 
HETATM   23  C   UNL     1     -40.104  50.323 -54.167  1.00  0.00     0.002 A 
HETATM   24  C   UNL     1     -39.487  49.938 -52.981  1.00  0.00     0.000 A 
HETATM   25  C   UNL     1     -39.425  50.829 -51.915  1.00  0.00     0.002 A 
HETATM   26  C   UNL     1     -39.977  52.109 -52.039  1.00  0.00     0.031 A 
ENDBRANCH   7  21
TORSDOF 2
ENDMDL
MODEL 6
REMARK VINA RESULT:      -7.7      4.315      8.052
REMARK  2 active torsions:
REMARK  status: ('A' for Active; 'I' for Inactive)
REMARK    1  A    between atoms: C_4  and  C_5 
REMARK    2  A    between atoms: N_11  and  C_12 
ROOT
HETATM    1  C   UNL     1     -42.161  55.058 -52.853  1.00  0.00     0.069 A 
HETATM    2  N   UNL     1     -42.021  56.022 -51.870  1.00  0.00    -0.343 N 
HETATM    3  C   UNL     1     -42.718  57.195 -51.910  1.00  0.00     0.119 A 
HETATM    4  C   UNL     1     -43.629  57.425 -52.871  1.00  0.00     0.125 A 
HETATM    5  C   UNL     1     -44.250  58.725 -52.568  1.00  0.00     0.280 A 
HETATM    6  O   UNL     1     -45.138  59.243 -53.222  1.00  0.00    -0.265 OA
HETATM    7  N   UNL     1     -43.610  59.179 -51.405  1.00  0.00    -0.236 N 
HETATM    8  N   UNL     1     -42.630  58.242 -51.013  1.00  0.00    -0.179 NA
HETATM    9  C   UNL     1     -43.889  56.435 -53.924  1.00  0.00     0.215 A 
HETATM   10  O   UNL     1     -44.739  56.610 -54.789  1.00  0.00    -0.285 OA
HETATM   11  C   UNL     1     -43.043  55.188 -53.870  1.00  0.00     0.112 A 
HETATM   12 CL   UNL     1     -43.268  54.025 -55.122  1.00  0.00    -0.077 Cl
HETATM   13  H   UNL     1     -41.245  55.940 -51.220  1.00  0.00     0.167 HD
HETATM   14  H   UNL     1     -42.769  57.913 -50.058  1.00  0.00     0.155 HD
ENDROOT
BRANCH   1  15
HETATM   15  C   UNL     1     -41.280  53.886 -52.717  1.00  0.00    -0.008 A 
HETATM   16  C   UNL     1     -40.768  53.252 -53.857  1.00  0.00     0.014 A 
HETATM   17  C   UNL     1     -39.927  52.146 -53.726  1.00  0.00     0.001 A 
HETATM   18  C   UNL     1     -39.592  51.670 -52.458  1.00  0.00     0.000 A 
HETATM   19  C   UNL     1     -40.097  52.297 -51.320  1.00  0.00     0.001 A 
HETATM   20  C   UNL     1     -40.938  53.404 -51.447  1.00  0.00     0.014 A 
ENDBRANCH   1  15
BRANCH   7  21
HETATM   21  C   UNL     1     -43.790  60.379 -50.683  1.00  0.00     0.055 A 
HETATM   22  C   UNL     1     -42.888  61.443 -50.806  1.00  0.00     0.031 A 
HETATM   23  C   UNL     1     -43.080  62.634 -50.096  1.00  0.00     0.002 A 
HETATM   24  C   UNL     1     -44.176  62.777 -49.250  1.00  0.00     0.000 A 
HETATM   25  C   UNL     1     -45.079  61.729 -49.110  1.00  0.00     0.002 A 
HETATM   26  C   UNL     1     -44.887  60.539 -49.821  1.00  0.00     0.031 A 
ENDBRANCH   7  21
TORSDOF 2
ENDMDL
MODEL 7
REMARK VINA RESULT:      -7.6      2.459      7.581
REMARK  2 active torsions:
REMARK  status: ('A' for Active; 'I' for Inactive)
REMARK    1  A    between atoms: C_4  and  C_5 
REMARK    2  A    between atoms: N_11  and  C_12 
ROOT
HETATM    1  C   UNL     1     -41.446  54.869 -54.169  1.00  0.00     0.069 A 
HETATM    2  N   UNL     1     -42.095  54.384 -55.291  1.00  0.00    -0.343 N 
HETATM    3  C   UNL     1     -42.759  55.211 -56.151  1.00  0.00     0.119 A 
HETATM    4  C   UNL     1     -42.742  56.543 -55.978  1.00  0.00     0.125 A 
HETATM    5  C   UNL     1     -43.470  57.129 -57.116  1.00  0.00     0.280 A 
HETATM    6  O   UNL     1     -43.635  58.323 -57.298  1.00  0.00    -0.265 OA
HETATM    7  N   UNL     1     -43.886  56.037 -57.892  1.00  0.00    -0.236 N 
HETATM    8  N   UNL     1     -43.474  54.838 -57.272  1.00  0.00    -0.179 NA
HETATM    9  C   UNL     1     -42.030  57.155 -54.849  1.00  0.00     0.215 A 
HETATM   10  O   UNL     1     -41.975  58.368 -54.693  1.00  0.00    -0.285 OA
HETATM   11  C   UNL     1     -41.372  56.191 -53.894  1.00  0.00     0.112 A 
HETATM   12 CL   UNL     1     -40.578  56.859 -52.518  1.00  0.00    -0.077 Cl
HETATM   13  H   UNL     1     -42.245  53.382 -55.367  1.00  0.00     0.167 HD
HETATM   14  H   UNL     1     -42.903  54.260 -57.890  1.00  0.00     0.155 HD
ENDROOT
BRANCH   1  15
HETATM   15  C   UNL     1     -40.847  53.847 -53.294  1.00  0.00    -0.008 A 
HETATM   16  C   UNL     1     -40.975  53.946 -51.903  1.00  0.00     0.014 A 
HETATM   17  C   UNL     1     -40.414  52.971 -51.076  1.00  0.00     0.001 A 
HETATM   18  C   UNL     1     -39.726  51.893 -51.634  1.00  0.00     0.000 A 
HETATM   19  C   UNL     1     -39.596  51.788 -53.019  1.00  0.00     0.001 A 
HETATM   20  C   UNL     1     -40.156  52.761 -53.849  1.00  0.00     0.014 A 
ENDBRANCH   1  15
BRANCH   7  21
HETATM   21  C   UNL     1     -44.642  56.010 -59.084  1.00  0.00     0.055 A 
HETATM   22  C   UNL     1     -44.321  55.134 -60.127  1.00  0.00     0.031 A 
HETATM   23  C   UNL     1     -45.082  55.104 -61.302  1.00  0.00     0.002 A 
HETATM   24  C   UNL     1     -46.173  55.955 -61.451  1.00  0.00     0.000 A 
HETATM   25  C   UNL     1     -46.503  56.837 -60.429  1.00  0.00     0.002 A 
HETATM   26  C   UNL     1     -45.743  56.865 -59.255  1.00  0.00     0.031 A 
ENDBRANCH   7  21
TORSDOF 2
ENDMDL
MODEL 8
REMARK VINA RESULT:      -7.4      2.436      7.769
REMARK  2 active torsions:
REMARK  status: ('A' for Active; 'I' for Inactive)
REMARK    1  A    between atoms: C_4  and  C_5 
REMARK    2  A    between atoms: N_11  and  C_12 
ROOT
HETATM    1  C   UNL     1     -42.168  54.660 -53.367  1.00  0.00     0.069 A 
HETATM    2  N   UNL     1     -42.493  55.040 -54.658  1.00  0.00    -0.343 N 
HETATM    3  C   UNL     1     -43.369  56.055 -54.909  1.00  0.00     0.119 A 
HETATM    4  C   UNL     1     -43.894  56.778 -53.906  1.00  0.00     0.125 A 
HETATM    5  C   UNL     1     -44.715  57.833 -54.524  1.00  0.00     0.280 A 
HETATM    6  O   UNL     1     -45.326  58.691 -53.911  1.00  0.00    -0.265 OA
HETATM    7  N   UNL     1     -44.609  57.622 -55.907  1.00  0.00    -0.236 N 
HETATM    8  N   UNL     1     -43.799  56.492 -56.147  1.00  0.00    -0.179 NA
HETATM    9  C   UNL     1     -43.563  56.488 -52.505  1.00  0.00     0.215 A 
HETATM   10  O   UNL     1     -44.004  57.156 -51.578  1.00  0.00    -0.285 OA
HETATM   11  C   UNL     1     -42.643  55.313 -52.283  1.00  0.00     0.112 A 
HETATM   12 CL   UNL     1     -42.276  54.894 -50.651  1.00  0.00    -0.077 Cl
HETATM   13  H   UNL     1     -42.228  54.426 -55.422  1.00  0.00     0.167 HD
HETATM   14  H   UNL     1     -43.004  56.707 -56.751  1.00  0.00     0.155 HD
ENDROOT
BRANCH   1  15
HETATM   15  C   UNL     1     -41.275  53.495 -53.257  1.00  0.00    -0.008 A 
HETATM   16  C   UNL     1     -40.500  53.305 -52.105  1.00  0.00     0.014 A 
HETATM   17  C   UNL     1     -39.661  52.195 -52.000  1.00  0.00     0.001 A 
HETATM   18  C   UNL     1     -39.592  51.269 -53.041  1.00  0.00     0.000 A 
HETATM   19  C   UNL     1     -40.362  51.451 -54.189  1.00  0.00     0.001 A 
HETATM   20  C   UNL     1     -41.203  52.560 -54.298  1.00  0.00     0.014 A 
ENDBRANCH   1  15
BRANCH   7  21
HETATM   21  C   UNL     1     -45.208  58.321 -56.977  1.00  0.00     0.055 A 
HETATM   22  C   UNL     1     -46.575  58.198 -57.250  1.00  0.00     0.031 A 
HETATM   23  C   UNL     1     -47.165  58.904 -58.305  1.00  0.00     0.002 A 
HETATM   24  C   UNL     1     -46.393  59.740 -59.106  1.00  0.00     0.000 A 
HETATM   25  C   UNL     1     -45.032  59.870 -58.855  1.00  0.00     0.002 A 
HETATM   26  C   UNL     1     -44.443  59.165 -57.799  1.00  0.00     0.031 A 
ENDBRANCH   7  21
TORSDOF 2
ENDMDL
MODEL 9
REMARK VINA RESULT:      -7.4      3.301      8.008
REMARK  2 active torsions:
REMARK  status: ('A' for Active; 'I' for Inactive)
REMARK    1  A    between atoms: C_4  and  C_5 
REMARK    2  A    between atoms: N_11  and  C_12 
ROOT
HETATM    1  C   UNL     1     -40.640  53.605 -52.325  1.00  0.00     0.069 A 
HETATM    2  N   UNL     1     -41.057  54.317 -53.437  1.00  0.00    -0.343 N 
HETATM    3  C   UNL     1     -41.552  55.585 -53.334  1.00  0.00     0.119 A 
HETATM    4  C   UNL     1     -41.582  56.220 -52.151  1.00  0.00     0.125 A 
HETATM    5  C   UNL     1     -42.084  57.580 -52.410  1.00  0.00     0.280 A 
HETATM    6  O   UNL     1     -42.222  58.446 -51.564  1.00  0.00    -0.265 OA
HETATM    7  N   UNL     1     -42.332  57.627 -53.790  1.00  0.00    -0.236 N 
HETATM    8  N   UNL     1     -42.035  56.371 -54.363  1.00  0.00    -0.179 NA
HETATM    9  C   UNL     1     -41.106  55.568 -50.925  1.00  0.00     0.215 A 
HETATM   10  O   UNL     1     -41.094  56.142 -49.843  1.00  0.00    -0.285 OA
HETATM   11  C   UNL     1     -40.633  54.145 -51.085  1.00  0.00     0.112 A 
HETATM   12 CL   UNL     1     -40.125  53.316 -49.662  1.00  0.00    -0.077 Cl
HETATM   13  H   UNL     1     -41.180  53.817 -54.312  1.00  0.00     0.167 HD
HETATM   14  H   UNL     1     -41.350  56.442 -55.116  1.00  0.00     0.155 HD
ENDROOT
BRANCH   1  15
HETATM   15  C   UNL     1     -40.210  52.222 -52.586  1.00  0.00    -0.008 A 
HETATM   16  C   UNL     1     -39.818  51.393 -51.526  1.00  0.00     0.014 A 
HETATM   17  C   UNL     1     -39.419  50.079 -51.775  1.00  0.00     0.001 A 
HETATM   18  C   UNL     1     -39.412  49.586 -53.080  1.00  0.00     0.000 A 
HETATM   19  C   UNL     1     -39.802  50.405 -54.139  1.00  0.00     0.001 A 
HETATM   20  C   UNL     1     -40.202  51.720 -53.894  1.00  0.00     0.014 A 
ENDBRANCH   1  15
BRANCH   7  21
HETATM   21  C   UNL     1     -42.845  58.677 -54.582  1.00  0.00     0.055 A 
HETATM   22  C   UNL     1     -42.036  59.748 -54.980  1.00  0.00     0.031 A 
HETATM   23  C   UNL     1     -42.548  60.780 -55.775  1.00  0.00     0.002 A 
HETATM   24  C   UNL     1     -43.879  60.757 -56.182  1.00  0.00     0.000 A 
HETATM   25  C   UNL     1     -44.700  59.705 -55.791  1.00  0.00     0.002 A 
HETATM   26  C   UNL     1     -44.187  58.673 -54.997  1.00  0.00     0.031 A 
ENDBRANCH   7  21
TORSDOF 2
ENDMDL
MODEL 10
REMARK VINA RESULT:      -7.3      2.255      7.553
REMARK  2 active torsions:
REMARK  status: ('A' for Active; 'I' for Inactive)
REMARK    1  A    between atoms: C_4  and  C_5 
REMARK    2  A    between atoms: N_11  and  C_12 
ROOT
HETATM    1  C   UNL     1     -42.184  55.756 -52.555  1.00  0.00     0.069 A 
HETATM    2  N   UNL     1     -41.596  55.916 -53.797  1.00  0.00    -0.343 N 
HETATM    3  C   UNL     1     -42.204  56.621 -54.795  1.00  0.00     0.119 A 
HETATM    4  C   UNL     1     -43.370  57.254 -54.581  1.00  0.00     0.125 A 
HETATM    5  C   UNL     1     -43.694  57.980 -55.820  1.00  0.00     0.280 A 
HETATM    6  O   UNL     1     -44.676  58.684 -55.980  1.00  0.00    -0.265 OA
HETATM    7  N   UNL     1     -42.647  57.687 -56.707  1.00  0.00    -0.236 N 
HETATM    8  N   UNL     1     -41.735  56.811 -56.081  1.00  0.00    -0.179 NA
HETATM    9  C   UNL     1     -44.041  57.191 -53.277  1.00  0.00     0.215 A 
HETATM   10  O   UNL     1     -45.086  57.788 -53.051  1.00  0.00    -0.285 OA
HETATM   11  C   UNL     1     -43.359  56.343 -52.233  1.00  0.00     0.112 A 
HETATM   12 CL   UNL     1     -44.142  56.187 -50.705  1.00  0.00    -0.077 Cl
HETATM   13  H   UNL     1     -40.795  55.336 -54.030  1.00  0.00     0.167 HD
HETATM   14  H   UNL     1     -40.786  57.185 -56.068  1.00  0.00     0.155 HD
ENDROOT
BRANCH   1  15
HETATM   15  C   UNL     1     -41.445  54.899 -51.612  1.00  0.00    -0.008 A 
HETATM   16  C   UNL     1     -41.270  53.536 -51.885  1.00  0.00     0.014 A 
HETATM   17  C   UNL     1     -40.562  52.729 -50.994  1.00  0.00     0.001 A 
HETATM   18  C   UNL     1     -40.025  53.277 -49.829  1.00  0.00     0.000 A 
HETATM   19  C   UNL     1     -40.194  54.633 -49.552  1.00  0.00     0.001 A 
HETATM   20  C   UNL     1     -40.901  55.444 -50.441  1.00  0.00     0.014 A 
ENDBRANCH   1  15
BRANCH   7  21
HETATM   21  C   UNL     1     -42.453  58.095 -58.044  1.00  0.00     0.055 A 
HETATM   22  C   UNL     1     -42.210  59.436 -58.366  1.00  0.00     0.031 A 
HETATM   23  C   UNL     1     -42.006  59.832 -59.693  1.00  0.00     0.002 A 
HETATM   24  C   UNL     1     -42.047  58.892 -60.718  1.00  0.00     0.000 A 
HETATM   25  C   UNL     1     -42.294  57.557 -60.419  1.00  0.00     0.002 A 
HETATM   26  C   UNL     1     -42.496  57.162 -59.092  1.00  0.00     0.031 A 
ENDBRANCH   7  21
TORSDOF 2
ENDMDL
