MODEL 1
REMARK VINA RESULT:      -9.2      0.000      0.000
REMARK  6 active torsions:
REMARK  status: ('A' for Active; 'I' for Inactive)
REMARK    1  A    between atoms: C_5  and  C_6 
REMARK    2  A    between atoms: C_12  and  C_13 
REMARK       I    between atoms: C_13  and  N_14 
REMARK    3  A    between atoms: N_14  and  C_15 
REMARK    4  A    between atoms: C_18  and  C_19 
REMARK    5  A    between atoms: C_19  and  O_20 
REMARK    6  A    between atoms: C_25  and  C_26 
ROOT
HETATM    1  C   UNL     1     -43.730  55.630 -53.743  1.00  0.00     0.118 C 
HETATM    2  N   UNL     1     -44.010  56.064 -55.123  1.00  0.00    -0.365 N 
HETATM    3  C   UNL     1     -43.349  57.135 -55.653  1.00  0.00     0.138 A 
HETATM    4  N   UNL     1     -42.542  57.933 -54.873  1.00  0.00    -0.240 N 
HETATM    5  N   UNL     1     -42.055  59.005 -55.515  1.00  0.00    -0.181 NA
HETATM    6  C   UNL     1     -42.501  58.844 -56.762  1.00  0.00     0.160 A 
HETATM    7  C   UNL     1     -43.324  57.700 -56.917  1.00  0.00     0.096 A 
HETATM    8  C   UNL     1     -42.390  57.808 -53.435  1.00  0.00     0.221 C 
HETATM    9  C   UNL     1     -43.459  56.861 -52.863  1.00  0.00     0.066 C 
HETATM   10  H   UNL     1     -45.002  55.968 -55.349  1.00  0.00     0.161 HD
ENDROOT
BRANCH   7  11
HETATM   11  C   UNL     1     -43.984  57.302 -58.155  1.00  0.00     0.261 C 
HETATM   12  N   UNL     1     -45.347  57.529 -58.171  1.00  0.00    -0.323 N 
HETATM   13  H   UNL     1     -45.747  57.829 -57.291  1.00  0.00     0.169 HD
HETATM   14  O   UNL     1     -43.325  56.835 -59.077  1.00  0.00    -0.267 OA
BRANCH  12  15
HETATM   15  C   UNL     1     -46.215  57.456 -59.279  1.00  0.00     0.035 A 
HETATM   16  C   UNL     1     -46.526  56.273 -59.948  1.00  0.00     0.030 A 
HETATM   17  C   UNL     1     -47.343  56.287 -61.085  1.00  0.00     0.012 A 
HETATM   18  C   UNL     1     -47.860  57.489 -61.583  1.00  0.00    -0.030 A 
HETATM   19  C   UNL     1     -47.553  58.677 -60.905  1.00  0.00     0.012 A 
HETATM   20  C   UNL     1     -46.753  58.658 -59.755  1.00  0.00     0.030 A 
BRANCH  18  21
HETATM   21  C   UNL     1     -48.680  57.486 -62.855  1.00  0.00     0.147 C 
HETATM   22  C   UNL     1     -50.047  58.123 -62.648  1.00  0.00     0.044 C 
BRANCH  21  23
HETATM   23  O   UNL     1     -48.859  56.158 -63.340  1.00  0.00    -0.391 OA
HETATM   24  H   UNL     1     -49.475  56.217 -64.091  1.00  0.00     0.210 HD
ENDBRANCH  21  23
ENDBRANCH  18  21
ENDBRANCH  12  15
ENDBRANCH   7  11
BRANCH   1  25
HETATM   25  C   UNL     1     -42.665  54.549 -53.654  1.00  0.00    -0.035 A 
HETATM   26  C   UNL     1     -42.071  53.962 -54.782  1.00  0.00     0.010 A 
HETATM   27  C   UNL     1     -41.048  53.015 -54.649  1.00  0.00     0.007 A 
HETATM   28  C   UNL     1     -40.602  52.620 -53.386  1.00  0.00    -0.062 A 
HETATM   29  C   UNL     1     -39.485  51.632 -53.235  1.00  0.00     0.048 C 
HETATM   30  C   UNL     1     -41.221  53.159 -52.256  1.00  0.00     0.007 A 
HETATM   31  C   UNL     1     -42.239  54.106 -52.388  1.00  0.00     0.010 A 
ENDBRANCH   1  25
BRANCH   8  32
HETATM   32  C   UNL     1     -40.964  57.444 -53.082  1.00  0.00     0.409 C 
HETATM   33  F   UNL     1     -40.371  56.618 -53.961  1.00  0.00    -0.169 F 
HETATM   34  F   UNL     1     -40.179  58.540 -52.965  1.00  0.00    -0.169 F 
HETATM   35  F   UNL     1     -40.931  56.831 -51.868  1.00  0.00    -0.169 F 
ENDBRANCH   8  32
TORSDOF 6
ENDMDL
MODEL 2
REMARK VINA RESULT:      -8.1      4.067      8.727
REMARK  6 active torsions:
REMARK  status: ('A' for Active; 'I' for Inactive)
REMARK    1  A    between atoms: C_5  and  C_6 
REMARK    2  A    between atoms: C_12  and  C_13 
REMARK       I    between atoms: C_13  and  N_14 
REMARK    3  A    between atoms: N_14  and  C_15 
REMARK    4  A    between atoms: C_18  and  C_19 
REMARK    5  A    between atoms: C_19  and  O_20 
REMARK    6  A    between atoms: C_25  and  C_26 
ROOT
HETATM    1  C   UNL     1     -42.217  58.484 -57.466  1.00  0.00     0.118 C 
HETATM    2  N   UNL     1     -41.935  57.903 -56.141  1.00  0.00    -0.365 N 
HETATM    3  C   UNL     1     -42.838  58.040 -55.125  1.00  0.00     0.138 A 
HETATM    4  N   UNL     1     -43.939  58.857 -55.254  1.00  0.00    -0.240 N 
HETATM    5  N   UNL     1     -44.666  58.970 -54.133  1.00  0.00    -0.181 NA
HETATM    6  C   UNL     1     -44.054  58.140 -53.286  1.00  0.00     0.160 A 
HETATM    7  C   UNL     1     -42.898  57.532 -53.838  1.00  0.00     0.096 A 
HETATM    8  C   UNL     1     -44.206  59.720 -56.390  1.00  0.00     0.221 C 
HETATM    9  C   UNL     1     -42.963  59.818 -57.293  1.00  0.00     0.066 C 
HETATM   10  H   UNL     1     -40.946  57.986 -55.901  1.00  0.00     0.161 HD
ENDROOT
BRANCH   7  11
HETATM   11  C   UNL     1     -42.011  56.618 -53.130  1.00  0.00     0.261 C 
HETATM   12  N   UNL     1     -42.309  55.281 -53.311  1.00  0.00    -0.323 N 
HETATM   13  H   UNL     1     -43.171  55.093 -53.809  1.00  0.00     0.169 HD
HETATM   14  O   UNL     1     -41.079  57.059 -52.465  1.00  0.00    -0.267 OA
BRANCH  12  15
HETATM   15  C   UNL     1     -41.524  54.169 -52.945  1.00  0.00     0.035 A 
HETATM   16  C   UNL     1     -40.932  53.299 -53.860  1.00  0.00     0.030 A 
HETATM   17  C   UNL     1     -40.221  52.175 -53.422  1.00  0.00     0.012 A 
HETATM   18  C   UNL     1     -40.094  51.892 -52.058  1.00  0.00    -0.030 A 
HETATM   19  C   UNL     1     -40.683  52.772 -51.138  1.00  0.00     0.012 A 
HETATM   20  C   UNL     1     -41.375  53.908 -51.578  1.00  0.00     0.030 A 
BRANCH  18  21
HETATM   21  C   UNL     1     -39.384  50.632 -51.612  1.00  0.00     0.147 C 
HETATM   22  C   UNL     1     -39.549  49.503 -52.620  1.00  0.00     0.044 C 
BRANCH  21  23
HETATM   23  O   UNL     1     -39.873  50.196 -50.346  1.00  0.00    -0.391 OA
HETATM   24  H   UNL     1     -39.120  50.228 -49.731  1.00  0.00     0.210 HD
ENDBRANCH  21  23
ENDBRANCH  18  21
ENDBRANCH  12  15
ENDBRANCH   7  11
BRANCH   1  25
HETATM   25  C   UNL     1     -42.887  57.511 -58.422  1.00  0.00    -0.035 A 
HETATM   26  C   UNL     1     -43.144  56.170 -58.098  1.00  0.00     0.010 A 
HETATM   27  C   UNL     1     -43.822  55.328 -58.988  1.00  0.00     0.007 A 
HETATM   28  C   UNL     1     -44.246  55.801 -60.231  1.00  0.00    -0.062 A 
HETATM   29  C   UNL     1     -45.001  54.917 -61.179  1.00  0.00     0.048 C 
HETATM   30  C   UNL     1     -43.951  57.119 -60.587  1.00  0.00     0.007 A 
HETATM   31  C   UNL     1     -43.278  57.961 -59.697  1.00  0.00     0.010 A 
ENDBRANCH   1  25
BRANCH   8  32
HETATM   32  C   UNL     1     -45.472  59.290 -57.098  1.00  0.00     0.409 C 
HETATM   33  F   UNL     1     -45.484  59.552 -58.416  1.00  0.00    -0.169 F 
HETATM   34  F   UNL     1     -45.707  57.965 -56.948  1.00  0.00    -0.169 F 
HETATM   35  F   UNL     1     -46.545  59.923 -56.552  1.00  0.00    -0.169 F 
ENDBRANCH   8  32
TORSDOF 6
ENDMDL
MODEL 3
REMARK VINA RESULT:      -8.1      5.646      9.183
REMARK  6 active torsions:
REMARK  status: ('A' for Active; 'I' for Inactive)
REMARK    1  A    between atoms: C_5  and  C_6 
REMARK    2  A    between atoms: C_12  and  C_13 
REMARK       I    between atoms: C_13  and  N_14 
REMARK    3  A    between atoms: N_14  and  C_15 
REMARK    4  A    between atoms: C_18  and  C_19 
REMARK    5  A    between atoms: C_19  and  O_20 
REMARK    6  A    between atoms: C_25  and  C_26 
ROOT
HETATM    1  C   UNL     1     -42.550  60.756 -51.671  1.00  0.00     0.118 C 
HETATM    2  N   UNL     1     -42.137  59.344 -51.750  1.00  0.00    -0.365 N 
HETATM    3  C   UNL     1     -43.057  58.349 -51.580  1.00  0.00     0.138 A 
HETATM    4  N   UNL     1     -44.340  58.627 -51.165  1.00  0.00    -0.240 N 
HETATM    5  N   UNL     1     -45.086  57.536 -50.938  1.00  0.00    -0.181 NA
HETATM    6  C   UNL     1     -44.280  56.534 -51.293  1.00  0.00     0.160 A 
HETATM    7  C   UNL     1     -42.992  56.970 -51.695  1.00  0.00     0.096 A 
HETATM    8  C   UNL     1     -44.820  59.938 -50.767  1.00  0.00     0.221 C 
HETATM    9  C   UNL     1     -43.641  60.912 -50.598  1.00  0.00     0.066 C 
HETATM   10  H   UNL     1     -41.213  59.202 -51.337  1.00  0.00     0.161 HD
ENDROOT
BRANCH   7  11
HETATM   11  C   UNL     1     -41.896  56.096 -52.093  1.00  0.00     0.261 C 
HETATM   12  N   UNL     1     -42.121  54.754 -51.849  1.00  0.00    -0.323 N 
HETATM   13  H   UNL     1     -42.958  54.545 -51.319  1.00  0.00     0.169 HD
HETATM   14  O   UNL     1     -40.894  56.569 -52.619  1.00  0.00    -0.267 OA
BRANCH  12  15
HETATM   15  C   UNL     1     -41.362  53.659 -52.310  1.00  0.00     0.035 A 
HETATM   16  C   UNL     1     -41.366  53.210 -53.630  1.00  0.00     0.030 A 
HETATM   17  C   UNL     1     -40.639  52.073 -54.001  1.00  0.00     0.012 A 
HETATM   18  C   UNL     1     -39.899  51.354 -53.056  1.00  0.00    -0.030 A 
HETATM   19  C   UNL     1     -39.889  51.811 -51.731  1.00  0.00     0.012 A 
HETATM   20  C   UNL     1     -40.600  52.962 -51.366  1.00  0.00     0.030 A 
BRANCH  18  21
HETATM   21  C   UNL     1     -39.181  50.086 -53.467  1.00  0.00     0.147 C 
HETATM   22  C   UNL     1     -39.588  49.632 -54.862  1.00  0.00     0.044 C 
BRANCH  21  23
HETATM   23  O   UNL     1     -39.445  49.033 -52.544  1.00  0.00    -0.391 OA
HETATM   24  H   UNL     1     -39.722  48.263 -53.072  1.00  0.00     0.210 HD
ENDBRANCH  21  23
ENDBRANCH  18  21
ENDBRANCH  12  15
ENDBRANCH   7  11
BRANCH   1  25
HETATM   25  C   UNL     1     -42.908  61.358 -53.020  1.00  0.00    -0.035 A 
HETATM   26  C   UNL     1     -43.394  62.666 -53.172  1.00  0.00     0.010 A 
HETATM   27  C   UNL     1     -43.650  63.199 -54.441  1.00  0.00     0.007 A 
HETATM   28  C   UNL     1     -43.441  62.433 -55.590  1.00  0.00    -0.062 A 
HETATM   29  C   UNL     1     -43.680  63.006 -56.955  1.00  0.00     0.048 C 
HETATM   30  C   UNL     1     -43.006  61.113 -55.449  1.00  0.00     0.007 A 
HETATM   31  C   UNL     1     -42.747  60.583 -54.182  1.00  0.00     0.010 A 
ENDBRANCH   1  25
BRANCH   8  32
HETATM   32  C   UNL     1     -45.906  60.414 -51.708  1.00  0.00     0.409 C 
HETATM   33  F   UNL     1     -46.059  61.748 -51.744  1.00  0.00    -0.169 F 
HETATM   34  F   UNL     1     -45.688  59.998 -52.978  1.00  0.00    -0.169 F 
HETATM   35  F   UNL     1     -47.102  59.881 -51.341  1.00  0.00    -0.169 F 
ENDBRANCH   8  32
TORSDOF 6
ENDMDL
MODEL 4
REMARK VINA RESULT:      -8.1      3.319      9.059
REMARK  6 active torsions:
REMARK  status: ('A' for Active; 'I' for Inactive)
REMARK    1  A    between atoms: C_5  and  C_6 
REMARK    2  A    between atoms: C_12  and  C_13 
REMARK       I    between atoms: C_13  and  N_14 
REMARK    3  A    between atoms: N_14  and  C_15 
REMARK    4  A    between atoms: C_18  and  C_19 
REMARK    5  A    between atoms: C_19  and  O_20 
REMARK    6  A    between atoms: C_25  and  C_26 
ROOT
HETATM    1  C   UNL     1     -42.209  58.079 -58.413  1.00  0.00     0.118 C 
HETATM    2  N   UNL     1     -42.122  57.262 -57.190  1.00  0.00    -0.365 N 
HETATM    3  C   UNL     1     -42.239  57.849 -55.962  1.00  0.00     0.138 A 
HETATM    4  N   UNL     1     -42.269  59.219 -55.827  1.00  0.00    -0.240 N 
HETATM    5  N   UNL     1     -42.275  59.639 -54.553  1.00  0.00    -0.181 NA
HETATM    6  C   UNL     1     -42.328  58.503 -53.856  1.00  0.00     0.160 A 
HETATM    7  C   UNL     1     -42.299  57.344 -54.674  1.00  0.00     0.096 A 
HETATM    8  C   UNL     1     -42.076  60.166 -56.910  1.00  0.00     0.221 C 
HETATM    9  C   UNL     1     -41.552  59.447 -58.165  1.00  0.00     0.066 C 
HETATM   10  H   UNL     1     -41.428  56.518 -57.288  1.00  0.00     0.161 HD
ENDROOT
BRANCH   7  11
HETATM   11  C   UNL     1     -42.301  55.971 -54.185  1.00  0.00     0.261 C 
HETATM   12  N   UNL     1     -41.042  55.436 -53.986  1.00  0.00    -0.323 N 
HETATM   13  H   UNL     1     -40.273  56.008 -54.312  1.00  0.00     0.169 HD
HETATM   14  O   UNL     1     -43.364  55.402 -53.964  1.00  0.00    -0.267 OA
BRANCH  12  15
HETATM   15  C   UNL     1     -40.716  54.234 -53.327  1.00  0.00     0.035 A 
HETATM   16  C   UNL     1     -40.608  54.110 -51.942  1.00  0.00     0.030 A 
HETATM   17  C   UNL     1     -40.212  52.900 -51.361  1.00  0.00     0.012 A 
HETATM   18  C   UNL     1     -39.907  51.788 -52.154  1.00  0.00    -0.030 A 
HETATM   19  C   UNL     1     -40.023  51.912 -53.546  1.00  0.00     0.012 A 
HETATM   20  C   UNL     1     -40.440  53.117 -54.124  1.00  0.00     0.030 A 
BRANCH  18  21
HETATM   21  C   UNL     1     -39.411  50.514 -51.506  1.00  0.00     0.147 C 
HETATM   22  C   UNL     1     -39.531  49.319 -52.442  1.00  0.00     0.044 C 
BRANCH  21  23
HETATM   23  O   UNL     1     -40.137  50.237 -50.311  1.00  0.00    -0.391 OA
HETATM   24  H   UNL     1     -41.077  50.196 -50.560  1.00  0.00     0.210 HD
ENDBRANCH  21  23
ENDBRANCH  18  21
ENDBRANCH  12  15
ENDBRANCH   7  11
BRANCH   1  25
HETATM   25  C   UNL     1     -43.613  58.154 -58.991  1.00  0.00    -0.035 A 
HETATM   26  C   UNL     1     -44.708  57.472 -58.437  1.00  0.00     0.010 A 
HETATM   27  C   UNL     1     -45.995  57.623 -58.967  1.00  0.00     0.007 A 
HETATM   28  C   UNL     1     -46.219  58.446 -60.072  1.00  0.00    -0.062 A 
HETATM   29  C   UNL     1     -47.599  58.640 -60.626  1.00  0.00     0.048 C 
HETATM   30  C   UNL     1     -45.129  59.089 -60.664  1.00  0.00     0.007 A 
HETATM   31  C   UNL     1     -43.845  58.942 -60.133  1.00  0.00     0.010 A 
ENDBRANCH   1  25
BRANCH   8  32
HETATM   32  C   UNL     1     -43.328  60.989 -57.126  1.00  0.00     0.409 C 
HETATM   33  F   UNL     1     -44.472  60.324 -56.893  1.00  0.00    -0.169 F 
HETATM   34  F   UNL     1     -43.340  62.098 -56.350  1.00  0.00    -0.169 F 
HETATM   35  F   UNL     1     -43.374  61.433 -58.410  1.00  0.00    -0.169 F 
ENDBRANCH   8  32
TORSDOF 6
ENDMDL
MODEL 5
REMARK VINA RESULT:      -7.9      5.789      8.950
REMARK  6 active torsions:
REMARK  status: ('A' for Active; 'I' for Inactive)
REMARK    1  A    between atoms: C_5  and  C_6 
REMARK    2  A    between atoms: C_12  and  C_13 
REMARK       I    between atoms: C_13  and  N_14 
REMARK    3  A    between atoms: N_14  and  C_15 
REMARK    4  A    between atoms: C_18  and  C_19 
REMARK    5  A    between atoms: C_19  and  O_20 
REMARK    6  A    between atoms: C_25  and  C_26 
ROOT
HETATM    1  C   UNL     1     -45.908  60.490 -52.429  1.00  0.00     0.118 C 
HETATM    2  N   UNL     1     -45.059  59.306 -52.651  1.00  0.00    -0.365 N 
HETATM    3  C   UNL     1     -43.757  59.457 -53.037  1.00  0.00     0.138 A 
HETATM    4  N   UNL     1     -43.257  60.690 -53.390  1.00  0.00    -0.240 N 
HETATM    5  N   UNL     1     -41.997  60.652 -53.850  1.00  0.00    -0.181 NA
HETATM    6  C   UNL     1     -41.659  59.369 -53.714  1.00  0.00     0.160 A 
HETATM    7  C   UNL     1     -42.715  58.563 -53.219  1.00  0.00     0.096 A 
HETATM    8  C   UNL     1     -44.040  61.906 -53.500  1.00  0.00     0.221 C 
HETATM    9  C   UNL     1     -45.544  61.581 -53.450  1.00  0.00     0.066 C 
HETATM   10  H   UNL     1     -45.588  58.544 -53.080  1.00  0.00     0.161 HD
ENDROOT
BRANCH   7  11
HETATM   11  C   UNL     1     -42.646  57.122 -53.012  1.00  0.00     0.261 C 
HETATM   12  N   UNL     1     -41.655  56.490 -53.739  1.00  0.00    -0.323 N 
HETATM   13  H   UNL     1     -41.175  57.072 -54.415  1.00  0.00     0.169 HD
HETATM   14  O   UNL     1     -43.414  56.578 -52.226  1.00  0.00    -0.267 OA
BRANCH  12  15
HETATM   15  C   UNL     1     -41.199  55.164 -53.595  1.00  0.00     0.035 A 
HETATM   16  C   UNL     1     -41.041  54.524 -52.367  1.00  0.00     0.030 A 
HETATM   17  C   UNL     1     -40.518  53.227 -52.297  1.00  0.00     0.012 A 
HETATM   18  C   UNL     1     -40.132  52.545 -53.456  1.00  0.00    -0.030 A 
HETATM   19  C   UNL     1     -40.299  53.187 -54.692  1.00  0.00     0.012 A 
HETATM   20  C   UNL     1     -40.842  54.476 -54.761  1.00  0.00     0.030 A 
BRANCH  18  21
HETATM   21  C   UNL     1     -39.502  51.174 -53.349  1.00  0.00     0.147 C 
HETATM   22  C   UNL     1     -40.163  50.172 -54.286  1.00  0.00     0.044 C 
BRANCH  21  23
HETATM   23  O   UNL     1     -39.585  50.681 -52.014  1.00  0.00    -0.391 OA
HETATM   24  H   UNL     1     -38.670  50.555 -51.707  1.00  0.00     0.210 HD
ENDBRANCH  21  23
ENDBRANCH  18  21
ENDBRANCH  12  15
ENDBRANCH   7  11
BRANCH   1  25
HETATM   25  C   UNL     1     -45.919  60.963 -50.984  1.00  0.00    -0.035 A 
HETATM   26  C   UNL     1     -45.204  60.321 -49.961  1.00  0.00     0.010 A 
HETATM   27  C   UNL     1     -45.194  60.830 -48.657  1.00  0.00     0.007 A 
HETATM   28  C   UNL     1     -45.909  61.986 -48.339  1.00  0.00    -0.062 A 
HETATM   29  C   UNL     1     -45.878  62.558 -46.953  1.00  0.00     0.048 C 
HETATM   30  C   UNL     1     -46.666  62.605 -49.336  1.00  0.00     0.007 A 
HETATM   31  C   UNL     1     -46.673  62.099 -50.639  1.00  0.00     0.010 A 
ENDBRANCH   1  25
BRANCH   8  32
HETATM   32  C   UNL     1     -43.578  62.930 -52.485  1.00  0.00     0.409 C 
HETATM   33  F   UNL     1     -43.112  62.401 -51.341  1.00  0.00    -0.169 F 
HETATM   34  F   UNL     1     -42.607  63.729 -52.985  1.00  0.00    -0.169 F 
HETATM   35  F   UNL     1     -44.609  63.755 -52.158  1.00  0.00    -0.169 F 
ENDBRANCH   8  32
TORSDOF 6
ENDMDL
MODEL 6
REMARK VINA RESULT:      -7.8     17.009     21.295
REMARK  6 active torsions:
REMARK  status: ('A' for Active; 'I' for Inactive)
REMARK    1  A    between atoms: C_5  and  C_6 
REMARK    2  A    between atoms: C_12  and  C_13 
REMARK       I    between atoms: C_13  and  N_14 
REMARK    3  A    between atoms: N_14  and  C_15 
REMARK    4  A    between atoms: C_18  and  C_19 
REMARK    5  A    between atoms: C_19  and  O_20 
REMARK    6  A    between atoms: C_25  and  C_26 
ROOT
HETATM    1  C   UNL     1     -34.410  40.151 -56.838  1.00  0.00     0.118 C 
HETATM    2  N   UNL     1     -34.035  39.976 -55.424  1.00  0.00    -0.365 N 
HETATM    3  C   UNL     1     -34.648  40.719 -54.455  1.00  0.00     0.138 A 
HETATM    4  N   UNL     1     -35.494  41.756 -54.779  1.00  0.00    -0.240 N 
HETATM    5  N   UNL     1     -35.926  42.456 -53.719  1.00  0.00    -0.181 NA
HETATM    6  C   UNL     1     -35.402  41.798 -52.683  1.00  0.00     0.160 A 
HETATM    7  C   UNL     1     -34.584  40.707 -53.071  1.00  0.00     0.096 A 
HETATM    8  C   UNL     1     -35.741  42.238 -56.125  1.00  0.00     0.221 C 
HETATM    9  C   UNL     1     -34.723  41.632 -57.107  1.00  0.00     0.066 C 
HETATM   10  H   UNL     1     -33.032  39.810 -55.322  1.00  0.00     0.161 HD
ENDROOT
BRANCH   7  11
HETATM   11  C   UNL     1     -33.850  39.841 -52.157  1.00  0.00     0.261 C 
HETATM   12  N   UNL     1     -33.751  40.329 -50.867  1.00  0.00    -0.323 N 
HETATM   13  H   UNL     1     -34.089  41.274 -50.735  1.00  0.00     0.169 HD
HETATM   14  O   UNL     1     -33.405  38.769 -52.552  1.00  0.00    -0.267 OA
BRANCH  12  15
HETATM   15  C   UNL     1     -33.303  39.640 -49.722  1.00  0.00     0.035 A 
HETATM   16  C   UNL     1     -34.054  38.676 -49.050  1.00  0.00     0.030 A 
HETATM   17  C   UNL     1     -33.571  38.083 -47.878  1.00  0.00     0.012 A 
HETATM   18  C   UNL     1     -32.329  38.448 -47.346  1.00  0.00    -0.030 A 
HETATM   19  C   UNL     1     -31.572  39.411 -48.028  1.00  0.00     0.012 A 
HETATM   20  C   UNL     1     -32.047  39.988 -49.212  1.00  0.00     0.030 A 
BRANCH  18  21
HETATM   21  C   UNL     1     -31.862  37.845 -46.039  1.00  0.00     0.147 C 
HETATM   22  C   UNL     1     -31.304  38.903 -45.096  1.00  0.00     0.044 C 
BRANCH  21  23
HETATM   23  O   UNL     1     -30.861  36.856 -46.266  1.00  0.00    -0.391 OA
HETATM   24  H   UNL     1     -31.248  36.003 -46.001  1.00  0.00     0.210 HD
ENDBRANCH  21  23
ENDBRANCH  18  21
ENDBRANCH  12  15
ENDBRANCH   7  11
BRANCH   1  25
HETATM   25  C   UNL     1     -35.491  39.188 -57.301  1.00  0.00    -0.035 A 
HETATM   26  C   UNL     1     -36.084  38.237 -56.456  1.00  0.00     0.010 A 
HETATM   27  C   UNL     1     -37.122  37.414 -56.910  1.00  0.00     0.007 A 
HETATM   28  C   UNL     1     -37.584  37.511 -58.224  1.00  0.00    -0.062 A 
HETATM   29  C   UNL     1     -38.717  36.658 -58.711  1.00  0.00     0.048 C 
HETATM   30  C   UNL     1     -36.967  38.418 -59.090  1.00  0.00     0.007 A 
HETATM   31  C   UNL     1     -35.934  39.241 -58.635  1.00  0.00     0.010 A 
ENDBRANCH   1  25
BRANCH   8  32
HETATM   32  C   UNL     1     -37.191  42.031 -56.506  1.00  0.00     0.409 C 
HETATM   33  F   UNL     1     -37.749  40.929 -55.977  1.00  0.00    -0.169 F 
HETATM   34  F   UNL     1     -37.960  43.085 -56.147  1.00  0.00    -0.169 F 
HETATM   35  F   UNL     1     -37.304  41.930 -57.858  1.00  0.00    -0.169 F 
ENDBRANCH   8  32
TORSDOF 6
ENDMDL
MODEL 7
REMARK VINA RESULT:      -7.6      5.653      8.951
REMARK  6 active torsions:
REMARK  status: ('A' for Active; 'I' for Inactive)
REMARK    1  A    between atoms: C_5  and  C_6 
REMARK    2  A    between atoms: C_12  and  C_13 
REMARK       I    between atoms: C_13  and  N_14 
REMARK    3  A    between atoms: N_14  and  C_15 
REMARK    4  A    between atoms: C_18  and  C_19 
REMARK    5  A    between atoms: C_19  and  O_20 
REMARK    6  A    between atoms: C_25  and  C_26 
ROOT
HETATM    1  C   UNL     1     -40.776  56.318 -53.202  1.00  0.00     0.118 C 
HETATM    2  N   UNL     1     -41.429  57.463 -52.544  1.00  0.00    -0.365 N 
HETATM    3  C   UNL     1     -42.775  57.656 -52.678  1.00  0.00     0.138 A 
HETATM    4  N   UNL     1     -43.520  56.900 -53.556  1.00  0.00    -0.240 N 
HETATM    5  N   UNL     1     -44.801  57.285 -53.652  1.00  0.00    -0.181 NA
HETATM    6  C   UNL     1     -44.895  58.265 -52.752  1.00  0.00     0.160 A 
HETATM    7  C   UNL     1     -43.663  58.556 -52.112  1.00  0.00     0.096 A 
HETATM    8  C   UNL     1     -42.975  55.928 -54.485  1.00  0.00     0.221 C 
HETATM    9  C   UNL     1     -41.444  56.059 -54.562  1.00  0.00     0.066 C 
HETATM   10  H   UNL     1     -40.834  58.294 -52.564  1.00  0.00     0.161 HD
ENDROOT
BRANCH   7  11
HETATM   11  C   UNL     1     -43.458  59.604 -51.121  1.00  0.00     0.261 C 
HETATM   12  N   UNL     1     -44.604  60.299 -50.783  1.00  0.00    -0.323 N 
HETATM   13  H   UNL     1     -45.421  60.086 -51.342  1.00  0.00     0.169 HD
HETATM   14  O   UNL     1     -42.343  59.788 -50.644  1.00  0.00    -0.267 OA
BRANCH  12  15
HETATM   15  C   UNL     1     -44.775  61.205 -49.717  1.00  0.00     0.035 A 
HETATM   16  C   UNL     1     -44.186  62.468 -49.667  1.00  0.00     0.030 A 
HETATM   17  C   UNL     1     -44.345  63.288 -48.543  1.00  0.00     0.012 A 
HETATM   18  C   UNL     1     -45.089  62.857 -47.440  1.00  0.00    -0.030 A 
HETATM   19  C   UNL     1     -45.687  61.590 -47.494  1.00  0.00     0.012 A 
HETATM   20  C   UNL     1     -45.545  60.781 -48.628  1.00  0.00     0.030 A 
BRANCH  18  21
HETATM   21  C   UNL     1     -45.185  63.731 -46.208  1.00  0.00     0.147 C 
HETATM   22  C   UNL     1     -45.004  62.927 -44.928  1.00  0.00     0.044 C 
BRANCH  21  23
HETATM   23  O   UNL     1     -46.443  64.400 -46.158  1.00  0.00    -0.391 OA
HETATM   24  H   UNL     1     -46.335  65.232 -46.652  1.00  0.00     0.210 HD
ENDBRANCH  21  23
ENDBRANCH  18  21
ENDBRANCH  12  15
ENDBRANCH   7  11
BRANCH   1  25
HETATM   25  C   UNL     1     -40.668  55.091 -52.313  1.00  0.00    -0.035 A 
HETATM   26  C   UNL     1     -40.980  55.105 -50.944  1.00  0.00     0.010 A 
HETATM   27  C   UNL     1     -40.927  53.933 -50.179  1.00  0.00     0.007 A 
HETATM   28  C   UNL     1     -40.546  52.721 -50.758  1.00  0.00    -0.062 A 
HETATM   29  C   UNL     1     -40.517  51.455 -49.954  1.00  0.00     0.048 C 
HETATM   30  C   UNL     1     -40.183  52.704 -52.107  1.00  0.00     0.007 A 
HETATM   31  C   UNL     1     -40.240  53.873 -52.872  1.00  0.00     0.010 A 
ENDBRANCH   1  25
BRANCH   8  32
HETATM   32  C   UNL     1     -43.478  54.538 -54.156  1.00  0.00     0.409 C 
HETATM   33  F   UNL     1     -43.569  54.281 -52.840  1.00  0.00    -0.169 F 
HETATM   34  F   UNL     1     -44.696  54.303 -54.698  1.00  0.00    -0.169 F 
HETATM   35  F   UNL     1     -42.645  53.607 -54.692  1.00  0.00    -0.169 F 
ENDBRANCH   8  32
TORSDOF 6
ENDMDL
MODEL 8
REMARK VINA RESULT:      -7.6     17.431     19.357
REMARK  6 active torsions:
REMARK  status: ('A' for Active; 'I' for Inactive)
REMARK    1  A    between atoms: C_5  and  C_6 
REMARK    2  A    between atoms: C_12  and  C_13 
REMARK       I    between atoms: C_13  and  N_14 
REMARK    3  A    between atoms: N_14  and  C_15 
REMARK    4  A    between atoms: C_18  and  C_19 
REMARK    5  A    between atoms: C_19  and  O_20 
REMARK    6  A    between atoms: C_25  and  C_26 
ROOT
HETATM    1  C   UNL     1     -35.191  38.791 -55.309  1.00  0.00     0.118 C 
HETATM    2  N   UNL     1     -36.085  38.745 -54.139  1.00  0.00    -0.365 N 
HETATM    3  C   UNL     1     -36.440  39.900 -53.500  1.00  0.00     0.138 A 
HETATM    4  N   UNL     1     -35.846  41.101 -53.817  1.00  0.00    -0.240 N 
HETATM    5  N   UNL     1     -36.221  42.118 -53.026  1.00  0.00    -0.181 NA
HETATM    6  C   UNL     1     -37.139  41.564 -52.231  1.00  0.00     0.160 A 
HETATM    7  C   UNL     1     -37.319  40.178 -52.466  1.00  0.00     0.096 A 
HETATM    8  C   UNL     1     -34.744  41.265 -54.746  1.00  0.00     0.221 C 
HETATM    9  C   UNL     1     -34.141  39.897 -55.109  1.00  0.00     0.066 C 
HETATM   10  H   UNL     1     -35.894  37.928 -53.556  1.00  0.00     0.161 HD
ENDROOT
BRANCH   7  11
HETATM   11  C   UNL     1     -38.220  39.309 -51.720  1.00  0.00     0.261 C 
HETATM   12  N   UNL     1     -39.480  39.839 -51.515  1.00  0.00    -0.323 N 
HETATM   13  H   UNL     1     -39.595  40.805 -51.796  1.00  0.00     0.169 HD
HETATM   14  O   UNL     1     -37.842  38.202 -51.355  1.00  0.00    -0.267 OA
BRANCH  12  15
HETATM   15  C   UNL     1     -40.623  39.171 -51.030  1.00  0.00     0.035 A 
HETATM   16  C   UNL     1     -41.847  39.138 -51.697  1.00  0.00     0.030 A 
HETATM   17  C   UNL     1     -42.959  38.512 -51.121  1.00  0.00     0.012 A 
HETATM   18  C   UNL     1     -42.872  37.913 -49.859  1.00  0.00    -0.030 A 
HETATM   19  C   UNL     1     -41.639  37.941 -49.193  1.00  0.00     0.012 A 
HETATM   20  C   UNL     1     -40.522  38.549 -49.780  1.00  0.00     0.030 A 
BRANCH  18  21
HETATM   21  C   UNL     1     -44.107  37.308 -49.226  1.00  0.00     0.147 C 
HETATM   22  C   UNL     1     -45.013  36.658 -50.263  1.00  0.00     0.044 C 
BRANCH  21  23
HETATM   23  O   UNL     1     -44.851  38.297 -48.520  1.00  0.00    -0.391 OA
HETATM   24  H   UNL     1     -44.704  38.131 -47.572  1.00  0.00     0.210 HD
ENDBRANCH  21  23
ENDBRANCH  18  21
ENDBRANCH  12  15
ENDBRANCH   7  11
BRANCH   1  25
HETATM   25  C   UNL     1     -35.932  38.864 -56.634  1.00  0.00    -0.035 A 
HETATM   26  C   UNL     1     -37.329  38.964 -56.727  1.00  0.00     0.010 A 
HETATM   27  C   UNL     1     -37.963  39.093 -57.969  1.00  0.00     0.007 A 
HETATM   28  C   UNL     1     -37.219  39.108 -59.150  1.00  0.00    -0.062 A 
HETATM   29  C   UNL     1     -37.886  39.278 -60.482  1.00  0.00     0.048 C 
HETATM   30  C   UNL     1     -35.833  38.957 -59.074  1.00  0.00     0.007 A 
HETATM   31  C   UNL     1     -35.199  38.833 -57.834  1.00  0.00     0.010 A 
ENDBRANCH   1  25
BRANCH   8  32
HETATM   32  C   UNL     1     -35.167  42.107 -55.930  1.00  0.00     0.409 C 
HETATM   33  F   UNL     1     -36.469  41.999 -56.247  1.00  0.00    -0.169 F 
HETATM   34  F   UNL     1     -34.907  43.420 -55.732  1.00  0.00    -0.169 F 
HETATM   35  F   UNL     1     -34.454  41.748 -57.031  1.00  0.00    -0.169 F 
ENDBRANCH   8  32
TORSDOF 6
ENDMDL
MODEL 9
REMARK VINA RESULT:      -7.6      4.661      8.575
REMARK  6 active torsions:
REMARK  status: ('A' for Active; 'I' for Inactive)
REMARK    1  A    between atoms: C_5  and  C_6 
REMARK    2  A    between atoms: C_12  and  C_13 
REMARK       I    between atoms: C_13  and  N_14 
REMARK    3  A    between atoms: N_14  and  C_15 
REMARK    4  A    between atoms: C_18  and  C_19 
REMARK    5  A    between atoms: C_19  and  O_20 
REMARK    6  A    between atoms: C_25  and  C_26 
ROOT
HETATM    1  C   UNL     1     -41.784  59.903 -54.204  1.00  0.00     0.118 C 
HETATM    2  N   UNL     1     -41.822  58.699 -53.355  1.00  0.00    -0.365 N 
HETATM    3  C   UNL     1     -42.967  58.366 -52.687  1.00  0.00     0.138 A 
HETATM    4  N   UNL     1     -44.045  59.221 -52.650  1.00  0.00    -0.240 N 
HETATM    5  N   UNL     1     -45.046  58.798 -51.863  1.00  0.00    -0.181 NA
HETATM    6  C   UNL     1     -44.625  57.602 -51.448  1.00  0.00     0.160 A 
HETATM    7  C   UNL     1     -43.329  57.273 -51.917  1.00  0.00     0.096 A 
HETATM    8  C   UNL     1     -44.060  60.566 -53.194  1.00  0.00     0.221 C 
HETATM    9  C   UNL     1     -42.634  61.012 -53.560  1.00  0.00     0.066 C 
HETATM   10  H   UNL     1     -40.938  58.563 -52.862  1.00  0.00     0.161 HD
ENDROOT
BRANCH   7  11
HETATM   11  C   UNL     1     -42.601  56.053 -51.589  1.00  0.00     0.261 C 
HETATM   12  N   UNL     1     -42.594  55.106 -52.595  1.00  0.00    -0.323 N 
HETATM   13  H   UNL     1     -43.188  55.313 -53.389  1.00  0.00     0.169 HD
HETATM   14  O   UNL     1     -42.041  55.948 -50.503  1.00  0.00    -0.267 OA
BRANCH  12  15
HETATM   15  C   UNL     1     -41.810  53.937 -52.667  1.00  0.00     0.035 A 
HETATM   16  C   UNL     1     -41.088  53.417 -51.594  1.00  0.00     0.030 A 
HETATM   17  C   UNL     1     -40.275  52.289 -51.757  1.00  0.00     0.012 A 
HETATM   18  C   UNL     1     -40.160  51.661 -53.003  1.00  0.00    -0.030 A 
HETATM   19  C   UNL     1     -40.893  52.180 -54.079  1.00  0.00     0.012 A 
HETATM   20  C   UNL     1     -41.722  53.296 -53.908  1.00  0.00     0.030 A 
BRANCH  18  21
HETATM   21  C   UNL     1     -39.219  50.488 -53.171  1.00  0.00     0.147 C 
HETATM   22  C   UNL     1     -39.404  49.803 -54.518  1.00  0.00     0.044 C 
BRANCH  21  23
HETATM   23  O   UNL     1     -39.415  49.528 -52.136  1.00  0.00    -0.391 OA
HETATM   24  H   UNL     1     -38.703  48.871 -52.227  1.00  0.00     0.210 HD
ENDBRANCH  21  23
ENDBRANCH  18  21
ENDBRANCH  12  15
ENDBRANCH   7  11
BRANCH   1  25
HETATM   25  C   UNL     1     -42.116  59.626 -55.661  1.00  0.00    -0.035 A 
HETATM   26  C   UNL     1     -42.111  60.619 -56.652  1.00  0.00     0.010 A 
HETATM   27  C   UNL     1     -42.362  60.304 -57.993  1.00  0.00     0.007 A 
HETATM   28  C   UNL     1     -42.639  58.990 -58.375  1.00  0.00    -0.062 A 
HETATM   29  C   UNL     1     -42.876  58.636 -59.813  1.00  0.00     0.048 C 
HETATM   30  C   UNL     1     -42.698  58.000 -57.391  1.00  0.00     0.007 A 
HETATM   31  C   UNL     1     -42.444  58.315 -56.053  1.00  0.00     0.010 A 
ENDBRANCH   1  25
BRANCH   8  32
HETATM   32  C   UNL     1     -45.067  60.673 -54.320  1.00  0.00     0.409 C 
HETATM   33  F   UNL     1     -44.748  61.576 -55.262  1.00  0.00    -0.169 F 
HETATM   34  F   UNL     1     -45.250  59.485 -54.944  1.00  0.00    -0.169 F 
HETATM   35  F   UNL     1     -46.283  61.023 -53.821  1.00  0.00    -0.169 F 
ENDBRANCH   8  32
TORSDOF 6
ENDMDL
MODEL 10
REMARK VINA RESULT:      -7.4      1.920      4.068
REMARK  6 active torsions:
REMARK  status: ('A' for Active; 'I' for Inactive)
REMARK    1  A    between atoms: C_5  and  C_6 
REMARK    2  A    between atoms: C_12  and  C_13 
REMARK       I    between atoms: C_13  and  N_14 
REMARK    3  A    between atoms: N_14  and  C_15 
REMARK    4  A    between atoms: C_18  and  C_19 
REMARK    5  A    between atoms: C_19  and  O_20 
REMARK    6  A    between atoms: C_25  and  C_26 
ROOT
HETATM    1  C   UNL     1     -41.620  58.715 -54.188  1.00  0.00     0.118 C 
HETATM    2  N   UNL     1     -42.149  58.342 -55.512  1.00  0.00    -0.365 N 
HETATM    3  C   UNL     1     -42.425  57.035 -55.798  1.00  0.00     0.138 A 
HETATM    4  N   UNL     1     -42.061  56.025 -54.936  1.00  0.00    -0.240 N 
HETATM    5  N   UNL     1     -42.301  54.794 -55.411  1.00  0.00    -0.181 NA
HETATM    6  C   UNL     1     -42.906  55.028 -56.577  1.00  0.00     0.160 A 
HETATM    7  C   UNL     1     -43.008  56.408 -56.886  1.00  0.00     0.096 A 
HETATM    8  C   UNL     1     -41.278  56.204 -53.727  1.00  0.00     0.221 C 
HETATM    9  C   UNL     1     -40.668  57.616 -53.687  1.00  0.00     0.066 C 
HETATM   10  H   UNL     1     -41.727  58.904 -56.253  1.00  0.00     0.161 HD
ENDROOT
BRANCH   7  11
HETATM   11  C   UNL     1     -43.581  56.954 -58.109  1.00  0.00     0.261 C 
HETATM   12  N   UNL     1     -44.840  56.472 -58.412  1.00  0.00    -0.323 N 
HETATM   13  H   UNL     1     -45.167  55.715 -57.825  1.00  0.00     0.169 HD
HETATM   14  O   UNL     1     -42.958  57.788 -58.758  1.00  0.00    -0.267 OA
BRANCH  12  15
HETATM   15  C   UNL     1     -45.732  56.959 -59.389  1.00  0.00     0.035 A 
HETATM   16  C   UNL     1     -46.100  58.298 -59.510  1.00  0.00     0.030 A 
HETATM   17  C   UNL     1     -47.045  58.698 -60.462  1.00  0.00     0.012 A 
HETATM   18  C   UNL     1     -47.651  57.763 -61.309  1.00  0.00    -0.030 A 
HETATM   19  C   UNL     1     -47.275  56.418 -61.192  1.00  0.00     0.012 A 
HETATM   20  C   UNL     1     -46.313  56.023 -60.253  1.00  0.00     0.030 A 
BRANCH  18  21
HETATM   21  C   UNL     1     -48.723  58.210 -62.279  1.00  0.00     0.147 C 
HETATM   22  C   UNL     1     -49.500  59.408 -61.752  1.00  0.00     0.044 C 
BRANCH  21  23
HETATM   23  O   UNL     1     -49.638  57.149 -62.547  1.00  0.00    -0.391 OA
HETATM   24  H   UNL     1     -50.205  57.450 -63.278  1.00  0.00     0.210 HD
ENDBRANCH  21  23
ENDBRANCH  18  21
ENDBRANCH  12  15
ENDBRANCH   7  11
BRANCH   1  25
HETATM   25  C   UNL     1     -42.701  59.108 -53.194  1.00  0.00    -0.035 A 
HETATM   26  C   UNL     1     -44.071  58.940 -53.444  1.00  0.00     0.010 A 
HETATM   27  C   UNL     1     -45.028  59.257 -52.472  1.00  0.00     0.007 A 
HETATM   28  C   UNL     1     -44.639  59.765 -51.231  1.00  0.00    -0.062 A 
HETATM   29  C   UNL     1     -45.654  60.078 -50.171  1.00  0.00     0.048 C 
HETATM   30  C   UNL     1     -43.282  59.986 -50.988  1.00  0.00     0.007 A 
HETATM   31  C   UNL     1     -42.327  59.665 -51.957  1.00  0.00     0.010 A 
ENDBRANCH   1  25
BRANCH   8  32
HETATM   32  C   UNL     1     -42.090  55.828 -52.507  1.00  0.00     0.409 C 
HETATM   33  F   UNL     1     -41.807  56.553 -51.411  1.00  0.00    -0.169 F 
HETATM   34  F   UNL     1     -43.420  55.943 -52.734  1.00  0.00    -0.169 F 
HETATM   35  F   UNL     1     -41.877  54.522 -52.193  1.00  0.00    -0.169 F 
ENDBRANCH   8  32
TORSDOF 6
ENDMDL
