MODEL 1
REMARK VINA RESULT:      -7.7      0.000      0.000
REMARK  10 active torsions:
REMARK  status: ('A' for Active; 'I' for Inactive)
REMARK    1  A    between atoms: C_2  and  C_3 
REMARK    2  A    between atoms: C_3  and  C_4 
REMARK    3  A    between atoms: C_4  and  N_5 
REMARK    4  A    between atoms: N_5  and  C_7 
REMARK    5  A    between atoms: C_7  and  C_8 
REMARK    6  A    between atoms: C_8  and  C_9 
REMARK    7  A    between atoms: C_9  and  N_10 
REMARK       I    between atoms: N_10  and  C_11 
REMARK    8  A    between atoms: C_11  and  C_12 
REMARK    9  A    between atoms: C_12  and  O_13 
REMARK   10  A    between atoms: N_14  and  C_15 
ROOT
HETATM    1  C   UNL     1     -43.092  56.590 -56.037  1.00  0.00     0.256 C 
HETATM    2  N   UNL     1     -42.479  57.561 -55.107  1.00  0.00    -0.254 N 
HETATM    3  C   UNL     1     -42.072  58.808 -55.561  1.00  0.00     0.330 C 
HETATM    4  O   UNL     1     -41.748  59.764 -54.856  1.00  0.00    -0.246 OA
HETATM    5  N   UNL     1     -41.974  58.996 -56.904  1.00  0.00    -0.308 N 
HETATM    6  C   UNL     1     -42.259  58.066 -57.884  1.00  0.00     0.048 A 
HETATM    7  C   UNL     1     -42.802  56.846 -57.512  1.00  0.00     0.034 A 
HETATM    8  C   UNL     1     -42.004  58.371 -59.222  1.00  0.00     0.030 A 
HETATM    9  C   UNL     1     -42.290  57.434 -60.213  1.00  0.00     0.002 A 
HETATM   10  C   UNL     1     -42.844  56.206 -59.866  1.00  0.00     0.001 A 
HETATM   11  C   UNL     1     -43.109  55.915 -58.526  1.00  0.00     0.015 A 
HETATM   12  H   UNL     1     -41.642  59.919 -57.161  1.00  0.00     0.170 HD
ENDROOT
BRANCH   1  13
HETATM   13  C   UNL     1     -42.492  55.134 -55.720  1.00  0.00     0.279 C 
HETATM   14  N   UNL     1     -41.107  55.029 -55.831  1.00  0.00    -0.356 N 
HETATM   15  H   UNL     1     -40.631  55.931 -55.813  1.00  0.00     0.162 HD
HETATM   16  O   UNL     1     -43.210  54.141 -55.564  1.00  0.00    -0.268 OA
BRANCH  14  17
HETATM   17  C   UNL     1     -40.315  53.912 -55.346  1.00  0.00     0.124 C 
BRANCH  17  18
HETATM   18  C   UNL     1     -40.459  53.534 -53.871  1.00  0.00     0.047 C 
BRANCH  18  19
HETATM   19  C   UNL     1     -40.188  52.055 -53.611  1.00  0.00     0.236 C 
BRANCH  19  20
HETATM   20  N   UNL     1     -40.174  51.726 -52.122  1.00  0.00    -0.075 N 
HETATM   21  H   UNL     1     -41.143  51.556 -51.826  1.00  0.00     0.279 HD
HETATM   22  C   UNL     1     -39.403  50.457 -51.814  1.00  0.00     0.269 C 
BRANCH  20  23
HETATM   23  C   UNL     1     -39.619  52.859 -51.278  1.00  0.00     0.234 C 
BRANCH  23  24
HETATM   24  C   UNL     1     -40.577  53.350 -50.195  1.00  0.00     0.027 C 
BRANCH  24  25
HETATM   25  C   UNL     1     -39.945  54.323 -49.201  1.00  0.00    -0.003 C 
HETATM   26  C   UNL     1     -40.298  53.950 -47.769  1.00  0.00     0.005 C 
ENDBRANCH  24  25
ENDBRANCH  23  24
ENDBRANCH  20  23
ENDBRANCH  19  20
ENDBRANCH  18  19
ENDBRANCH  17  18
ENDBRANCH  14  17
ENDBRANCH   1  13
BRANCH   1  27
HETATM   27  O   UNL     1     -44.503  56.658 -55.873  1.00  0.00    -0.359 OA
HETATM   28  H   UNL     1     -44.858  55.756 -55.886  1.00  0.00     0.213 HD
ENDBRANCH   1  27
BRANCH   2  29
HETATM   29  C   UNL     1     -42.469  57.273 -53.682  1.00  0.00     0.042 A 
HETATM   30  C   UNL     1     -41.279  57.029 -52.974  1.00  0.00     0.030 A 
HETATM   31  C   UNL     1     -41.281  56.824 -51.589  1.00  0.00     0.002 A 
HETATM   32  C   UNL     1     -42.473  56.862 -50.876  1.00  0.00     0.000 A 
HETATM   33  C   UNL     1     -43.664  57.101 -51.551  1.00  0.00     0.002 A 
HETATM   34  C   UNL     1     -43.660  57.305 -52.935  1.00  0.00     0.030 A 
ENDBRANCH   2  29
TORSDOF 10
ENDMDL
MODEL 2
REMARK VINA RESULT:      -7.3      2.508      7.217
REMARK  10 active torsions:
REMARK  status: ('A' for Active; 'I' for Inactive)
REMARK    1  A    between atoms: C_2  and  C_3 
REMARK    2  A    between atoms: C_3  and  C_4 
REMARK    3  A    between atoms: C_4  and  N_5 
REMARK    4  A    between atoms: N_5  and  C_7 
REMARK    5  A    between atoms: C_7  and  C_8 
REMARK    6  A    between atoms: C_8  and  C_9 
REMARK    7  A    between atoms: C_9  and  N_10 
REMARK       I    between atoms: N_10  and  C_11 
REMARK    8  A    between atoms: C_11  and  C_12 
REMARK    9  A    between atoms: C_12  and  O_13 
REMARK   10  A    between atoms: N_14  and  C_15 
ROOT
HETATM    1  C   UNL     1     -41.392  55.344 -53.482  1.00  0.00     0.256 C 
HETATM    2  N   UNL     1     -41.872  55.926 -52.212  1.00  0.00    -0.254 N 
HETATM    3  C   UNL     1     -41.418  55.433 -50.997  1.00  0.00     0.330 C 
HETATM    4  O   UNL     1     -41.578  55.961 -49.896  1.00  0.00    -0.246 OA
HETATM    5  N   UNL     1     -40.773  54.235 -50.997  1.00  0.00    -0.308 N 
HETATM    6  C   UNL     1     -40.502  53.451 -52.101  1.00  0.00     0.048 A 
HETATM    7  C   UNL     1     -40.802  53.943 -53.361  1.00  0.00     0.034 A 
HETATM    8  C   UNL     1     -39.928  52.191 -51.929  1.00  0.00     0.030 A 
HETATM    9  C   UNL     1     -39.653  51.397 -53.041  1.00  0.00     0.002 A 
HETATM   10  C   UNL     1     -39.937  51.873 -54.318  1.00  0.00     0.001 A 
HETATM   11  C   UNL     1     -40.498  53.141 -54.480  1.00  0.00     0.015 A 
HETATM   12  H   UNL     1     -40.498  53.923 -50.072  1.00  0.00     0.170 HD
ENDROOT
BRANCH   1  13
HETATM   13  C   UNL     1     -42.642  55.207 -54.483  1.00  0.00     0.279 C 
HETATM   14  N   UNL     1     -42.590  56.029 -55.607  1.00  0.00    -0.356 N 
HETATM   15  H   UNL     1     -41.657  56.391 -55.801  1.00  0.00     0.162 HD
HETATM   16  O   UNL     1     -43.653  54.559 -54.196  1.00  0.00    -0.268 OA
BRANCH  14  17
HETATM   17  C   UNL     1     -43.449  55.902 -56.772  1.00  0.00     0.124 C 
BRANCH  17  18
HETATM   18  C   UNL     1     -43.319  56.966 -57.862  1.00  0.00     0.047 C 
BRANCH  18  19
HETATM   19  C   UNL     1     -44.466  57.972 -57.846  1.00  0.00     0.236 C 
BRANCH  19  20
HETATM   20  N   UNL     1     -45.791  57.341 -58.265  1.00  0.00    -0.075 N 
HETATM   21  H   UNL     1     -45.794  56.367 -57.941  1.00  0.00     0.279 HD
HETATM   22  C   UNL     1     -46.985  58.012 -57.617  1.00  0.00     0.269 C 
BRANCH  20  23
HETATM   23  C   UNL     1     -45.984  57.335 -59.772  1.00  0.00     0.234 C 
BRANCH  23  24
HETATM   24  C   UNL     1     -46.229  55.946 -60.356  1.00  0.00     0.027 C 
BRANCH  24  25
HETATM   25  C   UNL     1     -44.950  55.180 -60.695  1.00  0.00    -0.003 C 
HETATM   26  C   UNL     1     -44.697  54.065 -59.691  1.00  0.00     0.005 C 
ENDBRANCH  24  25
ENDBRANCH  23  24
ENDBRANCH  20  23
ENDBRANCH  19  20
ENDBRANCH  18  19
ENDBRANCH  17  18
ENDBRANCH  14  17
ENDBRANCH   1  13
BRANCH   1  27
HETATM   27  O   UNL     1     -40.365  56.186 -53.988  1.00  0.00    -0.359 OA
HETATM   28  H   UNL     1     -40.736  57.070 -54.133  1.00  0.00     0.213 HD
ENDBRANCH   1  27
BRANCH   2  29
HETATM   29  C   UNL     1     -42.682  57.134 -52.243  1.00  0.00     0.042 A 
HETATM   30  C   UNL     1     -44.048  57.129 -51.911  1.00  0.00     0.030 A 
HETATM   31  C   UNL     1     -44.797  58.312 -51.878  1.00  0.00     0.002 A 
HETATM   32  C   UNL     1     -44.196  59.530 -52.171  1.00  0.00     0.000 A 
HETATM   33  C   UNL     1     -42.847  59.563 -52.503  1.00  0.00     0.002 A 
HETATM   34  C   UNL     1     -42.101  58.380 -52.536  1.00  0.00     0.030 A 
ENDBRANCH   2  29
TORSDOF 10
ENDMDL
MODEL 3
REMARK VINA RESULT:      -7.2      2.484      7.130
REMARK  10 active torsions:
REMARK  status: ('A' for Active; 'I' for Inactive)
REMARK    1  A    between atoms: C_2  and  C_3 
REMARK    2  A    between atoms: C_3  and  C_4 
REMARK    3  A    between atoms: C_4  and  N_5 
REMARK    4  A    between atoms: N_5  and  C_7 
REMARK    5  A    between atoms: C_7  and  C_8 
REMARK    6  A    between atoms: C_8  and  C_9 
REMARK    7  A    between atoms: C_9  and  N_10 
REMARK       I    between atoms: N_10  and  C_11 
REMARK    8  A    between atoms: C_11  and  C_12 
REMARK    9  A    between atoms: C_12  and  O_13 
REMARK   10  A    between atoms: N_14  and  C_15 
ROOT
HETATM    1  C   UNL     1     -41.255  55.280 -54.001  1.00  0.00     0.256 C 
HETATM    2  N   UNL     1     -41.853  56.086 -52.917  1.00  0.00    -0.254 N 
HETATM    3  C   UNL     1     -41.552  55.813 -51.590  1.00  0.00     0.330 C 
HETATM    4  O   UNL     1     -41.815  56.532 -50.627  1.00  0.00    -0.246 OA
HETATM    5  N   UNL     1     -40.950  54.627 -51.305  1.00  0.00    -0.308 N 
HETATM    6  C   UNL     1     -40.583  53.656 -52.215  1.00  0.00     0.048 A 
HETATM    7  C   UNL     1     -40.727  53.917 -53.568  1.00  0.00     0.034 A 
HETATM    8  C   UNL     1     -40.072  52.439 -51.759  1.00  0.00     0.030 A 
HETATM    9  C   UNL     1     -39.702  51.457 -52.674  1.00  0.00     0.002 A 
HETATM   10  C   UNL     1     -39.828  51.698 -54.039  1.00  0.00     0.001 A 
HETATM   11  C   UNL     1     -40.326  52.924 -54.486  1.00  0.00     0.015 A 
HETATM   12  H   UNL     1     -40.788  54.483 -50.314  1.00  0.00     0.170 HD
ENDROOT
BRANCH   1  13
HETATM   13  C   UNL     1     -42.390  54.980 -55.098  1.00  0.00     0.279 C 
HETATM   14  N   UNL     1     -42.250  55.677 -56.298  1.00  0.00    -0.356 N 
HETATM   15  H   UNL     1     -41.314  56.056 -56.439  1.00  0.00     0.162 HD
HETATM   16  O   UNL     1     -43.404  54.324 -54.841  1.00  0.00    -0.268 OA
BRANCH  14  17
HETATM   17  C   UNL     1     -42.980  55.386 -57.519  1.00  0.00     0.124 C 
BRANCH  17  18
HETATM   18  C   UNL     1     -43.330  56.565 -58.429  1.00  0.00     0.047 C 
BRANCH  18  19
HETATM   19  C   UNL     1     -43.386  56.178 -59.903  1.00  0.00     0.236 C 
BRANCH  19  20
HETATM   20  N   UNL     1     -44.653  56.687 -60.584  1.00  0.00    -0.075 N 
HETATM   21  H   UNL     1     -44.405  56.974 -61.539  1.00  0.00     0.279 HD
HETATM   22  C   UNL     1     -45.713  55.612 -60.721  1.00  0.00     0.269 C 
BRANCH  20  23
HETATM   23  C   UNL     1     -45.255  57.888 -59.876  1.00  0.00     0.234 C 
BRANCH  23  24
HETATM   24  C   UNL     1     -46.720  57.706 -59.487  1.00  0.00     0.027 C 
BRANCH  24  25
HETATM   25  C   UNL     1     -46.992  57.880 -57.994  1.00  0.00    -0.003 C 
HETATM   26  C   UNL     1     -46.039  58.894 -57.378  1.00  0.00     0.005 C 
ENDBRANCH  24  25
ENDBRANCH  23  24
ENDBRANCH  20  23
ENDBRANCH  19  20
ENDBRANCH  18  19
ENDBRANCH  17  18
ENDBRANCH  14  17
ENDBRANCH   1  13
BRANCH   1  27
HETATM   27  O   UNL     1     -40.151  56.006 -54.528  1.00  0.00    -0.359 OA
HETATM   28  H   UNL     1     -40.286  56.121 -55.481  1.00  0.00     0.213 HD
ENDBRANCH   1  27
BRANCH   2  29
HETATM   29  C   UNL     1     -42.616  57.278 -53.254  1.00  0.00     0.042 A 
HETATM   30  C   UNL     1     -44.018  57.323 -53.157  1.00  0.00     0.030 A 
HETATM   31  C   UNL     1     -44.731  58.500 -53.417  1.00  0.00     0.002 A 
HETATM   32  C   UNL     1     -44.059  59.662 -53.775  1.00  0.00     0.000 A 
HETATM   33  C   UNL     1     -42.674  59.645 -53.879  1.00  0.00     0.002 A 
HETATM   34  C   UNL     1     -41.963  58.468 -53.620  1.00  0.00     0.030 A 
ENDBRANCH   2  29
TORSDOF 10
ENDMDL
MODEL 4
REMARK VINA RESULT:      -7.1      3.011      6.497
REMARK  10 active torsions:
REMARK  status: ('A' for Active; 'I' for Inactive)
REMARK    1  A    between atoms: C_2  and  C_3 
REMARK    2  A    between atoms: C_3  and  C_4 
REMARK    3  A    between atoms: C_4  and  N_5 
REMARK    4  A    between atoms: N_5  and  C_7 
REMARK    5  A    between atoms: C_7  and  C_8 
REMARK    6  A    between atoms: C_8  and  C_9 
REMARK    7  A    between atoms: C_9  and  N_10 
REMARK       I    between atoms: N_10  and  C_11 
REMARK    8  A    between atoms: C_11  and  C_12 
REMARK    9  A    between atoms: C_12  and  O_13 
REMARK   10  A    between atoms: N_14  and  C_15 
ROOT
HETATM    1  C   UNL     1     -42.399  58.208 -51.257  1.00  0.00     0.256 C 
HETATM    2  N   UNL     1     -43.772  58.754 -51.257  1.00  0.00    -0.254 N 
HETATM    3  C   UNL     1     -44.849  57.949 -50.914  1.00  0.00     0.330 C 
HETATM    4  O   UNL     1     -45.994  58.334 -50.677  1.00  0.00    -0.246 OA
HETATM    5  N   UNL     1     -44.651  56.604 -50.876  1.00  0.00    -0.308 N 
HETATM    6  C   UNL     1     -43.464  55.943 -51.129  1.00  0.00     0.048 A 
HETATM    7  C   UNL     1     -42.315  56.689 -51.341  1.00  0.00     0.034 A 
HETATM    8  C   UNL     1     -43.443  54.548 -51.158  1.00  0.00     0.030 A 
HETATM    9  C   UNL     1     -42.248  53.879 -51.413  1.00  0.00     0.002 A 
HETATM   10  C   UNL     1     -41.079  54.604 -51.621  1.00  0.00     0.001 A 
HETATM   11  C   UNL     1     -41.107  56.000 -51.575  1.00  0.00     0.015 A 
HETATM   12  H   UNL     1     -45.487  56.077 -50.649  1.00  0.00     0.170 HD
ENDROOT
BRANCH   1  13
HETATM   13  C   UNL     1     -41.632  58.761 -52.557  1.00  0.00     0.279 C 
HETATM   14  N   UNL     1     -42.199  58.394 -53.777  1.00  0.00    -0.356 N 
HETATM   15  H   UNL     1     -43.165  58.076 -53.695  1.00  0.00     0.162 HD
HETATM   16  O   UNL     1     -40.532  59.316 -52.491  1.00  0.00    -0.268 OA
BRANCH  14  17
HETATM   17  C   UNL     1     -41.855  58.975 -55.062  1.00  0.00     0.124 C 
BRANCH  17  18
HETATM   18  C   UNL     1     -42.655  58.512 -56.281  1.00  0.00     0.047 C 
BRANCH  18  19
HETATM   19  C   UNL     1     -43.612  57.368 -55.961  1.00  0.00     0.236 C 
BRANCH  19  20
HETATM   20  N   UNL     1     -43.602  56.289 -57.039  1.00  0.00    -0.075 N 
HETATM   21  H   UNL     1     -44.577  56.056 -57.262  1.00  0.00     0.279 HD
HETATM   22  C   UNL     1     -42.967  56.764 -58.331  1.00  0.00     0.269 C 
BRANCH  20  23
HETATM   23  C   UNL     1     -42.908  55.017 -56.585  1.00  0.00     0.234 C 
BRANCH  23  24
HETATM   24  C   UNL     1     -42.341  55.093 -55.170  1.00  0.00     0.027 C 
BRANCH  24  25
HETATM   25  C   UNL     1     -40.816  55.174 -55.115  1.00  0.00    -0.003 C 
HETATM   26  C   UNL     1     -40.194  53.786 -55.079  1.00  0.00     0.005 C 
ENDBRANCH  24  25
ENDBRANCH  23  24
ENDBRANCH  20  23
ENDBRANCH  19  20
ENDBRANCH  18  19
ENDBRANCH  17  18
ENDBRANCH  14  17
ENDBRANCH   1  13
BRANCH   1  27
HETATM   27  O   UNL     1     -41.776  58.593 -50.038  1.00  0.00    -0.359 OA
HETATM   28  H   UNL     1     -40.849  58.812 -50.223  1.00  0.00     0.213 HD
ENDBRANCH   1  27
BRANCH   2  29
HETATM   29  C   UNL     1     -43.970  60.183 -51.442  1.00  0.00     0.042 A 
HETATM   30  C   UNL     1     -43.530  61.129 -50.500  1.00  0.00     0.030 A 
HETATM   31  C   UNL     1     -43.665  62.505 -50.726  1.00  0.00     0.002 A 
HETATM   32  C   UNL     1     -44.240  62.968 -51.903  1.00  0.00     0.000 A 
HETATM   33  C   UNL     1     -44.685  62.054 -52.851  1.00  0.00     0.002 A 
HETATM   34  C   UNL     1     -44.549  60.681 -52.622  1.00  0.00     0.030 A 
ENDBRANCH   2  29
TORSDOF 10
ENDMDL
MODEL 5
REMARK VINA RESULT:      -6.9      2.872      7.170
REMARK  10 active torsions:
REMARK  status: ('A' for Active; 'I' for Inactive)
REMARK    1  A    between atoms: C_2  and  C_3 
REMARK    2  A    between atoms: C_3  and  C_4 
REMARK    3  A    between atoms: C_4  and  N_5 
REMARK    4  A    between atoms: N_5  and  C_7 
REMARK    5  A    between atoms: C_7  and  C_8 
REMARK    6  A    between atoms: C_8  and  C_9 
REMARK    7  A    between atoms: C_9  and  N_10 
REMARK       I    between atoms: N_10  and  C_11 
REMARK    8  A    between atoms: C_11  and  C_12 
REMARK    9  A    between atoms: C_12  and  O_13 
REMARK   10  A    between atoms: N_14  and  C_15 
ROOT
HETATM    1  C   UNL     1     -43.668  56.809 -54.306  1.00  0.00     0.256 C 
HETATM    2  N   UNL     1     -42.605  56.310 -53.409  1.00  0.00    -0.254 N 
HETATM    3  C   UNL     1     -42.476  56.815 -52.123  1.00  0.00     0.330 C 
HETATM    4  O   UNL     1     -41.779  56.341 -51.226  1.00  0.00    -0.246 OA
HETATM    5  N   UNL     1     -43.139  57.964 -51.821  1.00  0.00    -0.308 N 
HETATM    6  C   UNL     1     -43.956  58.685 -52.669  1.00  0.00     0.048 A 
HETATM    7  C   UNL     1     -44.242  58.168 -53.923  1.00  0.00     0.034 A 
HETATM    8  C   UNL     1     -44.481  59.908 -52.249  1.00  0.00     0.030 A 
HETATM    9  C   UNL     1     -45.305  60.638 -53.102  1.00  0.00     0.002 A 
HETATM   10  C   UNL     1     -45.615  60.136 -54.363  1.00  0.00     0.001 A 
HETATM   11  C   UNL     1     -45.096  58.905 -54.769  1.00  0.00     0.015 A 
HETATM   12  H   UNL     1     -42.974  58.290 -50.875  1.00  0.00     0.170 HD
ENDROOT
BRANCH   1  13
HETATM   13  C   UNL     1     -43.046  56.995 -55.776  1.00  0.00     0.279 C 
HETATM   14  N   UNL     1     -43.409  56.016 -56.699  1.00  0.00    -0.356 N 
HETATM   15  H   UNL     1     -44.231  55.482 -56.419  1.00  0.00     0.162 HD
HETATM   16  O   UNL     1     -42.176  57.835 -56.026  1.00  0.00    -0.268 OA
BRANCH  14  17
HETATM   17  C   UNL     1     -43.198  56.104 -58.133  1.00  0.00     0.124 C 
BRANCH  17  18
HETATM   18  C   UNL     1     -43.875  57.259 -58.874  1.00  0.00     0.047 C 
BRANCH  18  19
HETATM   19  C   UNL     1     -43.877  57.069 -60.388  1.00  0.00     0.236 C 
BRANCH  19  20
HETATM   20  N   UNL     1     -45.182  56.458 -60.890  1.00  0.00    -0.075 N 
HETATM   21  H   UNL     1     -45.392  56.871 -61.807  1.00  0.00     0.279 HD
HETATM   22  C   UNL     1     -45.078  54.961 -61.107  1.00  0.00     0.269 C 
BRANCH  20  23
HETATM   23  C   UNL     1     -46.354  56.744 -59.967  1.00  0.00     0.234 C 
BRANCH  23  24
HETATM   24  C   UNL     1     -47.065  58.062 -60.263  1.00  0.00     0.027 C 
BRANCH  24  25
HETATM   25  C   UNL     1     -47.244  58.959 -59.039  1.00  0.00    -0.003 C 
HETATM   26  C   UNL     1     -47.197  58.147 -57.753  1.00  0.00     0.005 C 
ENDBRANCH  24  25
ENDBRANCH  23  24
ENDBRANCH  20  23
ENDBRANCH  19  20
ENDBRANCH  18  19
ENDBRANCH  17  18
ENDBRANCH  14  17
ENDBRANCH   1  13
BRANCH   1  27
HETATM   27  O   UNL     1     -44.742  55.878 -54.271  1.00  0.00    -0.359 OA
HETATM   28  H   UNL     1     -45.079  55.765 -55.173  1.00  0.00     0.213 HD
ENDBRANCH   1  27
BRANCH   2  29
HETATM   29  C   UNL     1     -41.811  55.161 -53.816  1.00  0.00     0.042 A 
HETATM   30  C   UNL     1     -42.258  53.840 -53.639  1.00  0.00     0.030 A 
HETATM   31  C   UNL     1     -41.512  52.748 -54.101  1.00  0.00     0.002 A 
HETATM   32  C   UNL     1     -40.303  52.951 -54.754  1.00  0.00     0.000 A 
HETATM   33  C   UNL     1     -39.838  54.247 -54.941  1.00  0.00     0.002 A 
HETATM   34  C   UNL     1     -40.584  55.336 -54.479  1.00  0.00     0.030 A 
ENDBRANCH   2  29
TORSDOF 10
ENDMDL
MODEL 6
REMARK VINA RESULT:      -6.9      2.136      7.300
REMARK  10 active torsions:
REMARK  status: ('A' for Active; 'I' for Inactive)
REMARK    1  A    between atoms: C_2  and  C_3 
REMARK    2  A    between atoms: C_3  and  C_4 
REMARK    3  A    between atoms: C_4  and  N_5 
REMARK    4  A    between atoms: N_5  and  C_7 
REMARK    5  A    between atoms: C_7  and  C_8 
REMARK    6  A    between atoms: C_8  and  C_9 
REMARK    7  A    between atoms: C_9  and  N_10 
REMARK       I    between atoms: N_10  and  C_11 
REMARK    8  A    between atoms: C_11  and  C_12 
REMARK    9  A    between atoms: C_12  and  O_13 
REMARK   10  A    between atoms: N_14  and  C_15 
ROOT
HETATM    1  C   UNL     1     -41.232  55.036 -53.540  1.00  0.00     0.256 C 
HETATM    2  N   UNL     1     -41.735  55.751 -52.349  1.00  0.00    -0.254 N 
HETATM    3  C   UNL     1     -41.322  55.376 -51.078  1.00  0.00     0.330 C 
HETATM    4  O   UNL     1     -41.501  56.016 -50.041  1.00  0.00    -0.246 OA
HETATM    5  N   UNL     1     -40.700  54.175 -50.939  1.00  0.00    -0.308 N 
HETATM    6  C   UNL     1     -40.414  53.279 -51.950  1.00  0.00     0.048 A 
HETATM    7  C   UNL     1     -40.672  53.645 -53.262  1.00  0.00     0.034 A 
HETATM    8  C   UNL     1     -39.868  52.033 -51.636  1.00  0.00     0.030 A 
HETATM    9  C   UNL     1     -39.579  51.127 -52.653  1.00  0.00     0.002 A 
HETATM   10  C   UNL     1     -39.820  51.475 -53.980  1.00  0.00     0.001 A 
HETATM   11  C   UNL     1     -40.352  52.729 -54.285  1.00  0.00     0.015 A 
HETATM   12  H   UNL     1     -40.455  53.954 -49.980  1.00  0.00     0.170 HD
ENDROOT
BRANCH   1  13
HETATM   13  C   UNL     1     -42.457  54.818 -54.556  1.00  0.00     0.279 C 
HETATM   14  N   UNL     1     -42.308  55.430 -55.800  1.00  0.00    -0.356 N 
HETATM   15  H   UNL     1     -41.344  55.687 -56.011  1.00  0.00     0.162 HD
HETATM   16  O   UNL     1     -43.523  54.301 -54.209  1.00  0.00    -0.268 OA
BRANCH  14  17
HETATM   17  C   UNL     1     -43.137  55.166 -56.963  1.00  0.00     0.124 C 
BRANCH  17  18
HETATM   18  C   UNL     1     -43.313  56.299 -57.975  1.00  0.00     0.047 C 
BRANCH  18  19
HETATM   19  C   UNL     1     -42.477  57.529 -57.636  1.00  0.00     0.236 C 
BRANCH  19  20
HETATM   20  N   UNL     1     -41.743  58.080 -58.854  1.00  0.00    -0.075 N 
HETATM   21  H   UNL     1     -40.738  58.082 -58.643  1.00  0.00     0.279 HD
HETATM   22  C   UNL     1     -41.921  57.211 -60.083  1.00  0.00     0.269 C 
BRANCH  20  23
HETATM   23  C   UNL     1     -42.154  59.503 -59.190  1.00  0.00     0.234 C 
BRANCH  23  24
HETATM   24  C   UNL     1     -42.480  59.719 -60.666  1.00  0.00     0.027 C 
BRANCH  24  25
HETATM   25  C   UNL     1     -41.706  60.869 -61.310  1.00  0.00    -0.003 C 
HETATM   26  C   UNL     1     -41.220  61.858 -60.261  1.00  0.00     0.005 C 
ENDBRANCH  24  25
ENDBRANCH  23  24
ENDBRANCH  20  23
ENDBRANCH  19  20
ENDBRANCH  18  19
ENDBRANCH  17  18
ENDBRANCH  14  17
ENDBRANCH   1  13
BRANCH   1  27
HETATM   27  O   UNL     1     -40.176  55.806 -54.099  1.00  0.00    -0.359 OA
HETATM   28  H   UNL     1     -40.552  56.619 -54.470  1.00  0.00     0.213 HD
ENDBRANCH   1  27
BRANCH   2  29
HETATM   29  C   UNL     1     -42.521  56.962 -52.524  1.00  0.00     0.042 A 
HETATM   30  C   UNL     1     -41.976  58.137 -53.070  1.00  0.00     0.030 A 
HETATM   31  C   UNL     1     -42.764  59.272 -53.298  1.00  0.00     0.002 A 
HETATM   32  C   UNL     1     -44.119  59.258 -52.990  1.00  0.00     0.000 A 
HETATM   33  C   UNL     1     -44.683  58.109 -52.448  1.00  0.00     0.002 A 
HETATM   34  C   UNL     1     -43.893  56.977 -52.221  1.00  0.00     0.030 A 
ENDBRANCH   2  29
TORSDOF 10
ENDMDL
MODEL 7
REMARK VINA RESULT:      -6.8     15.426     18.610
REMARK  10 active torsions:
REMARK  status: ('A' for Active; 'I' for Inactive)
REMARK    1  A    between atoms: C_2  and  C_3 
REMARK    2  A    between atoms: C_3  and  C_4 
REMARK    3  A    between atoms: C_4  and  N_5 
REMARK    4  A    between atoms: N_5  and  C_7 
REMARK    5  A    between atoms: C_7  and  C_8 
REMARK    6  A    between atoms: C_8  and  C_9 
REMARK    7  A    between atoms: C_9  and  N_10 
REMARK       I    between atoms: N_10  and  C_11 
REMARK    8  A    between atoms: C_11  and  C_12 
REMARK    9  A    between atoms: C_12  and  O_13 
REMARK   10  A    between atoms: N_14  and  C_15 
ROOT
HETATM    1  C   UNL     1     -33.881  40.429 -54.095  1.00  0.00     0.256 C 
HETATM    2  N   UNL     1     -35.184  41.122 -54.149  1.00  0.00    -0.254 N 
HETATM    3  C   UNL     1     -35.634  41.861 -53.064  1.00  0.00     0.330 C 
HETATM    4  O   UNL     1     -36.586  42.641 -53.064  1.00  0.00    -0.246 OA
HETATM    5  N   UNL     1     -35.005  41.685 -51.870  1.00  0.00    -0.308 N 
HETATM    6  C   UNL     1     -33.934  40.849 -51.624  1.00  0.00     0.048 A 
HETATM    7  C   UNL     1     -33.344  40.185 -52.689  1.00  0.00     0.034 A 
HETATM    8  C   UNL     1     -33.464  40.693 -50.319  1.00  0.00     0.030 A 
HETATM    9  C   UNL     1     -32.385  39.849 -50.067  1.00  0.00     0.002 A 
HETATM   10  C   UNL     1     -31.770  39.179 -51.121  1.00  0.00     0.001 A 
HETATM   11  C   UNL     1     -32.237  39.352 -52.425  1.00  0.00     0.015 A 
HETATM   12  H   UNL     1     -35.405  42.233 -51.117  1.00  0.00     0.170 HD
ENDROOT
BRANCH   1  13
HETATM   13  C   UNL     1     -34.050  38.975 -54.756  1.00  0.00     0.279 C 
HETATM   14  N   UNL     1     -33.414  38.808 -55.986  1.00  0.00    -0.356 N 
HETATM   15  H   UNL     1     -32.699  39.511 -56.169  1.00  0.00     0.162 HD
HETATM   16  O   UNL     1     -34.826  38.127 -54.304  1.00  0.00    -0.268 OA
BRANCH  14  17
HETATM   17  C   UNL     1     -33.199  37.532 -56.645  1.00  0.00     0.124 C 
BRANCH  17  18
HETATM   18  C   UNL     1     -33.795  37.351 -58.042  1.00  0.00     0.047 C 
BRANCH  18  19
HETATM   19  C   UNL     1     -35.197  37.940 -58.166  1.00  0.00     0.236 C 
BRANCH  19  20
HETATM   20  N   UNL     1     -36.279  36.865 -58.127  1.00  0.00    -0.075 N 
HETATM   21  H   UNL     1     -35.814  35.949 -58.110  1.00  0.00     0.279 HD
HETATM   22  C   UNL     1     -37.127  36.938 -56.872  1.00  0.00     0.269 C 
BRANCH  20  23
HETATM   23  C   UNL     1     -37.189  36.906 -59.342  1.00  0.00     0.234 C 
BRANCH  23  24
HETATM   24  C   UNL     1     -38.603  37.396 -59.038  1.00  0.00     0.027 C 
BRANCH  24  25
HETATM   25  C   UNL     1     -38.985  38.682 -59.770  1.00  0.00    -0.003 C 
HETATM   26  C   UNL     1     -37.897  39.101 -60.748  1.00  0.00     0.005 C 
ENDBRANCH  24  25
ENDBRANCH  23  24
ENDBRANCH  20  23
ENDBRANCH  19  20
ENDBRANCH  18  19
ENDBRANCH  17  18
ENDBRANCH  14  17
ENDBRANCH   1  13
BRANCH   1  27
HETATM   27  O   UNL     1     -32.926  41.239 -54.770  1.00  0.00    -0.359 OA
HETATM   28  H   UNL     1     -32.051  41.063 -54.391  1.00  0.00     0.213 HD
ENDBRANCH   1  27
BRANCH   2  29
HETATM   29  C   UNL     1     -35.910  41.176 -55.408  1.00  0.00     0.042 A 
HETATM   30  C   UNL     1     -37.115  40.481 -55.610  1.00  0.00     0.030 A 
HETATM   31  C   UNL     1     -37.838  40.599 -56.803  1.00  0.00     0.002 A 
HETATM   32  C   UNL     1     -37.375  41.421 -57.824  1.00  0.00     0.000 A 
HETATM   33  C   UNL     1     -36.186  42.119 -57.652  1.00  0.00     0.002 A 
HETATM   34  C   UNL     1     -35.466  41.998 -56.459  1.00  0.00     0.030 A 
ENDBRANCH   2  29
TORSDOF 10
ENDMDL
MODEL 8
REMARK VINA RESULT:      -6.7     15.469     18.963
REMARK  10 active torsions:
REMARK  status: ('A' for Active; 'I' for Inactive)
REMARK    1  A    between atoms: C_2  and  C_3 
REMARK    2  A    between atoms: C_3  and  C_4 
REMARK    3  A    between atoms: C_4  and  N_5 
REMARK    4  A    between atoms: N_5  and  C_7 
REMARK    5  A    between atoms: C_7  and  C_8 
REMARK    6  A    between atoms: C_8  and  C_9 
REMARK    7  A    between atoms: C_9  and  N_10 
REMARK       I    between atoms: N_10  and  C_11 
REMARK    8  A    between atoms: C_11  and  C_12 
REMARK    9  A    between atoms: C_12  and  O_13 
REMARK   10  A    between atoms: N_14  and  C_15 
ROOT
HETATM    1  C   UNL     1     -32.511  39.774 -54.120  1.00  0.00     0.256 C 
HETATM    2  N   UNL     1     -33.032  38.970 -52.995  1.00  0.00    -0.254 N 
HETATM    3  C   UNL     1     -32.296  37.908 -52.490  1.00  0.00     0.330 C 
HETATM    4  O   UNL     1     -32.520  37.307 -51.440  1.00  0.00    -0.246 OA
HETATM    5  N   UNL     1     -31.253  37.446 -53.232  1.00  0.00    -0.308 N 
HETATM    6  C   UNL     1     -30.831  37.944 -54.449  1.00  0.00     0.048 A 
HETATM    7  C   UNL     1     -31.430  39.089 -54.949  1.00  0.00     0.034 A 
HETATM    8  C   UNL     1     -29.811  37.293 -55.145  1.00  0.00     0.030 A 
HETATM    9  C   UNL     1     -29.382  37.792 -56.373  1.00  0.00     0.002 A 
HETATM   10  C   UNL     1     -29.962  38.946 -56.892  1.00  0.00     0.001 A 
HETATM   11  C   UNL     1     -30.972  39.599 -56.181  1.00  0.00     0.015 A 
HETATM   12  H   UNL     1     -30.781  36.651 -52.817  1.00  0.00     0.170 HD
ENDROOT
BRANCH   1  13
HETATM   13  C   UNL     1     -33.720  40.068 -55.138  1.00  0.00     0.279 C 
HETATM   14  N   UNL     1     -34.169  41.388 -55.155  1.00  0.00    -0.356 N 
HETATM   15  H   UNL     1     -33.504  42.046 -54.750  1.00  0.00     0.162 HD
HETATM   16  O   UNL     1     -34.325  39.167 -55.727  1.00  0.00    -0.268 OA
BRANCH  14  17
HETATM   17  C   UNL     1     -35.052  41.953 -56.160  1.00  0.00     0.124 C 
BRANCH  17  18
HETATM   18  C   UNL     1     -36.488  42.268 -55.738  1.00  0.00     0.047 C 
BRANCH  18  19
HETATM   19  C   UNL     1     -37.407  41.052 -55.814  1.00  0.00     0.236 C 
BRANCH  19  20
HETATM   20  N   UNL     1     -37.134  40.201 -57.049  1.00  0.00    -0.075 N 
HETATM   21  H   UNL     1     -36.164  40.370 -57.342  1.00  0.00     0.279 HD
HETATM   22  C   UNL     1     -37.245  38.715 -56.769  1.00  0.00     0.269 C 
BRANCH  20  23
HETATM   23  C   UNL     1     -38.043  40.553 -58.214  1.00  0.00     0.234 C 
BRANCH  23  24
HETATM   24  C   UNL     1     -37.299  41.058 -59.448  1.00  0.00     0.027 C 
BRANCH  24  25
HETATM   25  C   UNL     1     -37.121  42.575 -59.488  1.00  0.00    -0.003 C 
HETATM   26  C   UNL     1     -37.482  43.133 -60.857  1.00  0.00     0.005 C 
ENDBRANCH  24  25
ENDBRANCH  23  24
ENDBRANCH  20  23
ENDBRANCH  19  20
ENDBRANCH  18  19
ENDBRANCH  17  18
ENDBRANCH  14  17
ENDBRANCH   1  13
BRANCH   1  27
HETATM   27  O   UNL     1     -31.937  40.959 -53.583  1.00  0.00    -0.359 OA
HETATM   28  H   UNL     1     -32.293  41.719 -54.067  1.00  0.00     0.213 HD
ENDBRANCH   1  27
BRANCH   2  29
HETATM   29  C   UNL     1     -34.234  39.409 -52.303  1.00  0.00     0.042 A 
HETATM   30  C   UNL     1     -35.465  38.744 -52.444  1.00  0.00     0.030 A 
HETATM   31  C   UNL     1     -36.595  39.136 -51.716  1.00  0.00     0.002 A 
HETATM   32  C   UNL     1     -36.521  40.200 -50.826  1.00  0.00     0.000 A 
HETATM   33  C   UNL     1     -35.317  40.875 -50.668  1.00  0.00     0.002 A 
HETATM   34  C   UNL     1     -34.189  40.482 -51.397  1.00  0.00     0.030 A 
ENDBRANCH   2  29
TORSDOF 10
ENDMDL
MODEL 9
REMARK VINA RESULT:      -6.5      2.559      7.213
REMARK  10 active torsions:
REMARK  status: ('A' for Active; 'I' for Inactive)
REMARK    1  A    between atoms: C_2  and  C_3 
REMARK    2  A    between atoms: C_3  and  C_4 
REMARK    3  A    between atoms: C_4  and  N_5 
REMARK    4  A    between atoms: N_5  and  C_7 
REMARK    5  A    between atoms: C_7  and  C_8 
REMARK    6  A    between atoms: C_8  and  C_9 
REMARK    7  A    between atoms: C_9  and  N_10 
REMARK       I    between atoms: N_10  and  C_11 
REMARK    8  A    between atoms: C_11  and  C_12 
REMARK    9  A    between atoms: C_12  and  O_13 
REMARK   10  A    between atoms: N_14  and  C_15 
ROOT
HETATM    1  C   UNL     1     -43.879  57.561 -52.345  1.00  0.00     0.256 C 
HETATM    2  N   UNL     1     -42.456  57.210 -52.162  1.00  0.00    -0.254 N 
HETATM    3  C   UNL     1     -41.692  57.855 -51.198  1.00  0.00     0.330 C 
HETATM    4  O   UNL     1     -40.575  57.512 -50.813  1.00  0.00    -0.246 OA
HETATM    5  N   UNL     1     -42.189  58.996 -50.651  1.00  0.00    -0.308 N 
HETATM    6  C   UNL     1     -43.404  59.583 -50.944  1.00  0.00     0.048 A 
HETATM    7  C   UNL     1     -44.279  58.924 -51.793  1.00  0.00     0.034 A 
HETATM    8  C   UNL     1     -43.730  60.818 -50.379  1.00  0.00     0.030 A 
HETATM    9  C   UNL     1     -44.954  61.413 -50.673  1.00  0.00     0.002 A 
HETATM   10  C   UNL     1     -45.854  60.766 -51.515  1.00  0.00     0.001 A 
HETATM   11  C   UNL     1     -45.526  59.525 -52.064  1.00  0.00     0.015 A 
HETATM   12  H   UNL     1     -41.565  59.428 -49.978  1.00  0.00     0.170 HD
ENDROOT
BRANCH   1  13
HETATM   13  C   UNL     1     -44.189  57.620 -53.921  1.00  0.00     0.279 C 
HETATM   14  N   UNL     1     -43.581  58.673 -54.603  1.00  0.00    -0.356 N 
HETATM   15  H   UNL     1     -42.804  59.091 -54.091  1.00  0.00     0.162 HD
HETATM   16  O   UNL     1     -45.037  56.900 -54.458  1.00  0.00    -0.268 OA
BRANCH  14  17
HETATM   17  C   UNL     1     -43.490  58.787 -56.048  1.00  0.00     0.124 C 
BRANCH  17  18
HETATM   18  C   UNL     1     -42.415  57.960 -56.754  1.00  0.00     0.047 C 
BRANCH  18  19
HETATM   19  C   UNL     1     -42.975  56.705 -57.416  1.00  0.00     0.236 C 
BRANCH  19  20
HETATM   20  N   UNL     1     -42.355  56.450 -58.786  1.00  0.00    -0.075 N 
HETATM   21  H   UNL     1     -41.558  55.814 -58.659  1.00  0.00     0.279 HD
HETATM   22  C   UNL     1     -43.309  55.758 -59.738  1.00  0.00     0.269 C 
BRANCH  20  23
HETATM   23  C   UNL     1     -41.839  57.721 -59.439  1.00  0.00     0.234 C 
BRANCH  23  24
HETATM   24  C   UNL     1     -42.821  58.350 -60.425  1.00  0.00     0.027 C 
BRANCH  24  25
HETATM   25  C   UNL     1     -42.519  59.812 -60.754  1.00  0.00    -0.003 C 
HETATM   26  C   UNL     1     -41.970  60.545 -59.539  1.00  0.00     0.005 C 
ENDBRANCH  24  25
ENDBRANCH  23  24
ENDBRANCH  20  23
ENDBRANCH  19  20
ENDBRANCH  18  19
ENDBRANCH  17  18
ENDBRANCH  14  17
ENDBRANCH   1  13
BRANCH   1  27
HETATM   27  O   UNL     1     -44.660  56.588 -51.662  1.00  0.00    -0.359 OA
HETATM   28  H   UNL     1     -45.337  57.048 -51.142  1.00  0.00     0.213 HD
ENDBRANCH   1  27
BRANCH   2  29
HETATM   29  C   UNL     1     -41.907  56.065 -52.870  1.00  0.00     0.042 A 
HETATM   30  C   UNL     1     -41.005  56.206 -53.939  1.00  0.00     0.030 A 
HETATM   31  C   UNL     1     -40.431  55.091 -54.564  1.00  0.00     0.002 A 
HETATM   32  C   UNL     1     -40.742  53.808 -54.132  1.00  0.00     0.000 A 
HETATM   33  C   UNL     1     -41.631  53.640 -53.077  1.00  0.00     0.002 A 
HETATM   34  C   UNL     1     -42.203  54.755 -52.455  1.00  0.00     0.030 A 
ENDBRANCH   2  29
TORSDOF 10
ENDMDL
MODEL 10
REMARK VINA RESULT:      -6.5      2.633      6.948
REMARK  10 active torsions:
REMARK  status: ('A' for Active; 'I' for Inactive)
REMARK    1  A    between atoms: C_2  and  C_3 
REMARK    2  A    between atoms: C_3  and  C_4 
REMARK    3  A    between atoms: C_4  and  N_5 
REMARK    4  A    between atoms: N_5  and  C_7 
REMARK    5  A    between atoms: C_7  and  C_8 
REMARK    6  A    between atoms: C_8  and  C_9 
REMARK    7  A    between atoms: C_9  and  N_10 
REMARK       I    between atoms: N_10  and  C_11 
REMARK    8  A    between atoms: C_11  and  C_12 
REMARK    9  A    between atoms: C_12  and  O_13 
REMARK   10  A    between atoms: N_14  and  C_15 
ROOT
HETATM    1  C   UNL     1     -43.743  56.933 -54.532  1.00  0.00     0.256 C 
HETATM    2  N   UNL     1     -42.628  56.454 -53.689  1.00  0.00    -0.254 N 
HETATM    3  C   UNL     1     -42.405  57.007 -52.436  1.00  0.00     0.330 C 
HETATM    4  O   UNL     1     -41.654  56.559 -51.571  1.00  0.00    -0.246 OA
HETATM    5  N   UNL     1     -43.032  58.177 -52.137  1.00  0.00    -0.308 N 
HETATM    6  C   UNL     1     -43.897  58.876 -52.956  1.00  0.00     0.048 A 
HETATM    7  C   UNL     1     -44.273  58.315 -54.165  1.00  0.00     0.034 A 
HETATM    8  C   UNL     1     -44.377  60.122 -52.550  1.00  0.00     0.030 A 
HETATM    9  C   UNL     1     -45.249  60.830 -53.374  1.00  0.00     0.002 A 
HETATM   10  C   UNL     1     -45.650  60.284 -54.590  1.00  0.00     0.001 A 
HETATM   11  C   UNL     1     -45.175  59.030 -54.980  1.00  0.00     0.015 A 
HETATM   12  H   UNL     1     -42.798  58.538 -51.218  1.00  0.00     0.170 HD
ENDROOT
BRANCH   1  13
HETATM   13  C   UNL     1     -43.221  57.053 -56.047  1.00  0.00     0.279 C 
HETATM   14  N   UNL     1     -43.697  56.070 -56.914  1.00  0.00    -0.356 N 
HETATM   15  H   UNL     1     -44.522  55.585 -56.562  1.00  0.00     0.162 HD
HETATM   16  O   UNL     1     -42.333  57.842 -56.381  1.00  0.00    -0.268 OA
BRANCH  14  17
HETATM   17  C   UNL     1     -43.587  56.113 -58.361  1.00  0.00     0.124 C 
BRANCH  17  18
HETATM   18  C   UNL     1     -44.712  56.806 -59.133  1.00  0.00     0.047 C 
BRANCH  18  19
HETATM   19  C   UNL     1     -44.223  58.003 -59.943  1.00  0.00     0.236 C 
BRANCH  19  20
HETATM   20  N   UNL     1     -42.863  58.503 -59.468  1.00  0.00    -0.075 N 
HETATM   21  H   UNL     1     -42.605  57.969 -58.628  1.00  0.00     0.279 HD
HETATM   22  C   UNL     1     -41.765  58.258 -60.484  1.00  0.00     0.269 C 
BRANCH  20  23
HETATM   23  C   UNL     1     -42.877  59.976 -59.101  1.00  0.00     0.234 C 
BRANCH  23  24
HETATM   24  C   UNL     1     -44.066  60.385 -58.234  1.00  0.00     0.027 C 
BRANCH  24  25
HETATM   25  C   UNL     1     -43.885  61.726 -57.524  1.00  0.00    -0.003 C 
HETATM   26  C   UNL     1     -45.190  62.508 -57.488  1.00  0.00     0.005 C 
ENDBRANCH  24  25
ENDBRANCH  23  24
ENDBRANCH  20  23
ENDBRANCH  19  20
ENDBRANCH  18  19
ENDBRANCH  17  18
ENDBRANCH  14  17
ENDBRANCH   1  13
BRANCH   1  27
HETATM   27  O   UNL     1     -44.824  56.020 -54.387  1.00  0.00    -0.359 OA
HETATM   28  H   UNL     1     -45.598  56.386 -54.842  1.00  0.00     0.213 HD
ENDBRANCH   1  27
BRANCH   2  29
HETATM   29  C   UNL     1     -41.877  55.279 -54.103  1.00  0.00     0.042 A 
HETATM   30  C   UNL     1     -40.619  55.373 -54.723  1.00  0.00     0.030 A 
HETATM   31  C   UNL     1     -39.877  54.231 -55.051  1.00  0.00     0.002 A 
HETATM   32  C   UNL     1     -40.375  52.966 -54.762  1.00  0.00     0.000 A 
HETATM   33  C   UNL     1     -41.617  52.845 -54.150  1.00  0.00     0.002 A 
HETATM   34  C   UNL     1     -42.355  53.987 -53.824  1.00  0.00     0.030 A 
ENDBRANCH   2  29
TORSDOF 10
ENDMDL
