MODEL 1
REMARK VINA RESULT:      -7.3      0.000      0.000
REMARK  10 active torsions:
REMARK  status: ('A' for Active; 'I' for Inactive)
REMARK    1  A    between atoms: C_4  and  C_5 
REMARK    2  A    between atoms: C_5  and  N_6 
REMARK    3  A    between atoms: C_7  and  S_8 
REMARK    4  A    between atoms: S_8  and  C_9 
REMARK    5  A    between atoms: C_9  and  C_10 
REMARK       I    between atoms: C_10  and  N_11 
REMARK    6  A    between atoms: N_11  and  C_12 
REMARK    7  A    between atoms: C_12  and  C_13 
REMARK       I    between atoms: C_13  and  N_14 
REMARK    8  A    between atoms: N_14  and  C_15 
REMARK    9  A    between atoms: C_26  and  C_27 
REMARK   10  A    between atoms: C_27  and  N_28 
ROOT
HETATM    1  N   UNL     1     -44.220  59.125 -53.145  1.00  0.00    -0.306 N 
HETATM    2  C   UNL     1     -44.755  59.181 -54.406  1.00  0.00     0.192 A 
HETATM    3  N   UNL     1     -45.104  57.976 -54.789  1.00  0.00    -0.123 NA
HETATM    4  N   UNL     1     -44.851  57.116 -53.756  1.00  0.00    -0.132 NA
HETATM    5  C   UNL     1     -44.380  57.812 -52.741  1.00  0.00     0.157 A 
ENDROOT
BRANCH   2   6
HETATM    6  S   UNL     1     -44.992  60.643 -55.290  1.00  0.00    -0.081 SA
BRANCH   6   7
HETATM    7  C   UNL     1     -45.904  60.051 -56.743  1.00  0.00     0.185 C 
BRANCH   7   8
HETATM    8  C   UNL     1     -45.010  59.241 -57.666  1.00  0.00     0.227 C 
HETATM    9  N   UNL     1     -45.316  57.899 -57.730  1.00  0.00    -0.352 N 
HETATM   10  H   UNL     1     -45.919  57.482 -57.032  1.00  0.00     0.162 HD
HETATM   11  O   UNL     1     -44.098  59.718 -58.339  1.00  0.00    -0.273 OA
BRANCH   9  12
HETATM   12  C   UNL     1     -44.671  57.006 -58.684  1.00  0.00     0.225 C 
BRANCH  12  13
HETATM   13  C   UNL     1     -43.500  56.220 -58.081  1.00  0.00     0.239 C 
HETATM   14  N   UNL     1     -43.579  56.120 -56.703  1.00  0.00    -0.326 N 
HETATM   15  H   UNL     1     -44.431  56.502 -56.285  1.00  0.00     0.169 HD
HETATM   16  O   UNL     1     -42.606  55.777 -58.796  1.00  0.00    -0.271 OA
BRANCH  14  17
HETATM   17  C   UNL     1     -42.657  55.533 -55.821  1.00  0.00     0.035 A 
HETATM   18  C   UNL     1     -41.586  56.220 -55.243  1.00  0.00     0.032 A 
HETATM   19  C   UNL     1     -40.720  55.564 -54.363  1.00  0.00     0.044 A 
HETATM   20  C   UNL     1     -40.924  54.222 -54.071  1.00  0.00     0.116 A 
HETATM   21  F   UNL     1     -40.086  53.591 -53.239  1.00  0.00    -0.206 F 
HETATM   22  C   UNL     1     -41.984  53.524 -54.633  1.00  0.00     0.044 A 
HETATM   23  C   UNL     1     -42.854  54.181 -55.504  1.00  0.00     0.032 A 
ENDBRANCH  14  17
ENDBRANCH  12  13
ENDBRANCH   9  12
ENDBRANCH   7   8
ENDBRANCH   6   7
ENDBRANCH   2   6
BRANCH   1  24
HETATM   24  C   UNL     1     -43.521  60.184 -52.433  1.00  0.00     0.171 C 
BRANCH  24  25
HETATM   25  C   UNL     1     -42.120  59.794 -52.039  1.00  0.00    -0.040 A 
HETATM   26  C   UNL     1     -41.245  59.223 -52.978  1.00  0.00     0.009 A 
HETATM   27  C   UNL     1     -39.932  58.907 -52.625  1.00  0.00     0.001 A 
HETATM   28  C   UNL     1     -39.473  59.171 -51.336  1.00  0.00     0.000 A 
HETATM   29  C   UNL     1     -40.324  59.751 -50.400  1.00  0.00     0.001 A 
HETATM   30  C   UNL     1     -41.639  60.060 -50.748  1.00  0.00     0.009 A 
ENDBRANCH  24  25
ENDBRANCH   1  24
BRANCH   5  31
HETATM   31  C   UNL     1     -44.106  57.285 -51.374  1.00  0.00     0.315 C 
BRANCH  31  32
HETATM   32  N   UNL     1     -43.092  56.146 -51.318  1.00  0.00    -0.064 N 
HETATM   33  H   UNL     1     -42.758  56.026 -52.285  1.00  0.00     0.280 HD
HETATM   34  C   UNL     1     -41.924  56.507 -50.433  1.00  0.00     0.235 C 
HETATM   35  C   UNL     1     -40.859  55.422 -50.494  1.00  0.00     0.028 C 
HETATM   36  C   UNL     1     -41.425  54.052 -50.145  1.00  0.00     0.003 C 
HETATM   37  C   UNL     1     -42.638  53.728 -51.009  1.00  0.00     0.028 C 
HETATM   38  C   UNL     1     -43.702  54.817 -50.916  1.00  0.00     0.235 C 
ENDBRANCH  31  32
ENDBRANCH   5  31
TORSDOF 10
ENDMDL
MODEL 2
REMARK VINA RESULT:      -7.3      2.923      6.431
REMARK  10 active torsions:
REMARK  status: ('A' for Active; 'I' for Inactive)
REMARK    1  A    between atoms: C_4  and  C_5 
REMARK    2  A    between atoms: C_5  and  N_6 
REMARK    3  A    between atoms: C_7  and  S_8 
REMARK    4  A    between atoms: S_8  and  C_9 
REMARK    5  A    between atoms: C_9  and  C_10 
REMARK       I    between atoms: C_10  and  N_11 
REMARK    6  A    between atoms: N_11  and  C_12 
REMARK    7  A    between atoms: C_12  and  C_13 
REMARK       I    between atoms: C_13  and  N_14 
REMARK    8  A    between atoms: N_14  and  C_15 
REMARK    9  A    between atoms: C_26  and  C_27 
REMARK   10  A    between atoms: C_27  and  N_28 
ROOT
HETATM    1  N   UNL     1     -44.453  58.259 -54.560  1.00  0.00    -0.306 N 
HETATM    2  C   UNL     1     -43.856  59.200 -53.762  1.00  0.00     0.192 A 
HETATM    3  N   UNL     1     -43.613  60.282 -54.463  1.00  0.00    -0.123 NA
HETATM    4  N   UNL     1     -44.100  60.083 -55.726  1.00  0.00    -0.132 NA
HETATM    5  C   UNL     1     -44.664  58.892 -55.771  1.00  0.00     0.157 A 
ENDROOT
BRANCH   2   6
HETATM    6  S   UNL     1     -43.560  58.987 -52.076  1.00  0.00    -0.081 SA
BRANCH   6   7
HETATM    7  C   UNL     1     -41.752  59.115 -52.000  1.00  0.00     0.185 C 
BRANCH   7   8
HETATM    8  C   UNL     1     -41.165  58.106 -51.028  1.00  0.00     0.227 C 
HETATM    9  N   UNL     1     -42.013  57.072 -50.692  1.00  0.00    -0.352 N 
HETATM   10  H   UNL     1     -43.002  57.141 -50.893  1.00  0.00     0.162 HD
HETATM   11  O   UNL     1     -40.021  58.161 -50.581  1.00  0.00    -0.273 OA
BRANCH   9  12
HETATM   12  C   UNL     1     -41.562  55.932 -49.904  1.00  0.00     0.225 C 
BRANCH  12  13
HETATM   13  C   UNL     1     -41.615  54.606 -50.673  1.00  0.00     0.239 C 
HETATM   14  N   UNL     1     -40.533  53.788 -50.399  1.00  0.00    -0.326 N 
HETATM   15  H   UNL     1     -39.899  54.131 -49.673  1.00  0.00     0.169 HD
HETATM   16  O   UNL     1     -42.531  54.367 -51.454  1.00  0.00    -0.271 OA
BRANCH  14  17
HETATM   17  C   UNL     1     -40.222  52.541 -50.965  1.00  0.00     0.035 A 
HETATM   18  C   UNL     1     -40.231  51.338 -50.252  1.00  0.00     0.032 A 
HETATM   19  C   UNL     1     -39.921  50.136 -50.894  1.00  0.00     0.044 A 
HETATM   20  C   UNL     1     -39.596  50.142 -52.244  1.00  0.00     0.116 A 
HETATM   21  F   UNL     1     -39.286  48.992 -52.856  1.00  0.00    -0.206 F 
HETATM   22  C   UNL     1     -39.585  51.325 -52.970  1.00  0.00     0.044 A 
HETATM   23  C   UNL     1     -39.903  52.525 -52.331  1.00  0.00     0.032 A 
ENDBRANCH  14  17
ENDBRANCH  12  13
ENDBRANCH   9  12
ENDBRANCH   7   8
ENDBRANCH   6   7
ENDBRANCH   2   6
BRANCH   1  24
HETATM   24  C   UNL     1     -44.697  56.859 -54.247  1.00  0.00     0.171 C 
BRANCH  24  25
HETATM   25  C   UNL     1     -43.493  55.988 -54.500  1.00  0.00    -0.040 A 
HETATM   26  C   UNL     1     -43.649  54.642 -54.870  1.00  0.00     0.009 A 
HETATM   27  C   UNL     1     -42.535  53.850 -55.151  1.00  0.00     0.001 A 
HETATM   28  C   UNL     1     -41.255  54.395 -55.081  1.00  0.00     0.000 A 
HETATM   29  C   UNL     1     -41.086  55.731 -54.732  1.00  0.00     0.001 A 
HETATM   30  C   UNL     1     -42.197  56.523 -54.442  1.00  0.00     0.009 A 
ENDBRANCH  24  25
ENDBRANCH   1  24
BRANCH   5  31
HETATM   31  C   UNL     1     -45.439  58.338 -56.918  1.00  0.00     0.315 C 
BRANCH  31  32
HETATM   32  N   UNL     1     -44.753  57.194 -57.661  1.00  0.00    -0.064 N 
HETATM   33  H   UNL     1     -44.896  56.360 -57.074  1.00  0.00     0.280 HD
HETATM   34  C   UNL     1     -45.395  56.966 -59.008  1.00  0.00     0.235 C 
HETATM   35  C   UNL     1     -44.794  55.739 -59.678  1.00  0.00     0.028 C 
HETATM   36  C   UNL     1     -43.278  55.838 -59.787  1.00  0.00     0.003 C 
HETATM   37  C   UNL     1     -42.652  56.125 -58.428  1.00  0.00     0.028 C 
HETATM   38  C   UNL     1     -43.252  57.371 -57.783  1.00  0.00     0.235 C 
ENDBRANCH  31  32
ENDBRANCH   5  31
TORSDOF 10
ENDMDL
MODEL 3
REMARK VINA RESULT:      -7.3      2.929      6.209
REMARK  10 active torsions:
REMARK  status: ('A' for Active; 'I' for Inactive)
REMARK    1  A    between atoms: C_4  and  C_5 
REMARK    2  A    between atoms: C_5  and  N_6 
REMARK    3  A    between atoms: C_7  and  S_8 
REMARK    4  A    between atoms: S_8  and  C_9 
REMARK    5  A    between atoms: C_9  and  C_10 
REMARK       I    between atoms: C_10  and  N_11 
REMARK    6  A    between atoms: N_11  and  C_12 
REMARK    7  A    between atoms: C_12  and  C_13 
REMARK       I    between atoms: C_13  and  N_14 
REMARK    8  A    between atoms: N_14  and  C_15 
REMARK    9  A    between atoms: C_26  and  C_27 
REMARK   10  A    between atoms: C_27  and  N_28 
ROOT
HETATM    1  N   UNL     1     -41.983  59.242 -54.224  1.00  0.00    -0.306 N 
HETATM    2  C   UNL     1     -42.501  60.021 -53.221  1.00  0.00     0.192 A 
HETATM    3  N   UNL     1     -42.977  61.132 -53.729  1.00  0.00    -0.123 NA
HETATM    4  N   UNL     1     -42.826  61.073 -55.088  1.00  0.00    -0.132 NA
HETATM    5  C   UNL     1     -42.287  59.909 -55.396  1.00  0.00     0.157 A 
ENDROOT
BRANCH   2   6
HETATM    6  S   UNL     1     -42.571  59.541 -51.566  1.00  0.00    -0.081 SA
BRANCH   6   7
HETATM    7  C   UNL     1     -44.153  58.655 -51.506  1.00  0.00     0.185 C 
BRANCH   7   8
HETATM    8  C   UNL     1     -43.992  57.274 -50.893  1.00  0.00     0.227 C 
HETATM    9  N   UNL     1     -42.689  56.836 -50.799  1.00  0.00    -0.352 N 
HETATM   10  H   UNL     1     -41.957  57.301 -51.321  1.00  0.00     0.162 HD
HETATM   11  O   UNL     1     -44.925  56.590 -50.476  1.00  0.00    -0.273 OA
BRANCH   9  12
HETATM   12  C   UNL     1     -42.337  55.612 -50.091  1.00  0.00     0.225 C 
BRANCH  12  13
HETATM   13  C   UNL     1     -42.255  54.385 -51.007  1.00  0.00     0.239 C 
HETATM   14  N   UNL     1     -40.957  53.944 -51.192  1.00  0.00    -0.326 N 
HETATM   15  H   UNL     1     -40.247  54.431 -50.639  1.00  0.00     0.169 HD
HETATM   16  O   UNL     1     -43.267  53.909 -51.514  1.00  0.00    -0.271 OA
BRANCH  14  17
HETATM   17  C   UNL     1     -40.503  52.897 -52.011  1.00  0.00     0.035 A 
HETATM   18  C   UNL     1     -40.599  52.902 -53.406  1.00  0.00     0.032 A 
HETATM   19  C   UNL     1     -40.111  51.823 -54.149  1.00  0.00     0.044 A 
HETATM   20  C   UNL     1     -39.536  50.742 -53.495  1.00  0.00     0.116 A 
HETATM   21  F   UNL     1     -39.080  49.703 -54.207  1.00  0.00    -0.206 F 
HETATM   22  C   UNL     1     -39.428  50.720 -52.112  1.00  0.00     0.044 A 
HETATM   23  C   UNL     1     -39.908  51.801 -51.369  1.00  0.00     0.032 A 
ENDBRANCH  14  17
ENDBRANCH  12  13
ENDBRANCH   9  12
ENDBRANCH   7   8
ENDBRANCH   6   7
ENDBRANCH   2   6
BRANCH   1  24
HETATM   24  C   UNL     1     -41.176  58.039 -54.082  1.00  0.00     0.171 C 
BRANCH  24  25
HETATM   25  C   UNL     1     -41.903  56.795 -54.525  1.00  0.00    -0.040 A 
HETATM   26  C   UNL     1     -43.251  56.596 -54.189  1.00  0.00     0.009 A 
HETATM   27  C   UNL     1     -43.937  55.467 -54.641  1.00  0.00     0.001 A 
HETATM   28  C   UNL     1     -43.289  54.533 -55.446  1.00  0.00     0.000 A 
HETATM   29  C   UNL     1     -41.957  54.725 -55.801  1.00  0.00     0.001 A 
HETATM   30  C   UNL     1     -41.267  55.848 -55.343  1.00  0.00     0.009 A 
ENDBRANCH  24  25
ENDBRANCH   1  24
BRANCH   5  31
HETATM   31  C   UNL     1     -42.081  59.382 -56.774  1.00  0.00     0.315 C 
BRANCH  31  32
HETATM   32  N   UNL     1     -43.115  58.354 -57.228  1.00  0.00    -0.064 N 
HETATM   33  H   UNL     1     -43.244  57.721 -56.427  1.00  0.00     0.280 HD
HETATM   34  C   UNL     1     -44.432  59.020 -57.550  1.00  0.00     0.235 C 
HETATM   35  C   UNL     1     -45.489  57.973 -57.868  1.00  0.00     0.028 C 
HETATM   36  C   UNL     1     -45.044  57.040 -58.986  1.00  0.00     0.003 C 
HETATM   37  C   UNL     1     -43.688  56.421 -58.671  1.00  0.00     0.028 C 
HETATM   38  C   UNL     1     -42.637  57.487 -58.377  1.00  0.00     0.235 C 
ENDBRANCH  31  32
ENDBRANCH   5  31
TORSDOF 10
ENDMDL
MODEL 4
REMARK VINA RESULT:      -7.2      2.605      6.461
REMARK  10 active torsions:
REMARK  status: ('A' for Active; 'I' for Inactive)
REMARK    1  A    between atoms: C_4  and  C_5 
REMARK    2  A    between atoms: C_5  and  N_6 
REMARK    3  A    between atoms: C_7  and  S_8 
REMARK    4  A    between atoms: S_8  and  C_9 
REMARK    5  A    between atoms: C_9  and  C_10 
REMARK       I    between atoms: C_10  and  N_11 
REMARK    6  A    between atoms: N_11  and  C_12 
REMARK    7  A    between atoms: C_12  and  C_13 
REMARK       I    between atoms: C_13  and  N_14 
REMARK    8  A    between atoms: N_14  and  C_15 
REMARK    9  A    between atoms: C_26  and  C_27 
REMARK   10  A    between atoms: C_27  and  N_28 
ROOT
HETATM    1  N   UNL     1     -42.790  57.758 -56.581  1.00  0.00    -0.306 N 
HETATM    2  C   UNL     1     -42.169  58.980 -56.534  1.00  0.00     0.192 A 
HETATM    3  N   UNL     1     -41.698  59.279 -57.721  1.00  0.00    -0.123 NA
HETATM    4  N   UNL     1     -42.054  58.277 -58.581  1.00  0.00    -0.132 NA
HETATM    5  C   UNL     1     -42.767  57.391 -57.914  1.00  0.00     0.157 A 
ENDROOT
BRANCH   2   6
HETATM    6  S   UNL     1     -42.109  59.977 -55.129  1.00  0.00    -0.081 SA
BRANCH   6   7
HETATM    7  C   UNL     1     -43.690  60.861 -55.236  1.00  0.00     0.185 C 
BRANCH   7   8
HETATM    8  C   UNL     1     -44.428  60.839 -53.909  1.00  0.00     0.227 C 
HETATM    9  N   UNL     1     -44.635  59.579 -53.388  1.00  0.00    -0.352 N 
HETATM   10  H   UNL     1     -44.518  58.762 -53.973  1.00  0.00     0.162 HD
HETATM   11  O   UNL     1     -44.799  61.845 -53.307  1.00  0.00    -0.273 OA
BRANCH   9  12
HETATM   12  C   UNL     1     -45.179  59.379 -52.051  1.00  0.00     0.225 C 
BRANCH  12  13
HETATM   13  C   UNL     1     -44.772  58.039 -51.426  1.00  0.00     0.239 C 
HETATM   14  N   UNL     1     -43.534  57.603 -51.861  1.00  0.00    -0.326 N 
HETATM   15  H   UNL     1     -43.027  58.256 -52.463  1.00  0.00     0.169 HD
HETATM   16  O   UNL     1     -45.522  57.452 -50.651  1.00  0.00    -0.271 OA
BRANCH  14  17
HETATM   17  C   UNL     1     -42.879  56.399 -51.552  1.00  0.00     0.035 A 
HETATM   18  C   UNL     1     -43.469  55.138 -51.674  1.00  0.00     0.032 A 
HETATM   19  C   UNL     1     -42.743  53.986 -51.357  1.00  0.00     0.044 A 
HETATM   20  C   UNL     1     -41.432  54.101 -50.913  1.00  0.00     0.116 A 
HETATM   21  F   UNL     1     -40.741  52.998 -50.597  1.00  0.00    -0.206 F 
HETATM   22  C   UNL     1     -40.827  55.344 -50.790  1.00  0.00     0.044 A 
HETATM   23  C   UNL     1     -41.550  56.493 -51.114  1.00  0.00     0.032 A 
ENDBRANCH  14  17
ENDBRANCH  12  13
ENDBRANCH   9  12
ENDBRANCH   7   8
ENDBRANCH   6   7
ENDBRANCH   2   6
BRANCH   1  24
HETATM   24  C   UNL     1     -43.260  56.961 -55.458  1.00  0.00     0.171 C 
BRANCH  24  25
HETATM   25  C   UNL     1     -42.375  55.773 -55.178  1.00  0.00    -0.040 A 
HETATM   26  C   UNL     1     -41.035  55.953 -54.799  1.00  0.00     0.009 A 
HETATM   27  C   UNL     1     -40.231  54.854 -54.493  1.00  0.00     0.001 A 
HETATM   28  C   UNL     1     -40.758  53.566 -54.546  1.00  0.00     0.000 A 
HETATM   29  C   UNL     1     -42.089  53.374 -54.905  1.00  0.00     0.001 A 
HETATM   30  C   UNL     1     -42.893  54.469 -55.220  1.00  0.00     0.009 A 
ENDBRANCH  24  25
ENDBRANCH   1  24
BRANCH   5  31
HETATM   31  C   UNL     1     -43.468  56.215 -58.503  1.00  0.00     0.315 C 
BRANCH  31  32
HETATM   32  N   UNL     1     -44.594  56.560 -59.474  1.00  0.00    -0.064 N 
HETATM   33  H   UNL     1     -44.154  57.120 -60.218  1.00  0.00     0.280 HD
HETATM   34  C   UNL     1     -45.186  55.311 -60.080  1.00  0.00     0.235 C 
HETATM   35  C   UNL     1     -46.210  55.674 -61.145  1.00  0.00     0.028 C 
HETATM   36  C   UNL     1     -47.290  56.600 -60.600  1.00  0.00     0.003 C 
HETATM   37  C   UNL     1     -46.673  57.828 -59.942  1.00  0.00     0.028 C 
HETATM   38  C   UNL     1     -45.666  57.442 -58.864  1.00  0.00     0.235 C 
ENDBRANCH  31  32
ENDBRANCH   5  31
TORSDOF 10
ENDMDL
MODEL 5
REMARK VINA RESULT:      -7.2      3.103      6.691
REMARK  10 active torsions:
REMARK  status: ('A' for Active; 'I' for Inactive)
REMARK    1  A    between atoms: C_4  and  C_5 
REMARK    2  A    between atoms: C_5  and  N_6 
REMARK    3  A    between atoms: C_7  and  S_8 
REMARK    4  A    between atoms: S_8  and  C_9 
REMARK    5  A    between atoms: C_9  and  C_10 
REMARK       I    between atoms: C_10  and  N_11 
REMARK    6  A    between atoms: N_11  and  C_12 
REMARK    7  A    between atoms: C_12  and  C_13 
REMARK       I    between atoms: C_13  and  N_14 
REMARK    8  A    between atoms: N_14  and  C_15 
REMARK    9  A    between atoms: C_26  and  C_27 
REMARK   10  A    between atoms: C_27  and  N_28 
ROOT
HETATM    1  N   UNL     1     -43.273  59.250 -56.996  1.00  0.00    -0.306 N 
HETATM    2  C   UNL     1     -42.314  59.888 -56.252  1.00  0.00     0.192 A 
HETATM    3  N   UNL     1     -41.381  60.357 -57.046  1.00  0.00    -0.123 NA
HETATM    4  N   UNL     1     -41.746  60.078 -58.335  1.00  0.00    -0.132 NA
HETATM    5  C   UNL     1     -42.916  59.470 -58.313  1.00  0.00     0.157 A 
ENDROOT
BRANCH   2   6
HETATM    6  S   UNL     1     -42.398  60.093 -54.542  1.00  0.00    -0.081 SA
BRANCH   6   7
HETATM    7  C   UNL     1     -41.170  58.888 -53.965  1.00  0.00     0.185 C 
BRANCH   7   8
HETATM    8  C   UNL     1     -41.536  58.335 -52.598  1.00  0.00     0.227 C 
HETATM    9  N   UNL     1     -41.545  56.959 -52.520  1.00  0.00    -0.352 N 
HETATM   10  H   UNL     1     -41.550  56.402 -53.364  1.00  0.00     0.162 HD
HETATM   11  O   UNL     1     -41.779  59.030 -51.614  1.00  0.00    -0.273 OA
BRANCH   9  12
HETATM   12  C   UNL     1     -41.713  56.262 -51.251  1.00  0.00     0.225 C 
BRANCH  12  13
HETATM   13  C   UNL     1     -41.726  54.735 -51.396  1.00  0.00     0.239 C 
HETATM   14  N   UNL     1     -40.547  54.240 -51.924  1.00  0.00    -0.326 N 
HETATM   15  H   UNL     1     -39.807  54.932 -52.066  1.00  0.00     0.169 HD
HETATM   16  O   UNL     1     -42.719  54.082 -51.087  1.00  0.00    -0.271 OA
BRANCH  14  17
HETATM   17  C   UNL     1     -40.233  52.910 -52.253  1.00  0.00     0.035 A 
HETATM   18  C   UNL     1     -39.821  51.954 -51.321  1.00  0.00     0.032 A 
HETATM   19  C   UNL     1     -39.540  50.647 -51.729  1.00  0.00     0.044 A 
HETATM   20  C   UNL     1     -39.665  50.304 -53.068  1.00  0.00     0.116 A 
HETATM   21  F   UNL     1     -39.382  49.055 -53.461  1.00  0.00    -0.206 F 
HETATM   22  C   UNL     1     -40.076  51.238 -54.008  1.00  0.00     0.044 A 
HETATM   23  C   UNL     1     -40.365  52.541 -53.600  1.00  0.00     0.032 A 
ENDBRANCH  14  17
ENDBRANCH  12  13
ENDBRANCH   9  12
ENDBRANCH   7   8
ENDBRANCH   6   7
ENDBRANCH   2   6
BRANCH   1  24
HETATM   24  C   UNL     1     -44.360  58.415 -56.508  1.00  0.00     0.171 C 
BRANCH  24  25
HETATM   25  C   UNL     1     -43.883  57.085 -55.983  1.00  0.00    -0.040 A 
HETATM   26  C   UNL     1     -42.852  56.388 -56.633  1.00  0.00     0.009 A 
HETATM   27  C   UNL     1     -42.377  55.180 -56.118  1.00  0.00     0.001 A 
HETATM   28  C   UNL     1     -42.914  54.664 -54.941  1.00  0.00     0.000 A 
HETATM   29  C   UNL     1     -43.925  55.352 -54.278  1.00  0.00     0.001 A 
HETATM   30  C   UNL     1     -44.408  56.554 -54.795  1.00  0.00     0.009 A 
ENDBRANCH  24  25
ENDBRANCH   1  24
BRANCH   5  31
HETATM   31  C   UNL     1     -43.737  59.117 -59.506  1.00  0.00     0.315 C 
BRANCH  31  32
HETATM   32  N   UNL     1     -44.257  57.681 -59.524  1.00  0.00    -0.064 N 
HETATM   33  H   UNL     1     -44.306  57.394 -58.537  1.00  0.00     0.280 HD
HETATM   34  C   UNL     1     -45.639  57.616 -60.128  1.00  0.00     0.235 C 
HETATM   35  C   UNL     1     -46.199  56.206 -60.016  1.00  0.00     0.028 C 
HETATM   36  C   UNL     1     -45.265  55.174 -60.636  1.00  0.00     0.003 C 
HETATM   37  C   UNL     1     -43.861  55.292 -60.056  1.00  0.00     0.028 C 
HETATM   38  C   UNL     1     -43.310  56.707 -60.198  1.00  0.00     0.235 C 
ENDBRANCH  31  32
ENDBRANCH   5  31
TORSDOF 10
ENDMDL
MODEL 6
REMARK VINA RESULT:      -7.0      2.932      6.356
REMARK  10 active torsions:
REMARK  status: ('A' for Active; 'I' for Inactive)
REMARK    1  A    between atoms: C_4  and  C_5 
REMARK    2  A    between atoms: C_5  and  N_6 
REMARK    3  A    between atoms: C_7  and  S_8 
REMARK    4  A    between atoms: S_8  and  C_9 
REMARK    5  A    between atoms: C_9  and  C_10 
REMARK       I    between atoms: C_10  and  N_11 
REMARK    6  A    between atoms: N_11  and  C_12 
REMARK    7  A    between atoms: C_12  and  C_13 
REMARK       I    between atoms: C_13  and  N_14 
REMARK    8  A    between atoms: N_14  and  C_15 
REMARK    9  A    between atoms: C_26  and  C_27 
REMARK   10  A    between atoms: C_27  and  N_28 
ROOT
HETATM    1  N   UNL     1     -44.399  57.646 -54.981  1.00  0.00    -0.306 N 
HETATM    2  C   UNL     1     -44.104  57.076 -53.770  1.00  0.00     0.192 A 
HETATM    3  N   UNL     1     -43.361  56.011 -53.954  1.00  0.00    -0.123 NA
HETATM    4  N   UNL     1     -43.111  55.899 -55.295  1.00  0.00    -0.132 NA
HETATM    5  C   UNL     1     -43.680  56.916 -55.910  1.00  0.00     0.157 A 
ENDROOT
BRANCH   2   6
HETATM    6  S   UNL     1     -44.587  57.735 -52.251  1.00  0.00    -0.081 SA
BRANCH   6   7
HETATM    7  C   UNL     1     -43.105  58.661 -51.764  1.00  0.00     0.185 C 
BRANCH   7   8
HETATM    8  C   UNL     1     -42.003  57.731 -51.283  1.00  0.00     0.227 C 
HETATM    9  N   UNL     1     -42.419  56.757 -50.400  1.00  0.00    -0.352 N 
HETATM   10  H   UNL     1     -43.319  56.835 -49.945  1.00  0.00     0.162 HD
HETATM   11  O   UNL     1     -40.833  57.795 -51.655  1.00  0.00    -0.273 OA
BRANCH   9  12
HETATM   12  C   UNL     1     -41.534  55.684 -49.967  1.00  0.00     0.225 C 
BRANCH  12  13
HETATM   13  C   UNL     1     -41.677  54.405 -50.802  1.00  0.00     0.239 C 
HETATM   14  N   UNL     1     -40.472  53.976 -51.329  1.00  0.00    -0.326 N 
HETATM   15  H   UNL     1     -39.650  54.507 -51.030  1.00  0.00     0.169 HD
HETATM   16  O   UNL     1     -42.775  53.884 -50.972  1.00  0.00    -0.271 OA
BRANCH  14  17
HETATM   17  C   UNL     1     -40.237  52.890 -52.188  1.00  0.00     0.035 A 
HETATM   18  C   UNL     1     -39.677  51.678 -51.776  1.00  0.00     0.032 A 
HETATM   19  C   UNL     1     -39.488  50.640 -52.693  1.00  0.00     0.044 A 
HETATM   20  C   UNL     1     -39.854  50.821 -54.020  1.00  0.00     0.116 A 
HETATM   21  F   UNL     1     -39.661  49.832 -54.902  1.00  0.00    -0.206 F 
HETATM   22  C   UNL     1     -40.415  52.017 -54.448  1.00  0.00     0.044 A 
HETATM   23  C   UNL     1     -40.612  53.050 -53.531  1.00  0.00     0.032 A 
ENDBRANCH  14  17
ENDBRANCH  12  13
ENDBRANCH   9  12
ENDBRANCH   7   8
ENDBRANCH   6   7
ENDBRANCH   2   6
BRANCH   1  24
HETATM   24  C   UNL     1     -45.359  58.706 -55.250  1.00  0.00     0.171 C 
BRANCH  24  25
HETATM   25  C   UNL     1     -44.864  60.062 -54.817  1.00  0.00    -0.040 A 
HETATM   26  C   UNL     1     -45.706  60.940 -54.115  1.00  0.00     0.009 A 
HETATM   27  C   UNL     1     -45.232  62.176 -53.672  1.00  0.00     0.001 A 
HETATM   28  C   UNL     1     -43.909  62.543 -53.912  1.00  0.00     0.000 A 
HETATM   29  C   UNL     1     -43.060  61.677 -54.592  1.00  0.00     0.001 A 
HETATM   30  C   UNL     1     -43.533  60.445 -55.044  1.00  0.00     0.009 A 
ENDBRANCH  24  25
ENDBRANCH   1  24
BRANCH   5  31
HETATM   31  C   UNL     1     -43.536  57.252 -57.355  1.00  0.00     0.315 C 
BRANCH  31  32
HETATM   32  N   UNL     1     -44.379  56.397 -58.298  1.00  0.00    -0.064 N 
HETATM   33  H   UNL     1     -44.967  55.812 -57.688  1.00  0.00     0.280 HD
HETATM   34  C   UNL     1     -45.268  57.262 -59.160  1.00  0.00     0.235 C 
HETATM   35  C   UNL     1     -46.198  56.395 -59.995  1.00  0.00     0.028 C 
HETATM   36  C   UNL     1     -45.430  55.376 -60.826  1.00  0.00     0.003 C 
HETATM   37  C   UNL     1     -44.496  54.551 -59.949  1.00  0.00     0.028 C 
HETATM   38  C   UNL     1     -43.557  55.438 -59.137  1.00  0.00     0.235 C 
ENDBRANCH  31  32
ENDBRANCH   5  31
TORSDOF 10
ENDMDL
MODEL 7
REMARK VINA RESULT:      -7.0      2.813      6.789
REMARK  10 active torsions:
REMARK  status: ('A' for Active; 'I' for Inactive)
REMARK    1  A    between atoms: C_4  and  C_5 
REMARK    2  A    between atoms: C_5  and  N_6 
REMARK    3  A    between atoms: C_7  and  S_8 
REMARK    4  A    between atoms: S_8  and  C_9 
REMARK    5  A    between atoms: C_9  and  C_10 
REMARK       I    between atoms: C_10  and  N_11 
REMARK    6  A    between atoms: N_11  and  C_12 
REMARK    7  A    between atoms: C_12  and  C_13 
REMARK       I    between atoms: C_13  and  N_14 
REMARK    8  A    between atoms: N_14  and  C_15 
REMARK    9  A    between atoms: C_26  and  C_27 
REMARK   10  A    between atoms: C_27  and  N_28 
ROOT
HETATM    1  N   UNL     1     -43.343  58.434 -55.246  1.00  0.00    -0.306 N 
HETATM    2  C   UNL     1     -42.648  59.363 -54.516  1.00  0.00     0.192 A 
HETATM    3  N   UNL     1     -43.333  60.480 -54.458  1.00  0.00    -0.123 NA
HETATM    4  N   UNL     1     -44.520  60.279 -55.108  1.00  0.00    -0.132 NA
HETATM    5  C   UNL     1     -44.559  59.030 -55.528  1.00  0.00     0.157 A 
ENDROOT
BRANCH   2   6
HETATM    6  S   UNL     1     -41.141  59.047 -53.738  1.00  0.00    -0.081 SA
BRANCH   6   7
HETATM    7  C   UNL     1     -41.564  59.316 -51.994  1.00  0.00     0.185 C 
BRANCH   7   8
HETATM    8  C   UNL     1     -42.550  58.273 -51.496  1.00  0.00     0.227 C 
HETATM    9  N   UNL     1     -41.998  57.035 -51.245  1.00  0.00    -0.352 N 
HETATM   10  H   UNL     1     -41.080  56.806 -51.603  1.00  0.00     0.162 HD
HETATM   11  O   UNL     1     -43.743  58.491 -51.293  1.00  0.00    -0.273 OA
BRANCH   9  12
HETATM   12  C   UNL     1     -42.760  55.967 -50.610  1.00  0.00     0.225 C 
BRANCH  12  13
HETATM   13  C   UNL     1     -42.530  54.594 -51.254  1.00  0.00     0.239 C 
HETATM   14  N   UNL     1     -41.208  54.383 -51.601  1.00  0.00    -0.326 N 
HETATM   15  H   UNL     1     -40.558  55.118 -51.312  1.00  0.00     0.169 HD
HETATM   16  O   UNL     1     -43.466  53.822 -51.440  1.00  0.00    -0.271 OA
BRANCH  14  17
HETATM   17  C   UNL     1     -40.649  53.277 -52.262  1.00  0.00     0.035 A 
HETATM   18  C   UNL     1     -39.964  52.246 -51.614  1.00  0.00     0.032 A 
HETATM   19  C   UNL     1     -39.448  51.172 -52.346  1.00  0.00     0.044 A 
HETATM   20  C   UNL     1     -39.614  51.138 -53.724  1.00  0.00     0.116 A 
HETATM   21  F   UNL     1     -39.109  50.116 -54.427  1.00  0.00    -0.206 F 
HETATM   22  C   UNL     1     -40.295  52.151 -54.386  1.00  0.00     0.044 A 
HETATM   23  C   UNL     1     -40.817  53.218 -53.654  1.00  0.00     0.032 A 
ENDBRANCH  14  17
ENDBRANCH  12  13
ENDBRANCH   9  12
ENDBRANCH   7   8
ENDBRANCH   6   7
ENDBRANCH   2   6
BRANCH   1  24
HETATM   24  C   UNL     1     -42.862  57.149 -55.731  1.00  0.00     0.171 C 
BRANCH  24  25
HETATM   25  C   UNL     1     -42.686  57.120 -57.227  1.00  0.00    -0.040 A 
HETATM   26  C   UNL     1     -42.041  58.175 -57.892  1.00  0.00     0.009 A 
HETATM   27  C   UNL     1     -41.835  58.125 -59.272  1.00  0.00     0.001 A 
HETATM   28  C   UNL     1     -42.256  57.014 -60.000  1.00  0.00     0.000 A 
HETATM   29  C   UNL     1     -42.882  55.954 -59.352  1.00  0.00     0.001 A 
HETATM   30  C   UNL     1     -43.097  56.006 -57.975  1.00  0.00     0.009 A 
ENDBRANCH  24  25
ENDBRANCH   1  24
BRANCH   5  31
HETATM   31  C   UNL     1     -45.729  58.359 -56.160  1.00  0.00     0.315 C 
BRANCH  31  32
HETATM   32  N   UNL     1     -45.669  58.264 -57.683  1.00  0.00    -0.064 N 
HETATM   33  H   UNL     1     -44.854  57.668 -57.889  1.00  0.00     0.280 HD
HETATM   34  C   UNL     1     -46.913  57.607 -58.232  1.00  0.00     0.235 C 
HETATM   35  C   UNL     1     -46.780  57.396 -59.732  1.00  0.00     0.028 C 
HETATM   36  C   UNL     1     -46.461  58.694 -60.462  1.00  0.00     0.003 C 
HETATM   37  C   UNL     1     -45.237  59.371 -59.858  1.00  0.00     0.028 C 
HETATM   38  C   UNL     1     -45.399  59.594 -58.358  1.00  0.00     0.235 C 
ENDBRANCH  31  32
ENDBRANCH   5  31
TORSDOF 10
ENDMDL
MODEL 8
REMARK VINA RESULT:      -6.9      4.410      8.354
REMARK  10 active torsions:
REMARK  status: ('A' for Active; 'I' for Inactive)
REMARK    1  A    between atoms: C_4  and  C_5 
REMARK    2  A    between atoms: C_5  and  N_6 
REMARK    3  A    between atoms: C_7  and  S_8 
REMARK    4  A    between atoms: S_8  and  C_9 
REMARK    5  A    between atoms: C_9  and  C_10 
REMARK       I    between atoms: C_10  and  N_11 
REMARK    6  A    between atoms: N_11  and  C_12 
REMARK    7  A    between atoms: C_12  and  C_13 
REMARK       I    between atoms: C_13  and  N_14 
REMARK    8  A    between atoms: N_14  and  C_15 
REMARK    9  A    between atoms: C_26  and  C_27 
REMARK   10  A    between atoms: C_27  and  N_28 
ROOT
HETATM    1  N   UNL     1     -42.346  55.916 -53.682  1.00  0.00    -0.306 N 
HETATM    2  C   UNL     1     -43.030  56.389 -52.592  1.00  0.00     0.192 A 
HETATM    3  N   UNL     1     -44.246  56.727 -52.949  1.00  0.00    -0.123 NA
HETATM    4  N   UNL     1     -44.394  56.429 -54.275  1.00  0.00    -0.132 NA
HETATM    5  C   UNL     1     -43.276  55.880 -54.706  1.00  0.00     0.157 A 
ENDROOT
BRANCH   2   6
HETATM    6  S   UNL     1     -42.382  56.438 -50.995  1.00  0.00    -0.081 SA
BRANCH   6   7
HETATM    7  C   UNL     1     -41.580  58.065 -50.973  1.00  0.00     0.185 C 
BRANCH   7   8
HETATM    8  C   UNL     1     -42.471  59.131 -51.589  1.00  0.00     0.227 C 
HETATM    9  N   UNL     1     -43.688  59.294 -50.963  1.00  0.00    -0.352 N 
HETATM   10  H   UNL     1     -44.026  58.591 -50.319  1.00  0.00     0.162 HD
HETATM   11  O   UNL     1     -42.150  59.829 -52.549  1.00  0.00    -0.273 OA
BRANCH   9  12
HETATM   12  C   UNL     1     -44.596  60.377 -51.317  1.00  0.00     0.225 C 
BRANCH  12  13
HETATM   13  C   UNL     1     -45.270  61.024 -50.100  1.00  0.00     0.239 C 
HETATM   14  N   UNL     1     -44.394  61.216 -49.046  1.00  0.00    -0.326 N 
HETATM   15  H   UNL     1     -43.417  60.985 -49.242  1.00  0.00     0.169 HD
HETATM   16  O   UNL     1     -46.468  61.291 -50.112  1.00  0.00    -0.271 OA
BRANCH  14  17
HETATM   17  C   UNL     1     -44.675  61.718 -47.764  1.00  0.00     0.035 A 
HETATM   18  C   UNL     1     -44.761  60.923 -46.618  1.00  0.00     0.032 A 
HETATM   19  C   UNL     1     -45.032  61.504 -45.376  1.00  0.00     0.044 A 
HETATM   20  C   UNL     1     -45.223  62.876 -45.286  1.00  0.00     0.116 A 
HETATM   21  F   UNL     1     -45.496  63.431 -44.098  1.00  0.00    -0.206 F 
HETATM   22  C   UNL     1     -45.138  63.683 -46.413  1.00  0.00     0.044 A 
HETATM   23  C   UNL     1     -44.859  63.104 -47.651  1.00  0.00     0.032 A 
ENDBRANCH  14  17
ENDBRANCH  12  13
ENDBRANCH   9  12
ENDBRANCH   7   8
ENDBRANCH   6   7
ENDBRANCH   2   6
BRANCH   1  24
HETATM   24  C   UNL     1     -40.922  55.634 -53.779  1.00  0.00     0.171 C 
BRANCH  24  25
HETATM   25  C   UNL     1     -40.599  54.181 -53.543  1.00  0.00    -0.040 A 
HETATM   26  C   UNL     1     -40.378  53.312 -54.624  1.00  0.00     0.009 A 
HETATM   27  C   UNL     1     -40.031  51.978 -54.403  1.00  0.00     0.001 A 
HETATM   28  C   UNL     1     -39.886  51.500 -53.102  1.00  0.00     0.000 A 
HETATM   29  C   UNL     1     -40.087  52.354 -52.022  1.00  0.00     0.001 A 
HETATM   30  C   UNL     1     -40.442  53.685 -52.240  1.00  0.00     0.009 A 
ENDBRANCH  24  25
ENDBRANCH   1  24
BRANCH   5  31
HETATM   31  C   UNL     1     -43.060  55.281 -56.053  1.00  0.00     0.315 C 
BRANCH  31  32
HETATM   32  N   UNL     1     -43.416  56.193 -57.224  1.00  0.00    -0.064 N 
HETATM   33  H   UNL     1     -44.388  56.489 -57.058  1.00  0.00     0.280 HD
HETATM   34  C   UNL     1     -42.526  57.413 -57.248  1.00  0.00     0.235 C 
HETATM   35  C   UNL     1     -42.978  58.377 -58.334  1.00  0.00     0.028 C 
HETATM   36  C   UNL     1     -43.044  57.703 -59.698  1.00  0.00     0.003 C 
HETATM   37  C   UNL     1     -43.900  56.444 -59.643  1.00  0.00     0.028 C 
HETATM   38  C   UNL     1     -43.416  55.482 -58.563  1.00  0.00     0.235 C 
ENDBRANCH  31  32
ENDBRANCH   5  31
TORSDOF 10
ENDMDL
MODEL 9
REMARK VINA RESULT:      -6.9      3.527      6.956
REMARK  10 active torsions:
REMARK  status: ('A' for Active; 'I' for Inactive)
REMARK    1  A    between atoms: C_4  and  C_5 
REMARK    2  A    between atoms: C_5  and  N_6 
REMARK    3  A    between atoms: C_7  and  S_8 
REMARK    4  A    between atoms: S_8  and  C_9 
REMARK    5  A    between atoms: C_9  and  C_10 
REMARK       I    between atoms: C_10  and  N_11 
REMARK    6  A    between atoms: N_11  and  C_12 
REMARK    7  A    between atoms: C_12  and  C_13 
REMARK       I    between atoms: C_13  and  N_14 
REMARK    8  A    between atoms: N_14  and  C_15 
REMARK    9  A    between atoms: C_26  and  C_27 
REMARK   10  A    between atoms: C_27  and  N_28 
ROOT
HETATM    1  N   UNL     1     -42.264  56.049 -54.106  1.00  0.00    -0.306 N 
HETATM    2  C   UNL     1     -42.974  56.691 -53.124  1.00  0.00     0.192 A 
HETATM    3  N   UNL     1     -44.168  56.996 -53.573  1.00  0.00    -0.123 NA
HETATM    4  N   UNL     1     -44.276  56.507 -54.846  1.00  0.00    -0.132 NA
HETATM    5  C   UNL     1     -43.157  55.880 -55.147  1.00  0.00     0.157 A 
ENDROOT
BRANCH   2   6
HETATM    6  S   UNL     1     -42.381  56.963 -51.527  1.00  0.00    -0.081 SA
BRANCH   6   7
HETATM    7  C   UNL     1     -43.045  58.612 -51.165  1.00  0.00     0.185 C 
BRANCH   7   8
HETATM    8  C   UNL     1     -42.400  59.674 -52.039  1.00  0.00     0.227 C 
HETATM    9  N   UNL     1     -43.223  60.190 -53.017  1.00  0.00    -0.352 N 
HETATM   10  H   UNL     1     -44.081  59.713 -53.263  1.00  0.00     0.162 HD
HETATM   11  O   UNL     1     -41.250  60.084 -51.894  1.00  0.00    -0.273 OA
BRANCH   9  12
HETATM   12  C   UNL     1     -42.825  61.327 -53.837  1.00  0.00     0.225 C 
BRANCH  12  13
HETATM   13  C   UNL     1     -42.309  60.922 -55.224  1.00  0.00     0.239 C 
HETATM   14  N   UNL     1     -42.694  61.809 -56.214  1.00  0.00    -0.326 N 
HETATM   15  H   UNL     1     -43.189  62.643 -55.887  1.00  0.00     0.169 HD
HETATM   16  O   UNL     1     -41.655  59.895 -55.377  1.00  0.00    -0.271 OA
BRANCH  14  17
HETATM   17  C   UNL     1     -42.461  61.722 -57.597  1.00  0.00     0.035 A 
HETATM   18  C   UNL     1     -41.195  61.821 -58.180  1.00  0.00     0.032 A 
HETATM   19  C   UNL     1     -41.046  61.710 -59.566  1.00  0.00     0.044 A 
HETATM   20  C   UNL     1     -42.166  61.508 -60.362  1.00  0.00     0.116 A 
HETATM   21  F   UNL     1     -42.025  61.416 -61.691  1.00  0.00    -0.206 F 
HETATM   22  C   UNL     1     -43.431  61.404 -59.801  1.00  0.00     0.044 A 
HETATM   23  C   UNL     1     -43.578  61.506 -58.417  1.00  0.00     0.032 A 
ENDBRANCH  14  17
ENDBRANCH  12  13
ENDBRANCH   9  12
ENDBRANCH   7   8
ENDBRANCH   6   7
ENDBRANCH   2   6
BRANCH   1  24
HETATM   24  C   UNL     1     -40.844  55.729 -54.105  1.00  0.00     0.171 C 
BRANCH  24  25
HETATM   25  C   UNL     1     -40.571  54.297 -53.721  1.00  0.00    -0.040 A 
HETATM   26  C   UNL     1     -40.295  53.333 -54.704  1.00  0.00     0.009 A 
HETATM   27  C   UNL     1     -39.994  52.018 -54.344  1.00  0.00     0.001 A 
HETATM   28  C   UNL     1     -39.950  51.655 -52.999  1.00  0.00     0.000 A 
HETATM   29  C   UNL     1     -40.205  52.604 -52.014  1.00  0.00     0.001 A 
HETATM   30  C   UNL     1     -40.515  53.916 -52.372  1.00  0.00     0.009 A 
ENDBRANCH  24  25
ENDBRANCH   1  24
BRANCH   5  31
HETATM   31  C   UNL     1     -42.909  55.085 -56.383  1.00  0.00     0.315 C 
BRANCH  31  32
HETATM   32  N   UNL     1     -42.514  55.907 -57.607  1.00  0.00    -0.064 N 
HETATM   33  H   UNL     1     -41.550  55.623 -57.830  1.00  0.00     0.280 HD
HETATM   34  C   UNL     1     -43.408  55.591 -58.781  1.00  0.00     0.235 C 
HETATM   35  C   UNL     1     -42.919  56.313 -60.028  1.00  0.00     0.028 C 
HETATM   36  C   UNL     1     -42.799  57.815 -59.801  1.00  0.00     0.003 C 
HETATM   37  C   UNL     1     -41.940  58.115 -58.579  1.00  0.00     0.028 C 
HETATM   38  C   UNL     1     -42.460  57.398 -57.337  1.00  0.00     0.235 C 
ENDBRANCH  31  32
ENDBRANCH   5  31
TORSDOF 10
ENDMDL
MODEL 10
REMARK VINA RESULT:      -6.9      3.043      4.859
REMARK  10 active torsions:
REMARK  status: ('A' for Active; 'I' for Inactive)
REMARK    1  A    between atoms: C_4  and  C_5 
REMARK    2  A    between atoms: C_5  and  N_6 
REMARK    3  A    between atoms: C_7  and  S_8 
REMARK    4  A    between atoms: S_8  and  C_9 
REMARK    5  A    between atoms: C_9  and  C_10 
REMARK       I    between atoms: C_10  and  N_11 
REMARK    6  A    between atoms: N_11  and  C_12 
REMARK    7  A    between atoms: C_12  and  C_13 
REMARK       I    between atoms: C_13  and  N_14 
REMARK    8  A    between atoms: N_14  and  C_15 
REMARK    9  A    between atoms: C_26  and  C_27 
REMARK   10  A    between atoms: C_27  and  N_28 
ROOT
HETATM    1  N   UNL     1     -43.575  59.183 -52.360  1.00  0.00    -0.306 N 
HETATM    2  C   UNL     1     -42.674  59.842 -53.156  1.00  0.00     0.192 A 
HETATM    3  N   UNL     1     -42.788  61.136 -52.972  1.00  0.00    -0.123 NA
HETATM    4  N   UNL     1     -43.734  61.341 -52.005  1.00  0.00    -0.132 NA
HETATM    5  C   UNL     1     -44.164  60.167 -51.588  1.00  0.00     0.157 A 
ENDROOT
BRANCH   2   6
HETATM    6  S   UNL     1     -41.526  59.052 -54.172  1.00  0.00    -0.081 SA
BRANCH   6   7
HETATM    7  C   UNL     1     -42.402  59.017 -55.760  1.00  0.00     0.185 C 
BRANCH   7   8
HETATM    8  C   UNL     1     -43.045  57.663 -56.009  1.00  0.00     0.227 C 
HETATM    9  N   UNL     1     -42.158  56.658 -56.332  1.00  0.00    -0.352 N 
HETATM   10  H   UNL     1     -41.213  56.884 -56.611  1.00  0.00     0.162 HD
HETATM   11  O   UNL     1     -44.250  57.441 -55.910  1.00  0.00    -0.273 OA
BRANCH   9  12
HETATM   12  C   UNL     1     -42.579  55.267 -56.442  1.00  0.00     0.225 C 
BRANCH  12  13
HETATM   13  C   UNL     1     -42.391  54.472 -55.144  1.00  0.00     0.239 C 
HETATM   14  N   UNL     1     -41.117  53.945 -55.023  1.00  0.00    -0.326 N 
HETATM   15  H   UNL     1     -40.459  54.218 -55.757  1.00  0.00     0.169 HD
HETATM   16  O   UNL     1     -43.318  54.332 -54.352  1.00  0.00    -0.271 OA
BRANCH  14  17
HETATM   17  C   UNL     1     -40.613  53.116 -54.006  1.00  0.00     0.035 A 
HETATM   18  C   UNL     1     -40.481  53.512 -52.673  1.00  0.00     0.032 A 
HETATM   19  C   UNL     1     -39.982  52.621 -51.719  1.00  0.00     0.044 A 
HETATM   20  C   UNL     1     -39.610  51.340 -52.104  1.00  0.00     0.116 A 
HETATM   21  F   UNL     1     -39.119  50.490 -51.192  1.00  0.00    -0.206 F 
HETATM   22  C   UNL     1     -39.738  50.926 -53.423  1.00  0.00     0.044 A 
HETATM   23  C   UNL     1     -40.244  51.813 -54.374  1.00  0.00     0.032 A 
ENDBRANCH  14  17
ENDBRANCH  12  13
ENDBRANCH   9  12
ENDBRANCH   7   8
ENDBRANCH   6   7
ENDBRANCH   2   6
BRANCH   1  24
HETATM   24  C   UNL     1     -43.928  57.772 -52.405  1.00  0.00     0.171 C 
BRANCH  24  25
HETATM   25  C   UNL     1     -43.131  56.941 -51.433  1.00  0.00    -0.040 A 
HETATM   26  C   UNL     1     -43.599  55.686 -51.013  1.00  0.00     0.009 A 
HETATM   27  C   UNL     1     -42.837  54.896 -50.150  1.00  0.00     0.001 A 
HETATM   28  C   UNL     1     -41.593  55.343 -49.710  1.00  0.00     0.000 A 
HETATM   29  C   UNL     1     -41.109  56.577 -50.131  1.00  0.00     0.001 A 
HETATM   30  C   UNL     1     -41.873  57.373 -50.986  1.00  0.00     0.009 A 
ENDBRANCH  24  25
ENDBRANCH   1  24
BRANCH   5  31
HETATM   31  C   UNL     1     -45.094  59.934 -50.446  1.00  0.00     0.315 C 
BRANCH  31  32
HETATM   32  N   UNL     1     -45.287  61.134 -49.522  1.00  0.00    -0.064 N 
HETATM   33  H   UNL     1     -44.404  61.661 -49.568  1.00  0.00     0.280 HD
HETATM   34  C   UNL     1     -46.414  62.013 -50.008  1.00  0.00     0.235 C 
HETATM   35  C   UNL     1     -46.506  63.272 -49.159  1.00  0.00     0.028 C 
HETATM   36  C   UNL     1     -46.645  62.947 -47.677  1.00  0.00     0.003 C 
HETATM   37  C   UNL     1     -45.532  62.013 -47.217  1.00  0.00     0.028 C 
HETATM   38  C   UNL     1     -45.471  60.749 -48.067  1.00  0.00     0.235 C 
ENDBRANCH  31  32
ENDBRANCH   5  31
TORSDOF 10
ENDMDL
