MODEL 1
REMARK VINA RESULT:      -8.1      0.000      0.000
REMARK  5 active torsions:
REMARK  status: ('A' for Active; 'I' for Inactive)
REMARK    1  A    between atoms: C_5  and  S_6 
REMARK    2  A    between atoms: S_6  and  C_7 
REMARK    3  A    between atoms: C_7  and  C_8 
REMARK       I    between atoms: C_8  and  N_9 
REMARK    4  A    between atoms: N_9  and  C_10 
REMARK    5  A    between atoms: C_12  and  C_13 
ROOT
HETATM    1  C   UNL     1     -42.691  55.884 -52.614  1.00  0.00     0.231 C 
HETATM    2  N   UNL     1     -43.615  55.621 -53.609  1.00  0.00    -0.327 N 
HETATM    3  O   UNL     1     -41.989  56.891 -52.534  1.00  0.00    -0.272 OA
HETATM    4  H   UNL     1     -44.060  54.709 -53.556  1.00  0.00     0.169 HD
ENDROOT
BRANCH   2   5
HETATM    5  C   UNL     1     -43.929  56.413 -54.733  1.00  0.00     0.035 A 
HETATM    6  C   UNL     1     -43.252  56.339 -55.954  1.00  0.00     0.042 A 
HETATM    7  C   UNL     1     -43.618  57.147 -57.044  1.00  0.00    -0.021 A 
HETATM    8  C   UNL     1     -44.681  58.045 -56.886  1.00  0.00     0.012 A 
HETATM    9  C   UNL     1     -45.360  58.134 -55.669  1.00  0.00     0.003 A 
HETATM   10  C   UNL     1     -44.984  57.321 -54.598  1.00  0.00     0.029 A 
BRANCH   7  11
HETATM   11  C   UNL     1     -42.901  57.032 -58.308  1.00  0.00     0.010 A 
HETATM   12  C   UNL     1     -42.956  56.034 -59.314  1.00  0.00     0.152 A 
HETATM   13  N   UNL     1     -42.131  56.280 -60.336  1.00  0.00    -0.187 NA
HETATM   14  N   UNL     1     -41.537  57.430 -59.988  1.00  0.00    -0.289 N 
HETATM   15  H   UNL     1     -40.848  57.823 -60.619  1.00  0.00     0.188 HD
HETATM   16  C   UNL     1     -41.960  57.921 -58.786  1.00  0.00     0.123 A 
ENDBRANCH   7  11
ENDBRANCH   2   5
BRANCH   1  17
HETATM   17  C   UNL     1     -42.638  54.848 -51.498  1.00  0.00     0.182 C 
BRANCH  17  18
HETATM   18  S   UNL     1     -40.949  54.544 -50.875  1.00  0.00    -0.121 SA
BRANCH  18  19
HETATM   19  C   UNL     1     -40.506  53.185 -51.942  1.00  0.00     0.001 A 
HETATM   20  C   UNL     1     -40.787  53.252 -53.308  1.00  0.00     0.019 A 
HETATM   21  C   UNL     1     -40.460  52.183 -54.148  1.00  0.00     0.008 A 
HETATM   22  C   UNL     1     -39.833  51.042 -53.635  1.00  0.00    -0.062 A 
HETATM   23  C   UNL     1     -39.504  49.877 -54.521  1.00  0.00     0.048 C 
HETATM   24  C   UNL     1     -39.543  50.984 -52.267  1.00  0.00     0.008 A 
HETATM   25  C   UNL     1     -39.870  52.052 -51.427  1.00  0.00     0.019 A 
ENDBRANCH  18  19
ENDBRANCH  17  18
ENDBRANCH   1  17
TORSDOF 5
ENDMDL
MODEL 2
REMARK VINA RESULT:      -7.9      1.834      2.302
REMARK  5 active torsions:
REMARK  status: ('A' for Active; 'I' for Inactive)
REMARK    1  A    between atoms: C_5  and  S_6 
REMARK    2  A    between atoms: S_6  and  C_7 
REMARK    3  A    between atoms: C_7  and  C_8 
REMARK       I    between atoms: C_8  and  N_9 
REMARK    4  A    between atoms: N_9  and  C_10 
REMARK    5  A    between atoms: C_12  and  C_13 
ROOT
HETATM    1  C   UNL     1     -43.383  55.988 -53.787  1.00  0.00     0.231 C 
HETATM    2  N   UNL     1     -42.483  55.980 -54.836  1.00  0.00    -0.327 N 
HETATM    3  O   UNL     1     -44.519  56.460 -53.820  1.00  0.00    -0.272 OA
HETATM    4  H   UNL     1     -41.563  55.608 -54.614  1.00  0.00     0.169 HD
ENDROOT
BRANCH   2   5
HETATM    5  C   UNL     1     -42.652  56.515 -56.130  1.00  0.00     0.035 A 
HETATM    6  C   UNL     1     -43.244  55.822 -57.190  1.00  0.00     0.042 A 
HETATM    7  C   UNL     1     -43.395  56.413 -58.457  1.00  0.00    -0.021 A 
HETATM    8  C   UNL     1     -42.932  57.720 -58.646  1.00  0.00     0.012 A 
HETATM    9  C   UNL     1     -42.332  58.420 -57.598  1.00  0.00     0.003 A 
HETATM   10  C   UNL     1     -42.192  57.819 -56.347  1.00  0.00     0.029 A 
BRANCH   7  11
HETATM   11  C   UNL     1     -44.033  55.667 -59.535  1.00  0.00     0.010 A 
HETATM   12  C   UNL     1     -44.526  56.099 -60.792  1.00  0.00     0.152 A 
HETATM   13  N   UNL     1     -45.057  55.107 -61.512  1.00  0.00    -0.187 NA
HETATM   14  N   UNL     1     -44.916  54.036 -60.719  1.00  0.00    -0.289 N 
HETATM   15  H   UNL     1     -45.258  53.142 -61.055  1.00  0.00     0.188 HD
HETATM   16  C   UNL     1     -44.311  54.315 -59.527  1.00  0.00     0.123 A 
ENDBRANCH   7  11
ENDBRANCH   2   5
BRANCH   1  17
HETATM   17  C   UNL     1     -42.913  55.264 -52.532  1.00  0.00     0.182 C 
BRANCH  17  18
HETATM   18  S   UNL     1     -41.120  55.432 -52.230  1.00  0.00    -0.121 SA
BRANCH  18  19
HETATM   19  C   UNL     1     -40.608  53.793 -52.711  1.00  0.00     0.001 A 
HETATM   20  C   UNL     1     -40.831  53.348 -54.015  1.00  0.00     0.019 A 
HETATM   21  C   UNL     1     -40.450  52.057 -54.394  1.00  0.00     0.008 A 
HETATM   22  C   UNL     1     -39.827  51.202 -53.479  1.00  0.00    -0.062 A 
HETATM   23  C   UNL     1     -39.440  49.805 -53.865  1.00  0.00     0.048 C 
HETATM   24  C   UNL     1     -39.596  51.656 -52.175  1.00  0.00     0.008 A 
HETATM   25  C   UNL     1     -39.977  52.945 -51.795  1.00  0.00     0.019 A 
ENDBRANCH  18  19
ENDBRANCH  17  18
ENDBRANCH   1  17
TORSDOF 5
ENDMDL
MODEL 3
REMARK VINA RESULT:      -7.8      3.105      7.686
REMARK  5 active torsions:
REMARK  status: ('A' for Active; 'I' for Inactive)
REMARK    1  A    between atoms: C_5  and  S_6 
REMARK    2  A    between atoms: S_6  and  C_7 
REMARK    3  A    between atoms: C_7  and  C_8 
REMARK       I    between atoms: C_8  and  N_9 
REMARK    4  A    between atoms: N_9  and  C_10 
REMARK    5  A    between atoms: C_12  and  C_13 
ROOT
HETATM    1  C   UNL     1     -42.554  54.938 -55.507  1.00  0.00     0.231 C 
HETATM    2  N   UNL     1     -41.281  54.859 -54.972  1.00  0.00    -0.327 N 
HETATM    3  O   UNL     1     -43.525  54.272 -55.148  1.00  0.00    -0.272 OA
HETATM    4  H   UNL     1     -40.583  55.435 -55.433  1.00  0.00     0.169 HD
ENDROOT
BRANCH   2   5
HETATM    5  C   UNL     1     -40.822  54.009 -53.945  1.00  0.00     0.035 A 
HETATM    6  C   UNL     1     -40.921  54.307 -52.582  1.00  0.00     0.042 A 
HETATM    7  C   UNL     1     -40.454  53.414 -51.602  1.00  0.00    -0.021 A 
HETATM    8  C   UNL     1     -39.873  52.209 -52.015  1.00  0.00     0.012 A 
HETATM    9  C   UNL     1     -39.760  51.904 -53.373  1.00  0.00     0.003 A 
HETATM   10  C   UNL     1     -40.232  52.801 -54.332  1.00  0.00     0.029 A 
BRANCH   7  11
HETATM   11  C   UNL     1     -40.589  53.749 -50.190  1.00  0.00     0.010 A 
HETATM   12  C   UNL     1     -40.952  54.966 -49.559  1.00  0.00     0.152 A 
HETATM   13  N   UNL     1     -40.957  54.879 -48.226  1.00  0.00    -0.187 NA
HETATM   14  N   UNL     1     -40.590  53.611 -47.994  1.00  0.00    -0.289 N 
HETATM   15  H   UNL     1     -40.516  53.302 -47.030  1.00  0.00     0.188 HD
HETATM   16  C   UNL     1     -40.358  52.893 -49.132  1.00  0.00     0.123 A 
ENDBRANCH   7  11
ENDBRANCH   2   5
BRANCH   1  17
HETATM   17  C   UNL     1     -42.739  56.013 -56.569  1.00  0.00     0.182 C 
BRANCH  17  18
HETATM   18  S   UNL     1     -43.688  57.457 -55.979  1.00  0.00    -0.121 SA
BRANCH  18  19
HETATM   19  C   UNL     1     -42.826  57.740 -54.443  1.00  0.00     0.001 A 
HETATM   20  C   UNL     1     -43.387  57.310 -53.240  1.00  0.00     0.019 A 
HETATM   21  C   UNL     1     -42.726  57.544 -52.030  1.00  0.00     0.008 A 
HETATM   22  C   UNL     1     -41.489  58.197 -52.011  1.00  0.00    -0.062 A 
HETATM   23  C   UNL     1     -40.784  58.480 -50.718  1.00  0.00     0.048 C 
HETATM   24  C   UNL     1     -40.924  58.616 -53.221  1.00  0.00     0.008 A 
HETATM   25  C   UNL     1     -41.584  58.383 -54.430  1.00  0.00     0.019 A 
ENDBRANCH  18  19
ENDBRANCH  17  18
ENDBRANCH   1  17
TORSDOF 5
ENDMDL
MODEL 4
REMARK VINA RESULT:      -7.8      3.829      7.414
REMARK  5 active torsions:
REMARK  status: ('A' for Active; 'I' for Inactive)
REMARK    1  A    between atoms: C_5  and  S_6 
REMARK    2  A    between atoms: S_6  and  C_7 
REMARK    3  A    between atoms: C_7  and  C_8 
REMARK       I    between atoms: C_8  and  N_9 
REMARK    4  A    between atoms: N_9  and  C_10 
REMARK    5  A    between atoms: C_12  and  C_13 
ROOT
HETATM    1  C   UNL     1     -43.349  56.141 -52.885  1.00  0.00     0.231 C 
HETATM    2  N   UNL     1     -42.094  55.667 -52.549  1.00  0.00    -0.327 N 
HETATM    3  O   UNL     1     -44.051  55.723 -53.805  1.00  0.00    -0.272 OA
HETATM    4  H   UNL     1     -41.626  56.174 -51.802  1.00  0.00     0.169 HD
ENDROOT
BRANCH   2   5
HETATM    5  C   UNL     1     -41.353  54.647 -53.180  1.00  0.00     0.035 A 
HETATM    6  C   UNL     1     -40.987  53.449 -52.558  1.00  0.00     0.042 A 
HETATM    7  C   UNL     1     -40.256  52.463 -53.243  1.00  0.00    -0.021 A 
HETATM    8  C   UNL     1     -39.887  52.703 -54.572  1.00  0.00     0.012 A 
HETATM    9  C   UNL     1     -40.238  53.899 -55.201  1.00  0.00     0.003 A 
HETATM   10  C   UNL     1     -40.967  54.866 -54.507  1.00  0.00     0.029 A 
BRANCH   7  11
HETATM   11  C   UNL     1     -39.907  51.218 -52.569  1.00  0.00     0.010 A 
HETATM   12  C   UNL     1     -39.658  50.946 -51.200  1.00  0.00     0.152 A 
HETATM   13  N   UNL     1     -39.355  49.665 -50.971  1.00  0.00    -0.187 NA
HETATM   14  N   UNL     1     -39.401  49.111 -52.190  1.00  0.00    -0.289 N 
HETATM   15  H   UNL     1     -39.197  48.120 -52.274  1.00  0.00     0.188 HD
HETATM   16  C   UNL     1     -39.725  49.994 -53.180  1.00  0.00     0.123 A 
ENDBRANCH   7  11
ENDBRANCH   2   5
BRANCH   1  17
HETATM   17  C   UNL     1     -43.900  57.215 -51.956  1.00  0.00     0.182 C 
BRANCH  17  18
HETATM   18  S   UNL     1     -43.539  58.914 -52.520  1.00  0.00    -0.121 SA
BRANCH  18  19
HETATM   19  C   UNL     1     -41.885  59.070 -51.871  1.00  0.00     0.001 A 
HETATM   20  C   UNL     1     -41.692  59.379 -50.523  1.00  0.00     0.019 A 
HETATM   21  C   UNL     1     -40.399  59.521 -50.011  1.00  0.00     0.008 A 
HETATM   22  C   UNL     1     -39.283  59.340 -50.836  1.00  0.00    -0.062 A 
HETATM   23  C   UNL     1     -37.892  59.519 -50.305  1.00  0.00     0.048 C 
HETATM   24  C   UNL     1     -39.481  59.019 -52.184  1.00  0.00     0.008 A 
HETATM   25  C   UNL     1     -40.773  58.877 -52.696  1.00  0.00     0.019 A 
ENDBRANCH  18  19
ENDBRANCH  17  18
ENDBRANCH   1  17
TORSDOF 5
ENDMDL
MODEL 5
REMARK VINA RESULT:      -7.8      3.537      6.675
REMARK  5 active torsions:
REMARK  status: ('A' for Active; 'I' for Inactive)
REMARK    1  A    between atoms: C_5  and  S_6 
REMARK    2  A    between atoms: S_6  and  C_7 
REMARK    3  A    between atoms: C_7  and  C_8 
REMARK       I    between atoms: C_8  and  N_9 
REMARK    4  A    between atoms: N_9  and  C_10 
REMARK    5  A    between atoms: C_12  and  C_13 
ROOT
HETATM    1  C   UNL     1     -41.469  58.139 -50.863  1.00  0.00     0.231 C 
HETATM    2  N   UNL     1     -42.094  56.939 -50.576  1.00  0.00    -0.327 N 
HETATM    3  O   UNL     1     -40.258  58.302 -50.999  1.00  0.00    -0.272 OA
HETATM    4  H   UNL     1     -43.098  56.998 -50.432  1.00  0.00     0.169 HD
ENDROOT
BRANCH   2   5
HETATM    5  C   UNL     1     -41.498  55.679 -50.359  1.00  0.00     0.035 A 
HETATM    6  C   UNL     1     -41.169  54.785 -51.382  1.00  0.00     0.042 A 
HETATM    7  C   UNL     1     -40.566  53.546 -51.105  1.00  0.00    -0.021 A 
HETATM    8  C   UNL     1     -40.301  53.212 -49.771  1.00  0.00     0.012 A 
HETATM    9  C   UNL     1     -40.633  54.093 -48.741  1.00  0.00     0.003 A 
HETATM   10  C   UNL     1     -41.229  55.320 -49.034  1.00  0.00     0.029 A 
BRANCH   7  11
HETATM   11  C   UNL     1     -40.221  52.645 -52.198  1.00  0.00     0.010 A 
HETATM   12  C   UNL     1     -40.562  52.687 -53.574  1.00  0.00     0.152 A 
HETATM   13  N   UNL     1     -40.055  51.663 -54.267  1.00  0.00    -0.187 NA
HETATM   14  N   UNL     1     -39.394  50.955 -53.340  1.00  0.00    -0.289 N 
HETATM   15  H   UNL     1     -38.919  50.108 -53.633  1.00  0.00     0.188 HD
HETATM   16  C   UNL     1     -39.462  51.498 -52.088  1.00  0.00     0.123 A 
ENDBRANCH   7  11
ENDBRANCH   2   5
BRANCH   1  17
HETATM   17  C   UNL     1     -42.411  59.311 -51.105  1.00  0.00     0.182 C 
BRANCH  17  18
HETATM   18  S   UNL     1     -42.517  59.803 -52.860  1.00  0.00    -0.121 SA
BRANCH  18  19
HETATM   19  C   UNL     1     -42.712  58.185 -53.585  1.00  0.00     0.001 A 
HETATM   20  C   UNL     1     -41.617  57.549 -54.173  1.00  0.00     0.019 A 
HETATM   21  C   UNL     1     -41.766  56.288 -54.759  1.00  0.00     0.008 A 
HETATM   22  C   UNL     1     -43.007  55.642 -54.750  1.00  0.00    -0.062 A 
HETATM   23  C   UNL     1     -43.185  54.303 -55.402  1.00  0.00     0.048 C 
HETATM   24  C   UNL     1     -44.099  56.278 -54.150  1.00  0.00     0.008 A 
HETATM   25  C   UNL     1     -43.951  57.538 -53.564  1.00  0.00     0.019 A 
ENDBRANCH  18  19
ENDBRANCH  17  18
ENDBRANCH   1  17
TORSDOF 5
ENDMDL
MODEL 6
REMARK VINA RESULT:      -7.7      3.123      8.498
REMARK  5 active torsions:
REMARK  status: ('A' for Active; 'I' for Inactive)
REMARK    1  A    between atoms: C_5  and  S_6 
REMARK    2  A    between atoms: S_6  and  C_7 
REMARK    3  A    between atoms: C_7  and  C_8 
REMARK       I    between atoms: C_8  and  N_9 
REMARK    4  A    between atoms: N_9  and  C_10 
REMARK    5  A    between atoms: C_12  and  C_13 
ROOT
HETATM    1  C   UNL     1     -42.319  55.724 -55.751  1.00  0.00     0.231 C 
HETATM    2  N   UNL     1     -41.061  55.317 -55.343  1.00  0.00    -0.327 N 
HETATM    3  O   UNL     1     -43.386  55.341 -55.274  1.00  0.00    -0.272 OA
HETATM    4  H   UNL     1     -40.289  55.684 -55.893  1.00  0.00     0.169 HD
ENDROOT
BRANCH   2   5
HETATM    5  C   UNL     1     -40.734  54.385 -54.337  1.00  0.00     0.035 A 
HETATM    6  C   UNL     1     -40.861  54.637 -52.968  1.00  0.00     0.042 A 
HETATM    7  C   UNL     1     -40.528  53.664 -52.010  1.00  0.00    -0.021 A 
HETATM    8  C   UNL     1     -40.055  52.423 -52.452  1.00  0.00     0.012 A 
HETATM    9  C   UNL     1     -39.915  52.161 -53.816  1.00  0.00     0.003 A 
HETATM   10  C   UNL     1     -40.253  53.139 -54.753  1.00  0.00     0.029 A 
BRANCH   7  11
HETATM   11  C   UNL     1     -40.690  53.955 -50.591  1.00  0.00     0.010 A 
HETATM   12  C   UNL     1     -40.512  53.130 -49.452  1.00  0.00     0.152 A 
HETATM   13  N   UNL     1     -40.768  53.765 -48.304  1.00  0.00    -0.187 NA
HETATM   14  N   UNL     1     -41.120  54.996 -48.701  1.00  0.00    -0.289 N 
HETATM   15  H   UNL     1     -41.371  55.675 -47.990  1.00  0.00     0.188 HD
HETATM   16  C   UNL     1     -41.091  55.162 -50.056  1.00  0.00     0.123 A 
ENDBRANCH   7  11
ENDBRANCH   2   5
BRANCH   1  17
HETATM   17  C   UNL     1     -42.327  56.800 -56.828  1.00  0.00     0.182 C 
BRANCH  17  18
HETATM   18  S   UNL     1     -43.620  58.065 -56.577  1.00  0.00    -0.121 SA
BRANCH  18  19
HETATM   19  C   UNL     1     -44.727  57.587 -57.891  1.00  0.00     0.001 A 
HETATM   20  C   UNL     1     -44.291  56.707 -58.883  1.00  0.00     0.019 A 
HETATM   21  C   UNL     1     -45.147  56.341 -59.926  1.00  0.00     0.008 A 
HETATM   22  C   UNL     1     -46.453  56.839 -59.982  1.00  0.00    -0.062 A 
HETATM   23  C   UNL     1     -47.371  56.478 -61.112  1.00  0.00     0.048 C 
HETATM   24  C   UNL     1     -46.890  57.712 -58.979  1.00  0.00     0.008 A 
HETATM   25  C   UNL     1     -46.035  58.078 -57.936  1.00  0.00     0.019 A 
ENDBRANCH  18  19
ENDBRANCH  17  18
ENDBRANCH   1  17
TORSDOF 5
ENDMDL
MODEL 7
REMARK VINA RESULT:      -7.7      3.482      7.457
REMARK  5 active torsions:
REMARK  status: ('A' for Active; 'I' for Inactive)
REMARK    1  A    between atoms: C_5  and  S_6 
REMARK    2  A    between atoms: S_6  and  C_7 
REMARK    3  A    between atoms: C_7  and  C_8 
REMARK       I    between atoms: C_8  and  N_9 
REMARK    4  A    between atoms: N_9  and  C_10 
REMARK    5  A    between atoms: C_12  and  C_13 
ROOT
HETATM    1  C   UNL     1     -42.727  55.614 -54.832  1.00  0.00     0.231 C 
HETATM    2  N   UNL     1     -41.453  55.424 -54.330  1.00  0.00    -0.327 N 
HETATM    3  O   UNL     1     -43.754  55.093 -54.399  1.00  0.00    -0.272 OA
HETATM    4  H   UNL     1     -40.710  55.881 -54.851  1.00  0.00     0.169 HD
ENDROOT
BRANCH   2   5
HETATM    5  C   UNL     1     -41.056  54.598 -53.258  1.00  0.00     0.035 A 
HETATM    6  C   UNL     1     -40.666  53.263 -53.404  1.00  0.00     0.042 A 
HETATM    7  C   UNL     1     -40.270  52.491 -52.298  1.00  0.00    -0.021 A 
HETATM    8  C   UNL     1     -40.279  53.084 -51.029  1.00  0.00     0.012 A 
HETATM    9  C   UNL     1     -40.675  54.413 -50.869  1.00  0.00     0.003 A 
HETATM   10  C   UNL     1     -41.062  55.165 -51.979  1.00  0.00     0.029 A 
BRANCH   7  11
HETATM   11  C   UNL     1     -39.853  51.108 -52.489  1.00  0.00     0.010 A 
HETATM   12  C   UNL     1     -39.688  50.347 -53.674  1.00  0.00     0.152 A 
HETATM   13  N   UNL     1     -39.294  49.093 -53.437  1.00  0.00    -0.187 NA
HETATM   14  N   UNL     1     -39.212  49.039 -52.100  1.00  0.00    -0.289 N 
HETATM   15  H   UNL     1     -38.930  48.164 -51.673  1.00  0.00     0.188 HD
HETATM   16  C   UNL     1     -39.536  50.215 -51.486  1.00  0.00     0.123 A 
ENDBRANCH   7  11
ENDBRANCH   2   5
BRANCH   1  17
HETATM   17  C   UNL     1     -42.826  56.629 -55.964  1.00  0.00     0.182 C 
BRANCH  17  18
HETATM   18  S   UNL     1     -43.616  58.196 -55.462  1.00  0.00    -0.121 SA
BRANCH  18  19
HETATM   19  C   UNL     1     -42.701  58.494 -53.960  1.00  0.00     0.001 A 
HETATM   20  C   UNL     1     -43.331  58.357 -52.722  1.00  0.00     0.019 A 
HETATM   21  C   UNL     1     -42.626  58.606 -51.541  1.00  0.00     0.008 A 
HETATM   22  C   UNL     1     -41.278  58.979 -51.583  1.00  0.00    -0.062 A 
HETATM   23  C   UNL     1     -40.519  59.278 -50.324  1.00  0.00     0.048 C 
HETATM   24  C   UNL     1     -40.648  59.104 -52.826  1.00  0.00     0.008 A 
HETATM   25  C   UNL     1     -41.351  58.856 -54.007  1.00  0.00     0.019 A 
ENDBRANCH  18  19
ENDBRANCH  17  18
ENDBRANCH   1  17
TORSDOF 5
ENDMDL
MODEL 8
REMARK VINA RESULT:      -7.6      3.534      8.396
REMARK  5 active torsions:
REMARK  status: ('A' for Active; 'I' for Inactive)
REMARK    1  A    between atoms: C_5  and  S_6 
REMARK    2  A    between atoms: S_6  and  C_7 
REMARK    3  A    between atoms: C_7  and  C_8 
REMARK       I    between atoms: C_8  and  N_9 
REMARK    4  A    between atoms: N_9  and  C_10 
REMARK    5  A    between atoms: C_12  and  C_13 
ROOT
HETATM    1  C   UNL     1     -42.546  55.393 -55.892  1.00  0.00     0.231 C 
HETATM    2  N   UNL     1     -41.294  55.118 -55.374  1.00  0.00    -0.327 N 
HETATM    3  O   UNL     1     -43.619  55.142 -55.345  1.00  0.00    -0.272 OA
HETATM    4  H   UNL     1     -40.515  55.333 -55.990  1.00  0.00     0.169 HD
ENDROOT
BRANCH   2   5
HETATM    5  C   UNL     1     -40.978  54.488 -54.153  1.00  0.00     0.035 A 
HETATM    6  C   UNL     1     -40.595  53.147 -54.043  1.00  0.00     0.042 A 
HETATM    7  C   UNL     1     -40.282  52.575 -52.798  1.00  0.00    -0.021 A 
HETATM    8  C   UNL     1     -40.367  53.376 -51.652  1.00  0.00     0.012 A 
HETATM    9  C   UNL     1     -40.756  54.713 -51.747  1.00  0.00     0.003 A 
HETATM   10  C   UNL     1     -41.061  55.265 -52.993  1.00  0.00     0.029 A 
BRANCH   7  11
HETATM   11  C   UNL     1     -39.870  51.179 -52.722  1.00  0.00     0.010 A 
HETATM   12  C   UNL     1     -39.705  50.207 -53.741  1.00  0.00     0.152 A 
HETATM   13  N   UNL     1     -39.317  49.019 -53.269  1.00  0.00    -0.187 NA
HETATM   14  N   UNL     1     -39.238  49.219 -51.946  1.00  0.00    -0.289 N 
HETATM   15  H   UNL     1     -38.960  48.440 -51.360  1.00  0.00     0.188 HD
HETATM   16  C   UNL     1     -39.559  50.491 -51.567  1.00  0.00     0.123 A 
ENDBRANCH   7  11
ENDBRANCH   2   5
BRANCH   1  17
HETATM   17  C   UNL     1     -42.542  56.147 -57.215  1.00  0.00     0.182 C 
BRANCH  17  18
HETATM   18  S   UNL     1     -43.455  57.727 -57.150  1.00  0.00    -0.121 SA
BRANCH  18  19
HETATM   19  C   UNL     1     -44.679  57.386 -58.400  1.00  0.00     0.001 A 
HETATM   20  C   UNL     1     -45.866  58.120 -58.432  1.00  0.00     0.019 A 
HETATM   21  C   UNL     1     -46.839  57.847 -59.398  1.00  0.00     0.008 A 
HETATM   22  C   UNL     1     -46.630  56.845 -60.353  1.00  0.00    -0.062 A 
HETATM   23  C   UNL     1     -47.679  56.522 -61.376  1.00  0.00     0.048 C 
HETATM   24  C   UNL     1     -45.434  56.119 -60.324  1.00  0.00     0.008 A 
HETATM   25  C   UNL     1     -44.462  56.392 -59.359  1.00  0.00     0.019 A 
ENDBRANCH  18  19
ENDBRANCH  17  18
ENDBRANCH   1  17
TORSDOF 5
ENDMDL
MODEL 9
REMARK VINA RESULT:      -7.4      2.940      8.033
REMARK  5 active torsions:
REMARK  status: ('A' for Active; 'I' for Inactive)
REMARK    1  A    between atoms: C_5  and  S_6 
REMARK    2  A    between atoms: S_6  and  C_7 
REMARK    3  A    between atoms: C_7  and  C_8 
REMARK       I    between atoms: C_8  and  N_9 
REMARK    4  A    between atoms: N_9  and  C_10 
REMARK    5  A    between atoms: C_12  and  C_13 
ROOT
HETATM    1  C   UNL     1     -42.185  57.412 -54.734  1.00  0.00     0.231 C 
HETATM    2  N   UNL     1     -42.446  56.056 -54.642  1.00  0.00    -0.327 N 
HETATM    3  O   UNL     1     -41.258  58.002 -54.181  1.00  0.00    -0.272 OA
HETATM    4  H   UNL     1     -43.293  55.747 -55.110  1.00  0.00     0.169 HD
ENDROOT
BRANCH   2   5
HETATM    5  C   UNL     1     -41.744  55.085 -53.898  1.00  0.00     0.035 A 
HETATM    6  C   UNL     1     -41.641  55.093 -52.504  1.00  0.00     0.042 A 
HETATM    7  C   UNL     1     -40.936  54.092 -51.816  1.00  0.00    -0.021 A 
HETATM    8  C   UNL     1     -40.323  53.074 -52.557  1.00  0.00     0.012 A 
HETATM    9  C   UNL     1     -40.411  53.059 -53.950  1.00  0.00     0.003 A 
HETATM   10  C   UNL     1     -41.118  54.061 -54.616  1.00  0.00     0.029 A 
BRANCH   7  11
HETATM   11  C   UNL     1     -40.863  54.122 -50.361  1.00  0.00     0.010 A 
HETATM   12  C   UNL     1     -41.191  55.149 -49.440  1.00  0.00     0.152 A 
HETATM   13  N   UNL     1     -40.978  54.796 -48.169  1.00  0.00    -0.187 NA
HETATM   14  N   UNL     1     -40.506  53.546 -48.267  1.00  0.00    -0.289 N 
HETATM   15  H   UNL     1     -40.261  53.058 -47.412  1.00  0.00     0.188 HD
HETATM   16  C   UNL     1     -40.417  53.095 -49.553  1.00  0.00     0.123 A 
ENDBRANCH   7  11
ENDBRANCH   2   5
BRANCH   1  17
HETATM   17  C   UNL     1     -43.100  58.179 -55.678  1.00  0.00     0.182 C 
BRANCH  17  18
HETATM   18  S   UNL     1     -42.270  58.712 -57.215  1.00  0.00    -0.121 SA
BRANCH  18  19
HETATM   19  C   UNL     1     -43.085  57.613 -58.359  1.00  0.00     0.001 A 
HETATM   20  C   UNL     1     -43.020  56.232 -58.166  1.00  0.00     0.019 A 
HETATM   21  C   UNL     1     -43.640  55.364 -59.068  1.00  0.00     0.008 A 
HETATM   22  C   UNL     1     -44.347  55.866 -60.167  1.00  0.00    -0.062 A 
HETATM   23  C   UNL     1     -44.992  54.944 -61.158  1.00  0.00     0.048 C 
HETATM   24  C   UNL     1     -44.420  57.251 -60.350  1.00  0.00     0.008 A 
HETATM   25  C   UNL     1     -43.800  58.120 -59.449  1.00  0.00     0.019 A 
ENDBRANCH  18  19
ENDBRANCH  17  18
ENDBRANCH   1  17
TORSDOF 5
ENDMDL
MODEL 10
REMARK VINA RESULT:      -7.4      2.004      2.861
REMARK  5 active torsions:
REMARK  status: ('A' for Active; 'I' for Inactive)
REMARK    1  A    between atoms: C_5  and  S_6 
REMARK    2  A    between atoms: S_6  and  C_7 
REMARK    3  A    between atoms: C_7  and  C_8 
REMARK       I    between atoms: C_8  and  N_9 
REMARK    4  A    between atoms: N_9  and  C_10 
REMARK    5  A    between atoms: C_12  and  C_13 
ROOT
HETATM    1  C   UNL     1     -43.474  56.031 -54.693  1.00  0.00     0.231 C 
HETATM    2  N   UNL     1     -42.622  55.800 -55.758  1.00  0.00    -0.327 N 
HETATM    3  O   UNL     1     -44.466  56.758 -54.712  1.00  0.00    -0.272 OA
HETATM    4  H   UNL     1     -41.813  55.223 -55.547  1.00  0.00     0.169 HD
ENDROOT
BRANCH   2   5
HETATM    5  C   UNL     1     -42.686  56.348 -57.056  1.00  0.00     0.035 A 
HETATM    6  C   UNL     1     -42.347  57.670 -57.362  1.00  0.00     0.042 A 
HETATM    7  C   UNL     1     -42.421  58.158 -58.678  1.00  0.00    -0.021 A 
HETATM    8  C   UNL     1     -42.851  57.293 -59.691  1.00  0.00     0.012 A 
HETATM    9  C   UNL     1     -43.200  55.974 -59.397  1.00  0.00     0.003 A 
HETATM   10  C   UNL     1     -43.118  55.505 -58.085  1.00  0.00     0.029 A 
BRANCH   7  11
HETATM   11  C   UNL     1     -42.043  59.536 -58.964  1.00  0.00     0.010 A 
HETATM   12  C   UNL     1     -42.100  60.279 -60.170  1.00  0.00     0.152 A 
HETATM   13  N   UNL     1     -41.650  61.530 -60.033  1.00  0.00    -0.187 NA
HETATM   14  N   UNL     1     -41.293  61.594 -58.743  1.00  0.00    -0.289 N 
HETATM   15  H   UNL     1     -40.908  62.465 -58.395  1.00  0.00     0.188 HD
HETATM   16  C   UNL     1     -41.507  60.430 -58.060  1.00  0.00     0.123 A 
ENDBRANCH   7  11
ENDBRANCH   2   5
BRANCH   1  17
HETATM   17  C   UNL     1     -43.163  55.228 -53.437  1.00  0.00     0.182 C 
BRANCH  17  18
HETATM   18  S   UNL     1     -41.455  55.460 -52.835  1.00  0.00    -0.121 SA
BRANCH  18  19
HETATM   19  C   UNL     1     -40.859  53.794 -53.056  1.00  0.00     0.001 A 
HETATM   20  C   UNL     1     -41.051  53.141 -54.275  1.00  0.00     0.019 A 
HETATM   21  C   UNL     1     -40.604  51.828 -54.450  1.00  0.00     0.008 A 
HETATM   22  C   UNL     1     -39.945  51.158 -53.414  1.00  0.00    -0.062 A 
HETATM   23  C   UNL     1     -39.487  49.739 -53.579  1.00  0.00     0.048 C 
HETATM   24  C   UNL     1     -39.745  51.819 -52.197  1.00  0.00     0.008 A 
HETATM   25  C   UNL     1     -40.192  53.131 -52.021  1.00  0.00     0.019 A 
ENDBRANCH  18  19
ENDBRANCH  17  18
ENDBRANCH   1  17
TORSDOF 5
ENDMDL
