MODEL 1
REMARK VINA RESULT:      -9.8      0.000      0.000
REMARK  4 active torsions:
REMARK  status: ('A' for Active; 'I' for Inactive)
REMARK    1  A    between atoms: C_4  and  C_5 
REMARK    2  A    between atoms: C_6  and  N_7 
REMARK    3  A    between atoms: C_9  and  C_10 
REMARK       I    between atoms: C_10  and  N_11 
REMARK    4  A    between atoms: N_11  and  C_12 
ROOT
HETATM    1  C   UNL     1     -41.241  54.337 -52.584  1.00  0.00     0.019 A 
HETATM    2  C   UNL     1     -41.391  55.139 -51.497  1.00  0.00     0.111 A 
HETATM    3  C   UNL     1     -40.916  54.636 -50.137  1.00  0.00     0.273 A 
HETATM    4  O   UNL     1     -41.016  55.306 -49.110  1.00  0.00    -0.266 OA
HETATM    5  N   UNL     1     -40.365  53.390 -50.074  1.00  0.00    -0.321 N 
HETATM    6  C   UNL     1     -40.206  52.554 -51.174  1.00  0.00     0.046 A 
HETATM    7  C   UNL     1     -40.618  52.994 -52.436  1.00  0.00     0.006 A 
HETATM    8  C   UNL     1     -39.634  51.293 -50.990  1.00  0.00     0.032 A 
HETATM    9  C   UNL     1     -39.464  50.447 -52.084  1.00  0.00     0.026 A 
HETATM   10  C   UNL     1     -39.862  50.871 -53.349  1.00  0.00     0.035 A 
HETATM   11 CL   UNL     1     -39.649  49.828 -54.701  1.00  0.00    -0.084 Cl
HETATM   12  C   UNL     1     -40.431  52.133 -53.531  1.00  0.00     0.038 A 
HETATM   13  H   UNL     1     -40.074  53.093 -49.152  1.00  0.00     0.169 HD
ENDROOT
BRANCH   2  14
HETATM   14  N   UNL     1     -42.017  56.413 -51.534  1.00  0.00    -0.375 N 
HETATM   15  C   UNL     1     -41.282  57.583 -51.016  1.00  0.00     0.137 C 
HETATM   16  C   UNL     1     -41.861  58.900 -51.547  1.00  0.00     0.096 C 
HETATM   17  C   UNL     1     -43.361  58.968 -51.208  1.00  0.00     0.017 C 
HETATM   18  C   UNL     1     -44.103  57.721 -51.691  1.00  0.00     0.021 C 
HETATM   19  C   UNL     1     -43.449  56.448 -51.166  1.00  0.00     0.123 C 
BRANCH  16  20
HETATM   20  C   UNL     1     -41.606  59.181 -53.040  1.00  0.00     0.229 C 
HETATM   21  N   UNL     1     -42.759  59.385 -53.777  1.00  0.00    -0.311 N 
HETATM   22  H   UNL     1     -43.637  59.454 -53.291  1.00  0.00     0.170 HD
HETATM   23  O   UNL     1     -40.470  59.104 -53.503  1.00  0.00    -0.273 OA
BRANCH  21  24
HETATM   24  C   UNL     1     -42.814  59.557 -55.169  1.00  0.00     0.129 A 
HETATM   25  N   UNL     1     -41.796  60.122 -55.839  1.00  0.00    -0.243 NA
HETATM   26  C   UNL     1     -41.904  60.253 -57.178  1.00  0.00     0.119 A 
HETATM   27  C   UNL     1     -43.008  59.844 -57.901  1.00  0.00     0.019 A 
HETATM   28  C   UNL     1     -44.059  59.261 -57.204  1.00  0.00     0.005 A 
HETATM   29  C   UNL     1     -43.960  59.110 -55.822  1.00  0.00     0.050 A 
ENDBRANCH  21  24
ENDBRANCH  16  20
ENDBRANCH   2  14
BRANCH   1  30
HETATM   30  C   UNL     1     -41.720  54.859 -53.890  1.00  0.00    -0.023 A 
HETATM   31  C   UNL     1     -40.977  55.823 -54.583  1.00  0.00     0.012 A 
HETATM   32  C   UNL     1     -41.430  56.313 -55.807  1.00  0.00     0.001 A 
HETATM   33  C   UNL     1     -42.619  55.834 -56.354  1.00  0.00     0.000 A 
HETATM   34  C   UNL     1     -43.358  54.865 -55.679  1.00  0.00     0.001 A 
HETATM   35  C   UNL     1     -42.912  54.378 -54.449  1.00  0.00     0.012 A 
ENDBRANCH   1  30
TORSDOF 4
ENDMDL
MODEL 2
REMARK VINA RESULT:      -9.3      2.433      7.073
REMARK  4 active torsions:
REMARK  status: ('A' for Active; 'I' for Inactive)
REMARK    1  A    between atoms: C_4  and  C_5 
REMARK    2  A    between atoms: C_6  and  N_7 
REMARK    3  A    between atoms: C_9  and  C_10 
REMARK       I    between atoms: C_10  and  N_11 
REMARK    4  A    between atoms: N_11  and  C_12 
ROOT
HETATM    1  C   UNL     1     -42.975  56.477 -55.043  1.00  0.00     0.019 A 
HETATM    2  C   UNL     1     -43.191  57.171 -53.894  1.00  0.00     0.111 A 
HETATM    3  C   UNL     1     -44.073  58.416 -53.938  1.00  0.00     0.273 A 
HETATM    4  O   UNL     1     -44.315  59.093 -52.939  1.00  0.00    -0.266 OA
HETATM    5  N   UNL     1     -44.600  58.783 -55.141  1.00  0.00    -0.321 N 
HETATM    6  C   UNL     1     -44.388  58.087 -56.327  1.00  0.00     0.046 A 
HETATM    7  C   UNL     1     -43.598  56.934 -56.315  1.00  0.00     0.006 A 
HETATM    8  C   UNL     1     -44.974  58.559 -57.504  1.00  0.00     0.032 A 
HETATM    9  C   UNL     1     -44.774  57.870 -58.699  1.00  0.00     0.026 A 
HETATM   10  C   UNL     1     -43.996  56.716 -58.704  1.00  0.00     0.035 A 
HETATM   11 CL   UNL     1     -43.751  55.862 -60.178  1.00  0.00    -0.084 Cl
HETATM   12  C   UNL     1     -43.413  56.245 -57.525  1.00  0.00     0.038 A 
HETATM   13  H   UNL     1     -45.168  59.619 -55.127  1.00  0.00     0.169 HD
ENDROOT
BRANCH   2  14
HETATM   14  N   UNL     1     -42.601  56.839 -52.646  1.00  0.00    -0.375 N 
HETATM   15  C   UNL     1     -43.481  56.539 -51.500  1.00  0.00     0.137 C 
HETATM   16  C   UNL     1     -42.743  55.757 -50.406  1.00  0.00     0.096 C 
HETATM   17  C   UNL     1     -41.490  56.542 -49.978  1.00  0.00     0.017 C 
HETATM   18  C   UNL     1     -40.618  56.905 -51.180  1.00  0.00     0.021 C 
HETATM   19  C   UNL     1     -41.422  57.638 -52.248  1.00  0.00     0.123 C 
BRANCH  16  20
HETATM   20  C   UNL     1     -42.405  54.295 -50.752  1.00  0.00     0.229 C 
HETATM   21  N   UNL     1     -41.180  53.873 -50.263  1.00  0.00    -0.311 N 
HETATM   22  H   UNL     1     -40.674  54.480 -49.641  1.00  0.00     0.170 HD
HETATM   23  O   UNL     1     -43.136  53.644 -51.495  1.00  0.00    -0.273 OA
BRANCH  21  24
HETATM   24  C   UNL     1     -40.589  52.627 -50.522  1.00  0.00     0.129 A 
HETATM   25  N   UNL     1     -40.783  51.581 -49.701  1.00  0.00    -0.243 NA
HETATM   26  C   UNL     1     -40.194  50.407 -50.008  1.00  0.00     0.119 A 
HETATM   27  C   UNL     1     -39.393  50.219 -51.118  1.00  0.00     0.019 A 
HETATM   28  C   UNL     1     -39.193  51.301 -51.963  1.00  0.00     0.005 A 
HETATM   29  C   UNL     1     -39.802  52.520 -51.666  1.00  0.00     0.050 A 
ENDBRANCH  21  24
ENDBRANCH  16  20
ENDBRANCH   2  14
BRANCH   1  30
HETATM   30  C   UNL     1     -42.108  55.273 -54.961  1.00  0.00    -0.023 A 
HETATM   31  C   UNL     1     -42.672  54.006 -54.767  1.00  0.00     0.012 A 
HETATM   32  C   UNL     1     -41.856  52.878 -54.688  1.00  0.00     0.001 A 
HETATM   33  C   UNL     1     -40.474  53.006 -54.817  1.00  0.00     0.000 A 
HETATM   34  C   UNL     1     -39.904  54.261 -55.024  1.00  0.00     0.001 A 
HETATM   35  C   UNL     1     -40.718  55.393 -55.095  1.00  0.00     0.012 A 
ENDBRANCH   1  30
TORSDOF 4
ENDMDL
MODEL 3
REMARK VINA RESULT:      -9.0      2.327      6.921
REMARK  4 active torsions:
REMARK  status: ('A' for Active; 'I' for Inactive)
REMARK    1  A    between atoms: C_4  and  C_5 
REMARK    2  A    between atoms: C_6  and  N_7 
REMARK    3  A    between atoms: C_9  and  C_10 
REMARK       I    between atoms: C_10  and  N_11 
REMARK    4  A    between atoms: N_11  and  C_12 
ROOT
HETATM    1  C   UNL     1     -42.969  57.137 -55.772  1.00  0.00     0.019 A 
HETATM    2  C   UNL     1     -42.987  58.293 -55.057  1.00  0.00     0.111 A 
HETATM    3  C   UNL     1     -43.655  59.525 -55.662  1.00  0.00     0.273 A 
HETATM    4  O   UNL     1     -43.713  60.604 -55.074  1.00  0.00    -0.266 OA
HETATM    5  N   UNL     1     -44.199  59.409 -56.908  1.00  0.00    -0.321 N 
HETATM    6  C   UNL     1     -44.187  58.236 -57.654  1.00  0.00     0.046 A 
HETATM    7  C   UNL     1     -43.596  57.087 -57.120  1.00  0.00     0.006 A 
HETATM    8  C   UNL     1     -44.769  58.235 -58.924  1.00  0.00     0.032 A 
HETATM    9  C   UNL     1     -44.769  57.066 -59.683  1.00  0.00     0.026 A 
HETATM   10  C   UNL     1     -44.191  55.910 -59.163  1.00  0.00     0.035 A 
HETATM   11 CL   UNL     1     -44.193  54.465 -60.097  1.00  0.00    -0.084 Cl
HETATM   12  C   UNL     1     -43.612  55.914 -57.892  1.00  0.00     0.038 A 
HETATM   13  H   UNL     1     -44.621  60.251 -57.274  1.00  0.00     0.169 HD
ENDROOT
BRANCH   2  14
HETATM   14  N   UNL     1     -42.373  58.448 -53.786  1.00  0.00    -0.375 N 
HETATM   15  C   UNL     1     -43.208  58.842 -52.635  1.00  0.00     0.137 C 
HETATM   16  C   UNL     1     -42.531  58.507 -51.300  1.00  0.00     0.096 C 
HETATM   17  C   UNL     1     -41.142  59.169 -51.255  1.00  0.00     0.017 C 
HETATM   18  C   UNL     1     -40.309  58.808 -52.485  1.00  0.00     0.021 C 
HETATM   19  C   UNL     1     -41.057  59.122 -53.775  1.00  0.00     0.123 C 
BRANCH  16  20
HETATM   20  C   UNL     1     -42.455  57.008 -50.955  1.00  0.00     0.229 C 
HETATM   21  N   UNL     1     -41.404  56.679 -50.116  1.00  0.00    -0.311 N 
HETATM   22  H   UNL     1     -40.860  57.421 -49.709  1.00  0.00     0.170 HD
HETATM   23  O   UNL     1     -43.211  56.204 -51.495  1.00  0.00    -0.273 OA
BRANCH  21  24
HETATM   24  C   UNL     1     -41.048  55.377 -49.732  1.00  0.00     0.129 A 
HETATM   25  N   UNL     1     -41.109  54.990 -48.447  1.00  0.00    -0.243 NA
HETATM   26  C   UNL     1     -40.762  53.722 -48.142  1.00  0.00     0.119 A 
HETATM   27  C   UNL     1     -40.339  52.797 -49.078  1.00  0.00     0.019 A 
HETATM   28  C   UNL     1     -40.276  53.201 -50.405  1.00  0.00     0.005 A 
HETATM   29  C   UNL     1     -40.640  54.505 -50.739  1.00  0.00     0.050 A 
ENDBRANCH  21  24
ENDBRANCH  16  20
ENDBRANCH   2  14
BRANCH   1  30
HETATM   30  C   UNL     1     -42.305  55.961 -55.151  1.00  0.00    -0.023 A 
HETATM   31  C   UNL     1     -43.068  54.969 -54.522  1.00  0.00     0.012 A 
HETATM   32  C   UNL     1     -42.443  53.868 -53.938  1.00  0.00     0.001 A 
HETATM   33  C   UNL     1     -41.056  53.742 -53.992  1.00  0.00     0.000 A 
HETATM   34  C   UNL     1     -40.290  54.717 -54.629  1.00  0.00     0.001 A 
HETATM   35  C   UNL     1     -40.912  55.825 -55.207  1.00  0.00     0.012 A 
ENDBRANCH   1  30
TORSDOF 4
ENDMDL
MODEL 4
REMARK VINA RESULT:      -8.2      1.968      3.075
REMARK  4 active torsions:
REMARK  status: ('A' for Active; 'I' for Inactive)
REMARK    1  A    between atoms: C_4  and  C_5 
REMARK    2  A    between atoms: C_6  and  N_7 
REMARK    3  A    between atoms: C_9  and  C_10 
REMARK       I    between atoms: C_10  and  N_11 
REMARK    4  A    between atoms: N_11  and  C_12 
ROOT
HETATM    1  C   UNL     1     -41.976  56.165 -52.548  1.00  0.00     0.019 A 
HETATM    2  C   UNL     1     -42.303  57.447 -52.233  1.00  0.00     0.111 A 
HETATM    3  C   UNL     1     -41.930  57.987 -50.856  1.00  0.00     0.273 A 
HETATM    4  O   UNL     1     -42.191  59.136 -50.501  1.00  0.00    -0.266 OA
HETATM    5  N   UNL     1     -41.287  57.148 -49.993  1.00  0.00    -0.321 N 
HETATM    6  C   UNL     1     -40.948  55.834 -50.296  1.00  0.00     0.046 A 
HETATM    7  C   UNL     1     -41.263  55.315 -51.556  1.00  0.00     0.006 A 
HETATM    8  C   UNL     1     -40.296  55.063 -49.331  1.00  0.00     0.032 A 
HETATM    9  C   UNL     1     -39.945  53.746 -49.622  1.00  0.00     0.026 A 
HETATM   10  C   UNL     1     -40.244  53.216 -50.875  1.00  0.00     0.035 A 
HETATM   11 CL   UNL     1     -39.808  51.591 -51.236  1.00  0.00    -0.084 Cl
HETATM   12  C   UNL     1     -40.894  53.990 -51.838  1.00  0.00     0.038 A 
HETATM   13  H   UNL     1     -41.069  57.543 -49.089  1.00  0.00     0.169 HD
ENDROOT
BRANCH   2  14
HETATM   14  N   UNL     1     -43.025  58.314 -53.096  1.00  0.00    -0.375 N 
HETATM   15  C   UNL     1     -42.438  59.622 -53.444  1.00  0.00     0.137 C 
HETATM   16  C   UNL     1     -43.072  60.211 -54.710  1.00  0.00     0.096 C 
HETATM   17  C   UNL     1     -44.598  60.298 -54.520  1.00  0.00     0.017 C 
HETATM   18  C   UNL     1     -45.187  58.953 -54.095  1.00  0.00     0.021 C 
HETATM   19  C   UNL     1     -44.483  58.403 -52.861  1.00  0.00     0.123 C 
BRANCH  16  20
HETATM   20  C   UNL     1     -42.705  59.500 -56.026  1.00  0.00     0.229 C 
HETATM   21  N   UNL     1     -43.776  59.326 -56.885  1.00  0.00    -0.311 N 
HETATM   22  H   UNL     1     -44.654  59.762 -56.658  1.00  0.00     0.170 HD
HETATM   23  O   UNL     1     -41.576  59.047 -56.196  1.00  0.00    -0.273 OA
BRANCH  21  24
HETATM   24  C   UNL     1     -43.737  58.621 -58.098  1.00  0.00     0.129 A 
HETATM   25  N   UNL     1     -42.966  59.033 -59.118  1.00  0.00    -0.243 NA
HETATM   26  C   UNL     1     -42.965  58.308 -60.256  1.00  0.00     0.119 A 
HETATM   27  C   UNL     1     -43.720  57.166 -60.436  1.00  0.00     0.019 A 
HETATM   28  C   UNL     1     -44.517  56.743 -59.381  1.00  0.00     0.005 A 
HETATM   29  C   UNL     1     -44.523  57.475 -58.195  1.00  0.00     0.050 A 
ENDBRANCH  21  24
ENDBRANCH  16  20
ENDBRANCH   2  14
BRANCH   1  30
HETATM   30  C   UNL     1     -42.360  55.674 -53.897  1.00  0.00    -0.023 A 
HETATM   31  C   UNL     1     -41.565  55.969 -55.011  1.00  0.00     0.012 A 
HETATM   32  C   UNL     1     -41.928  55.509 -56.276  1.00  0.00     0.001 A 
HETATM   33  C   UNL     1     -43.079  54.739 -56.434  1.00  0.00     0.000 A 
HETATM   34  C   UNL     1     -43.870  54.428 -55.329  1.00  0.00     0.001 A 
HETATM   35  C   UNL     1     -43.513  54.895 -54.063  1.00  0.00     0.012 A 
ENDBRANCH   1  30
TORSDOF 4
ENDMDL
MODEL 5
REMARK VINA RESULT:      -8.1      2.638      7.293
REMARK  4 active torsions:
REMARK  status: ('A' for Active; 'I' for Inactive)
REMARK    1  A    between atoms: C_4  and  C_5 
REMARK    2  A    between atoms: C_6  and  N_7 
REMARK    3  A    between atoms: C_9  and  C_10 
REMARK       I    between atoms: C_10  and  N_11 
REMARK    4  A    between atoms: N_11  and  C_12 
ROOT
HETATM    1  C   UNL     1     -44.022  58.300 -55.225  1.00  0.00     0.019 A 
HETATM    2  C   UNL     1     -43.615  59.247 -54.338  1.00  0.00     0.111 A 
HETATM    3  C   UNL     1     -44.215  60.647 -54.425  1.00  0.00     0.273 A 
HETATM    4  O   UNL     1     -43.897  61.554 -53.656  1.00  0.00    -0.266 OA
HETATM    5  N   UNL     1     -45.134  60.888 -55.404  1.00  0.00    -0.321 N 
HETATM    6  C   UNL     1     -45.560  59.934 -56.321  1.00  0.00     0.046 A 
HETATM    7  C   UNL     1     -45.040  58.638 -56.256  1.00  0.00     0.006 A 
HETATM    8  C   UNL     1     -46.502  60.296 -57.287  1.00  0.00     0.032 A 
HETATM    9  C   UNL     1     -46.942  59.349 -58.210  1.00  0.00     0.026 A 
HETATM   10  C   UNL     1     -46.440  58.051 -58.155  1.00  0.00     0.035 A 
HETATM   11 CL   UNL     1     -46.986  56.880 -59.292  1.00  0.00    -0.084 Cl
HETATM   12  C   UNL     1     -45.500  57.692 -57.187  1.00  0.00     0.038 A 
HETATM   13  H   UNL     1     -45.496  61.832 -55.432  1.00  0.00     0.169 HD
ENDROOT
BRANCH   2  14
HETATM   14  N   UNL     1     -42.615  59.030 -53.352  1.00  0.00    -0.375 N 
HETATM   15  C   UNL     1     -42.943  59.290 -51.937  1.00  0.00     0.137 C 
HETATM   16  C   UNL     1     -41.971  58.578 -50.988  1.00  0.00     0.096 C 
HETATM   17  C   UNL     1     -40.529  58.996 -51.330  1.00  0.00     0.017 C 
HETATM   18  C   UNL     1     -40.221  58.785 -52.813  1.00  0.00     0.021 C 
HETATM   19  C   UNL     1     -41.249  59.478 -53.699  1.00  0.00     0.123 C 
BRANCH  16  20
HETATM   20  C   UNL     1     -42.115  57.046 -50.922  1.00  0.00     0.229 C 
HETATM   21  N   UNL     1     -40.949  56.389 -50.568  1.00  0.00    -0.311 N 
HETATM   22  H   UNL     1     -40.157  56.934 -50.274  1.00  0.00     0.170 HD
HETATM   23  O   UNL     1     -43.159  56.501 -51.273  1.00  0.00    -0.273 OA
BRANCH  21  24
HETATM   24  C   UNL     1     -40.780  54.996 -50.535  1.00  0.00     0.129 A 
HETATM   25  N   UNL     1     -40.750  54.327 -49.371  1.00  0.00    -0.243 NA
HETATM   26  C   UNL     1     -40.594  52.987 -49.404  1.00  0.00     0.119 A 
HETATM   27  C   UNL     1     -40.455  52.261 -50.572  1.00  0.00     0.019 A 
HETATM   28  C   UNL     1     -40.485  52.956 -51.774  1.00  0.00     0.005 A 
HETATM   29  C   UNL     1     -40.655  54.340 -51.757  1.00  0.00     0.050 A 
ENDBRANCH  21  24
ENDBRANCH  16  20
ENDBRANCH   2  14
BRANCH   1  30
HETATM   30  C   UNL     1     -43.411  56.950 -55.111  1.00  0.00    -0.023 A 
HETATM   31  C   UNL     1     -42.184  56.675 -55.726  1.00  0.00     0.012 A 
HETATM   32  C   UNL     1     -41.614  55.406 -55.621  1.00  0.00     0.001 A 
HETATM   33  C   UNL     1     -42.259  54.410 -54.889  1.00  0.00     0.000 A 
HETATM   34  C   UNL     1     -43.474  54.679 -54.261  1.00  0.00     0.001 A 
HETATM   35  C   UNL     1     -44.050  55.946 -54.372  1.00  0.00     0.012 A 
ENDBRANCH   1  30
TORSDOF 4
ENDMDL
MODEL 6
REMARK VINA RESULT:      -8.0      2.883      4.971
REMARK  4 active torsions:
REMARK  status: ('A' for Active; 'I' for Inactive)
REMARK    1  A    between atoms: C_4  and  C_5 
REMARK    2  A    between atoms: C_6  and  N_7 
REMARK    3  A    between atoms: C_9  and  C_10 
REMARK       I    between atoms: C_10  and  N_11 
REMARK    4  A    between atoms: N_11  and  C_12 
ROOT
HETATM    1  C   UNL     1     -41.995  56.067 -52.950  1.00  0.00     0.019 A 
HETATM    2  C   UNL     1     -42.474  55.905 -54.212  1.00  0.00     0.111 A 
HETATM    3  C   UNL     1     -42.382  54.529 -54.865  1.00  0.00     0.273 A 
HETATM    4  O   UNL     1     -42.797  54.307 -56.003  1.00  0.00    -0.266 OA
HETATM    5  N   UNL     1     -41.811  53.519 -54.150  1.00  0.00    -0.321 N 
HETATM    6  C   UNL     1     -41.313  53.666 -52.860  1.00  0.00     0.046 A 
HETATM    7  C   UNL     1     -41.396  54.910 -52.228  1.00  0.00     0.006 A 
HETATM    8  C   UNL     1     -40.741  52.561 -52.224  1.00  0.00     0.032 A 
HETATM    9  C   UNL     1     -40.242  52.692 -50.930  1.00  0.00     0.026 A 
HETATM   10  C   UNL     1     -40.324  53.922 -50.283  1.00  0.00     0.035 A 
HETATM   11 CL   UNL     1     -39.711  54.084 -48.683  1.00  0.00    -0.084 Cl
HETATM   12  C   UNL     1     -40.898  55.024 -50.920  1.00  0.00     0.038 A 
HETATM   13  H   UNL     1     -41.761  52.628 -54.625  1.00  0.00     0.169 HD
ENDROOT
BRANCH   2  14
HETATM   14  N   UNL     1     -43.016  56.959 -54.993  1.00  0.00    -0.375 N 
HETATM   15  C   UNL     1     -44.483  57.087 -55.097  1.00  0.00     0.137 C 
HETATM   16  C   UNL     1     -44.901  58.492 -55.548  1.00  0.00     0.096 C 
HETATM   17  C   UNL     1     -44.199  58.829 -56.876  1.00  0.00     0.017 C 
HETATM   18  C   UNL     1     -42.687  58.630 -56.778  1.00  0.00     0.021 C 
HETATM   19  C   UNL     1     -42.342  57.231 -56.281  1.00  0.00     0.123 C 
BRANCH  16  20
HETATM   20  C   UNL     1     -44.702  59.608 -54.505  1.00  0.00     0.229 C 
HETATM   21  N   UNL     1     -45.866  59.979 -53.853  1.00  0.00    -0.311 N 
HETATM   22  H   UNL     1     -46.699  59.439 -54.008  1.00  0.00     0.170 HD
HETATM   23  O   UNL     1     -43.612  60.163 -54.385  1.00  0.00    -0.273 OA
BRANCH  21  24
HETATM   24  C   UNL     1     -45.981  61.036 -52.936  1.00  0.00     0.129 A 
HETATM   25  N   UNL     1     -45.812  62.311 -53.321  1.00  0.00    -0.243 NA
HETATM   26  C   UNL     1     -45.943  63.283 -52.394  1.00  0.00     0.119 A 
HETATM   27  C   UNL     1     -46.237  63.041 -51.066  1.00  0.00     0.019 A 
HETATM   28  C   UNL     1     -46.410  61.721 -50.672  1.00  0.00     0.005 A 
HETATM   29  C   UNL     1     -46.286  60.705 -51.618  1.00  0.00     0.050 A 
ENDBRANCH  21  24
ENDBRANCH  16  20
ENDBRANCH   2  14
BRANCH   1  30
HETATM   30  C   UNL     1     -42.097  57.421 -52.348  1.00  0.00    -0.023 A 
HETATM   31  C   UNL     1     -43.232  57.786 -51.613  1.00  0.00     0.012 A 
HETATM   32  C   UNL     1     -43.327  59.059 -51.052  1.00  0.00     0.001 A 
HETATM   33  C   UNL     1     -42.284  59.970 -51.208  1.00  0.00     0.000 A 
HETATM   34  C   UNL     1     -41.144  59.611 -51.925  1.00  0.00     0.001 A 
HETATM   35  C   UNL     1     -41.050  58.341 -52.495  1.00  0.00     0.012 A 
ENDBRANCH   1  30
TORSDOF 4
ENDMDL
MODEL 7
REMARK VINA RESULT:      -8.0      2.616      5.383
REMARK  4 active torsions:
REMARK  status: ('A' for Active; 'I' for Inactive)
REMARK    1  A    between atoms: C_4  and  C_5 
REMARK    2  A    between atoms: C_6  and  N_7 
REMARK    3  A    between atoms: C_9  and  C_10 
REMARK       I    between atoms: C_10  and  N_11 
REMARK    4  A    between atoms: N_11  and  C_12 
ROOT
HETATM    1  C   UNL     1     -41.857  56.600 -53.919  1.00  0.00     0.019 A 
HETATM    2  C   UNL     1     -42.507  57.057 -55.022  1.00  0.00     0.111 A 
HETATM    3  C   UNL     1     -42.841  56.075 -56.142  1.00  0.00     0.273 A 
HETATM    4  O   UNL     1     -43.430  56.414 -57.168  1.00  0.00    -0.266 OA
HETATM    5  N   UNL     1     -42.460  54.775 -55.986  1.00  0.00    -0.321 N 
HETATM    6  C   UNL     1     -41.791  54.290 -54.867  1.00  0.00     0.046 A 
HETATM    7  C   UNL     1     -41.485  55.163 -53.817  1.00  0.00     0.006 A 
HETATM    8  C   UNL     1     -41.443  52.939 -54.818  1.00  0.00     0.032 A 
HETATM    9  C   UNL     1     -40.777  52.438 -53.701  1.00  0.00     0.026 A 
HETATM   10  C   UNL     1     -40.471  53.291 -52.644  1.00  0.00     0.035 A 
HETATM   11 CL   UNL     1     -39.652  52.673 -51.262  1.00  0.00    -0.084 Cl
HETATM   12  C   UNL     1     -40.823  54.641 -52.694  1.00  0.00     0.038 A 
HETATM   13  H   UNL     1     -42.691  54.162 -56.756  1.00  0.00     0.169 HD
ENDROOT
BRANCH   2  14
HETATM   14  N   UNL     1     -42.858  58.417 -55.228  1.00  0.00    -0.375 N 
HETATM   15  C   UNL     1     -44.266  58.824 -55.058  1.00  0.00     0.137 C 
HETATM   16  C   UNL     1     -44.400  60.336 -54.842  1.00  0.00     0.096 C 
HETATM   17  C   UNL     1     -43.725  61.077 -56.010  1.00  0.00     0.017 C 
HETATM   18  C   UNL     1     -42.287  60.602 -56.221  1.00  0.00     0.021 C 
HETATM   19  C   UNL     1     -42.221  59.088 -56.382  1.00  0.00     0.123 C 
BRANCH  16  20
HETATM   20  C   UNL     1     -43.903  60.856 -53.480  1.00  0.00     0.229 C 
HETATM   21  N   UNL     1     -44.913  61.065 -52.558  1.00  0.00    -0.311 N 
HETATM   22  H   UNL     1     -45.845  60.763 -52.785  1.00  0.00     0.170 HD
HETATM   23  O   UNL     1     -42.721  61.152 -53.318  1.00  0.00    -0.273 OA
BRANCH  21  24
HETATM   24  C   UNL     1     -44.746  61.629 -51.283  1.00  0.00     0.129 A 
HETATM   25  N   UNL     1     -44.453  62.931 -51.133  1.00  0.00    -0.243 NA
HETATM   26  C   UNL     1     -44.311  63.416 -49.881  1.00  0.00     0.119 A 
HETATM   27  C   UNL     1     -44.445  62.646 -48.742  1.00  0.00     0.019 A 
HETATM   28  C   UNL     1     -44.746  61.301 -48.901  1.00  0.00     0.005 A 
HETATM   29  C   UNL     1     -44.904  60.785 -50.187  1.00  0.00     0.050 A 
ENDBRANCH  21  24
ENDBRANCH  16  20
ENDBRANCH   2  14
BRANCH   1  30
HETATM   30  C   UNL     1     -41.545  57.587 -52.853  1.00  0.00    -0.023 A 
HETATM   31  C   UNL     1     -42.436  57.787 -51.791  1.00  0.00     0.012 A 
HETATM   32  C   UNL     1     -42.143  58.715 -50.793  1.00  0.00     0.001 A 
HETATM   33  C   UNL     1     -40.952  59.438 -50.840  1.00  0.00     0.000 A 
HETATM   34  C   UNL     1     -40.052  59.235 -51.885  1.00  0.00     0.001 A 
HETATM   35  C   UNL     1     -40.347  58.313 -52.890  1.00  0.00     0.012 A 
ENDBRANCH   1  30
TORSDOF 4
ENDMDL
MODEL 8
REMARK VINA RESULT:      -7.9      3.314      7.735
REMARK  4 active torsions:
REMARK  status: ('A' for Active; 'I' for Inactive)
REMARK    1  A    between atoms: C_4  and  C_5 
REMARK    2  A    between atoms: C_6  and  N_7 
REMARK    3  A    between atoms: C_9  and  C_10 
REMARK       I    between atoms: C_10  and  N_11 
REMARK    4  A    between atoms: N_11  and  C_12 
ROOT
HETATM    1  C   UNL     1     -43.972  58.578 -53.232  1.00  0.00     0.019 A 
HETATM    2  C   UNL     1     -43.634  57.308 -52.884  1.00  0.00     0.111 A 
HETATM    3  C   UNL     1     -43.959  56.817 -51.476  1.00  0.00     0.273 A 
HETATM    4  O   UNL     1     -43.685  55.681 -51.091  1.00  0.00    -0.266 OA
HETATM    5  N   UNL     1     -44.571  57.686 -50.621  1.00  0.00    -0.321 N 
HETATM    6  C   UNL     1     -44.921  58.989 -50.958  1.00  0.00     0.046 A 
HETATM    7  C   UNL     1     -44.651  59.463 -52.246  1.00  0.00     0.006 A 
HETATM    8  C   UNL     1     -45.539  59.794 -49.998  1.00  0.00     0.032 A 
HETATM    9  C   UNL     1     -45.901  61.100 -50.323  1.00  0.00     0.026 A 
HETATM   10  C   UNL     1     -45.646  61.586 -51.603  1.00  0.00     0.035 A 
HETATM   11 CL   UNL     1     -46.095  63.198 -52.005  1.00  0.00    -0.084 Cl
HETATM   12  C   UNL     1     -45.030  60.778 -52.561  1.00  0.00     0.038 A 
HETATM   13  H   UNL     1     -44.757  57.323 -49.696  1.00  0.00     0.169 HD
ENDROOT
BRANCH   2  14
HETATM   14  N   UNL     1     -42.943  56.411 -53.740  1.00  0.00    -0.375 N 
HETATM   15  C   UNL     1     -41.513  56.649 -54.015  1.00  0.00     0.137 C 
HETATM   16  C   UNL     1     -40.816  55.385 -54.534  1.00  0.00     0.096 C 
HETATM   17  C   UNL     1     -41.562  54.868 -55.778  1.00  0.00     0.017 C 
HETATM   18  C   UNL     1     -43.055  54.688 -55.501  1.00  0.00     0.021 C 
HETATM   19  C   UNL     1     -43.675  55.964 -54.945  1.00  0.00     0.123 C 
BRANCH  16  20
HETATM   20  C   UNL     1     -40.609  54.269 -53.494  1.00  0.00     0.229 C 
HETATM   21  N   UNL     1     -40.082  53.102 -54.021  1.00  0.00    -0.311 N 
HETATM   22  H   UNL     1     -39.770  53.102 -54.977  1.00  0.00     0.170 HD
HETATM   23  O   UNL     1     -41.002  54.412 -52.338  1.00  0.00    -0.273 OA
BRANCH  21  24
HETATM   24  C   UNL     1     -39.893  51.905 -53.313  1.00  0.00     0.129 A 
HETATM   25  N   UNL     1     -39.682  51.907 -51.987  1.00  0.00    -0.243 NA
HETATM   26  C   UNL     1     -39.515  50.723 -51.362  1.00  0.00     0.119 A 
HETATM   27  C   UNL     1     -39.541  49.504 -52.012  1.00  0.00     0.019 A 
HETATM   28  C   UNL     1     -39.758  49.505 -53.383  1.00  0.00     0.005 A 
HETATM   29  C   UNL     1     -39.941  50.719 -54.043  1.00  0.00     0.050 A 
ENDBRANCH  21  24
ENDBRANCH  16  20
ENDBRANCH   2  14
BRANCH   1  30
HETATM   30  C   UNL     1     -43.636  59.022 -54.609  1.00  0.00    -0.023 A 
HETATM   31  C   UNL     1     -44.561  58.865 -55.649  1.00  0.00     0.012 A 
HETATM   32  C   UNL     1     -44.242  59.279 -56.941  1.00  0.00     0.001 A 
HETATM   33  C   UNL     1     -43.005  59.867 -57.201  1.00  0.00     0.000 A 
HETATM   34  C   UNL     1     -42.084  60.041 -56.170  1.00  0.00     0.001 A 
HETATM   35  C   UNL     1     -42.397  59.619 -54.876  1.00  0.00     0.012 A 
ENDBRANCH   1  30
TORSDOF 4
ENDMDL
MODEL 9
REMARK VINA RESULT:      -7.8      3.707      6.384
REMARK  4 active torsions:
REMARK  status: ('A' for Active; 'I' for Inactive)
REMARK    1  A    between atoms: C_4  and  C_5 
REMARK    2  A    between atoms: C_6  and  N_7 
REMARK    3  A    between atoms: C_9  and  C_10 
REMARK       I    between atoms: C_10  and  N_11 
REMARK    4  A    between atoms: N_11  and  C_12 
ROOT
HETATM    1  C   UNL     1     -43.228  57.613 -55.893  1.00  0.00     0.019 A 
HETATM    2  C   UNL     1     -42.668  56.649 -55.115  1.00  0.00     0.111 A 
HETATM    3  C   UNL     1     -42.210  55.347 -55.767  1.00  0.00     0.273 A 
HETATM    4  O   UNL     1     -41.693  54.431 -55.127  1.00  0.00    -0.266 OA
HETATM    5  N   UNL     1     -42.393  55.207 -57.111  1.00  0.00    -0.321 N 
HETATM    6  C   UNL     1     -42.966  56.181 -57.922  1.00  0.00     0.046 A 
HETATM    7  C   UNL     1     -43.382  57.390 -57.356  1.00  0.00     0.006 A 
HETATM    8  C   UNL     1     -43.111  55.926 -59.288  1.00  0.00     0.032 A 
HETATM    9  C   UNL     1     -43.679  56.894 -60.114  1.00  0.00     0.026 A 
HETATM   10  C   UNL     1     -44.091  58.107 -59.568  1.00  0.00     0.035 A 
HETATM   11 CL   UNL     1     -44.789  59.304 -60.589  1.00  0.00    -0.084 Cl
HETATM   12  C   UNL     1     -43.943  58.360 -58.203  1.00  0.00     0.038 A 
HETATM   13  H   UNL     1     -42.086  54.326 -57.499  1.00  0.00     0.169 HD
ENDROOT
BRANCH   2  14
HETATM   14  N   UNL     1     -42.525  56.753 -53.705  1.00  0.00    -0.375 N 
HETATM   15  C   UNL     1     -41.170  56.861 -53.133  1.00  0.00     0.137 C 
HETATM   16  C   UNL     1     -41.197  57.433 -51.710  1.00  0.00     0.096 C 
HETATM   17  C   UNL     1     -42.123  56.571 -50.834  1.00  0.00     0.017 C 
HETATM   18  C   UNL     1     -43.505  56.409 -51.468  1.00  0.00     0.021 C 
HETATM   19  C   UNL     1     -43.404  55.882 -52.894  1.00  0.00     0.123 C 
BRANCH  16  20
HETATM   20  C   UNL     1     -41.551  58.929 -51.605  1.00  0.00     0.229 C 
HETATM   21  N   UNL     1     -42.596  59.197 -50.738  1.00  0.00    -0.311 N 
HETATM   22  H   UNL     1     -42.956  58.450 -50.170  1.00  0.00     0.170 HD
HETATM   23  O   UNL     1     -41.002  59.753 -52.333  1.00  0.00    -0.273 OA
BRANCH  21  24
HETATM   24  C   UNL     1     -43.181  60.457 -50.538  1.00  0.00     0.129 A 
HETATM   25  N   UNL     1     -42.434  61.573 -50.499  1.00  0.00    -0.243 NA
HETATM   26  C   UNL     1     -43.055  62.755 -50.311  1.00  0.00     0.119 A 
HETATM   27  C   UNL     1     -44.421  62.885 -50.149  1.00  0.00     0.019 A 
HETATM   28  C   UNL     1     -45.191  61.730 -50.189  1.00  0.00     0.005 A 
HETATM   29  C   UNL     1     -44.566  60.501 -50.391  1.00  0.00     0.050 A 
ENDBRANCH  21  24
ENDBRANCH  16  20
ENDBRANCH   2  14
BRANCH   1  30
HETATM   30  C   UNL     1     -43.666  58.864 -55.221  1.00  0.00    -0.023 A 
HETATM   31  C   UNL     1     -44.925  58.937 -54.613  1.00  0.00     0.012 A 
HETATM   32  C   UNL     1     -45.335  60.113 -53.985  1.00  0.00     0.001 A 
HETATM   33  C   UNL     1     -44.485  61.218 -53.949  1.00  0.00     0.000 A 
HETATM   34  C   UNL     1     -43.224  61.150 -54.539  1.00  0.00     0.001 A 
HETATM   35  C   UNL     1     -42.815  59.977 -55.175  1.00  0.00     0.012 A 
ENDBRANCH   1  30
TORSDOF 4
ENDMDL
MODEL 10
REMARK VINA RESULT:      -7.8      2.866      6.999
REMARK  4 active torsions:
REMARK  status: ('A' for Active; 'I' for Inactive)
REMARK    1  A    between atoms: C_4  and  C_5 
REMARK    2  A    between atoms: C_6  and  N_7 
REMARK    3  A    between atoms: C_9  and  C_10 
REMARK       I    between atoms: C_10  and  N_11 
REMARK    4  A    between atoms: N_11  and  C_12 
ROOT
HETATM    1  C   UNL     1     -43.283  57.706 -55.688  1.00  0.00     0.019 A 
HETATM    2  C   UNL     1     -42.372  57.018 -54.949  1.00  0.00     0.111 A 
HETATM    3  C   UNL     1     -41.730  55.768 -55.545  1.00  0.00     0.273 A 
HETATM    4  O   UNL     1     -40.897  55.096 -54.938  1.00  0.00    -0.266 OA
HETATM    5  N   UNL     1     -42.110  55.392 -56.800  1.00  0.00    -0.321 N 
HETATM    6  C   UNL     1     -43.041  56.081 -57.569  1.00  0.00     0.046 A 
HETATM    7  C   UNL     1     -43.635  57.239 -57.056  1.00  0.00     0.006 A 
HETATM    8  C   UNL     1     -43.359  55.600 -58.841  1.00  0.00     0.032 A 
HETATM    9  C   UNL     1     -44.287  56.282 -59.625  1.00  0.00     0.026 A 
HETATM   10  C   UNL     1     -44.883  57.441 -59.133  1.00  0.00     0.035 A 
HETATM   11 CL   UNL     1     -46.026  58.287 -60.102  1.00  0.00    -0.084 Cl
HETATM   12  C   UNL     1     -44.561  57.921 -57.862  1.00  0.00     0.038 A 
HETATM   13  H   UNL     1     -41.668  54.553 -57.151  1.00  0.00     0.169 HD
ENDROOT
BRANCH   2  14
HETATM   14  N   UNL     1     -42.011  57.360 -53.619  1.00  0.00    -0.375 N 
HETATM   15  C   UNL     1     -42.949  57.049 -52.523  1.00  0.00     0.137 C 
HETATM   16  C   UNL     1     -42.246  57.031 -51.160  1.00  0.00     0.096 C 
HETATM   17  C   UNL     1     -41.531  58.376 -50.940  1.00  0.00     0.017 C 
HETATM   18  C   UNL     1     -40.612  58.722 -52.112  1.00  0.00     0.021 C 
HETATM   19  C   UNL     1     -41.361  58.677 -53.438  1.00  0.00     0.123 C 
BRANCH  16  20
HETATM   20  C   UNL     1     -41.297  55.841 -50.921  1.00  0.00     0.229 C 
HETATM   21  N   UNL     1     -41.530  54.762 -51.757  1.00  0.00    -0.311 N 
HETATM   22  H   UNL     1     -42.190  54.867 -52.509  1.00  0.00     0.170 HD
HETATM   23  O   UNL     1     -40.501  55.856 -49.985  1.00  0.00    -0.273 OA
BRANCH  21  24
HETATM   24  C   UNL     1     -40.880  53.521 -51.680  1.00  0.00     0.129 A 
HETATM   25  N   UNL     1     -40.716  52.893 -50.504  1.00  0.00    -0.243 NA
HETATM   26  C   UNL     1     -40.089  51.698 -50.496  1.00  0.00     0.119 A 
HETATM   27  C   UNL     1     -39.599  51.083 -51.632  1.00  0.00     0.019 A 
HETATM   28  C   UNL     1     -39.770  51.735 -52.846  1.00  0.00     0.005 A 
HETATM   29  C   UNL     1     -40.423  52.966 -52.873  1.00  0.00     0.050 A 
ENDBRANCH  21  24
ENDBRANCH  16  20
ENDBRANCH   2  14
BRANCH   1  30
HETATM   30  C   UNL     1     -43.890  58.914 -55.071  1.00  0.00    -0.023 A 
HETATM   31  C   UNL     1     -43.358  60.184 -55.330  1.00  0.00     0.012 A 
HETATM   32  C   UNL     1     -43.928  61.316 -54.749  1.00  0.00     0.001 A 
HETATM   33  C   UNL     1     -45.040  61.189 -53.918  1.00  0.00     0.000 A 
HETATM   34  C   UNL     1     -45.585  59.932 -53.666  1.00  0.00     0.001 A 
HETATM   35  C   UNL     1     -45.011  58.796 -54.240  1.00  0.00     0.012 A 
ENDBRANCH   1  30
TORSDOF 4
ENDMDL
