MODEL 1
REMARK VINA RESULT:      -8.1      0.000      0.000
REMARK  7 active torsions:
REMARK  status: ('A' for Active; 'I' for Inactive)
REMARK    1  A    between atoms: C_4  and  O_5 
REMARK    2  A    between atoms: O_5  and  C_6 
REMARK    3  A    between atoms: C_9  and  N_10 
REMARK       I    between atoms: N_10  and  C_11 
REMARK    4  A    between atoms: C_11  and  C_12 
REMARK    5  A    between atoms: C_12  and  C_13 
REMARK    6  A    between atoms: C_13  and  N_14 
REMARK       I    between atoms: N_14  and  C_15 
REMARK    7  A    between atoms: C_15  and  C_16 
ROOT
HETATM    1  N   UNL     1     -43.956  56.668 -54.537  1.00  0.00    -0.327 N 
HETATM    2  C   UNL     1     -44.436  57.897 -54.123  1.00  0.00     0.223 C 
HETATM    3  O   UNL     1     -44.236  58.430 -53.036  1.00  0.00    -0.273 OA
HETATM    4  H   UNL     1     -44.246  56.348 -55.454  1.00  0.00     0.169 HD
ENDROOT
BRANCH   1   5
HETATM    5  C   UNL     1     -43.065  55.816 -53.848  1.00  0.00     0.034 A 
HETATM    6  C   UNL     1     -43.462  54.847 -52.924  1.00  0.00     0.032 A 
HETATM    7  C   UNL     1     -42.509  54.072 -52.249  1.00  0.00     0.039 A 
HETATM    8  C   UNL     1     -41.151  54.246 -52.512  1.00  0.00     0.076 A 
HETATM    9  C   UNL     1     -40.747  55.215 -53.429  1.00  0.00     0.039 A 
HETATM   10  C   UNL     1     -41.698  55.992 -54.097  1.00  0.00     0.032 A 
BRANCH   8  11
HETATM   11  O   UNL     1     -40.141  53.581 -51.854  1.00  0.00    -0.311 OA
BRANCH  11  12
HETATM   12  C   UNL     1     -40.006  52.227 -52.043  1.00  0.00     0.076 A 
HETATM   13  C   UNL     1     -39.906  51.646 -53.310  1.00  0.00     0.044 A 
HETATM   14  C   UNL     1     -39.714  50.264 -53.438  1.00  0.00    -0.059 A 
HETATM   15  C   UNL     1     -39.585  49.640 -54.796  1.00  0.00     0.048 C 
HETATM   16  C   UNL     1     -39.577  49.484 -52.282  1.00  0.00     0.007 A 
HETATM   17  C   UNL     1     -39.652  50.071 -51.018  1.00  0.00     0.003 A 
HETATM   18  C   UNL     1     -39.862  51.443 -50.899  1.00  0.00     0.037 A 
ENDBRANCH  11  12
ENDBRANCH   8  11
ENDBRANCH   1   5
BRANCH   2  19
HETATM   19  C   UNL     1     -45.283  58.588 -55.173  1.00  0.00     0.123 C 
BRANCH  19  20
HETATM   20  C   UNL     1     -44.468  58.712 -56.455  1.00  0.00     0.132 C 
BRANCH  20  21
HETATM   21  N   UNL     1     -44.895  57.796 -57.492  1.00  0.00    -0.355 N 
HETATM   22  C   UNL     1     -44.049  56.857 -58.046  1.00  0.00     0.275 C 
HETATM   23  O   UNL     1     -42.937  56.621 -57.583  1.00  0.00    -0.265 OA
HETATM   24  H   UNL     1     -45.762  57.975 -57.989  1.00  0.00     0.162 HD
BRANCH  22  25
HETATM   25  C   UNL     1     -44.589  56.200 -59.219  1.00  0.00     0.142 A 
HETATM   26  O   UNL     1     -45.867  56.491 -59.627  1.00  0.00    -0.317 OA
HETATM   27  C   UNL     1     -46.105  55.762 -60.749  1.00  0.00     0.143 A 
HETATM   28  C   UNL     1     -45.006  55.002 -61.074  1.00  0.00     0.027 A 
HETATM   29  C   UNL     1     -44.029  55.282 -60.089  1.00  0.00     0.045 A 
ENDBRANCH  22  25
ENDBRANCH  20  21
ENDBRANCH  19  20
ENDBRANCH   2  19
TORSDOF 7
ENDMDL
MODEL 2
REMARK VINA RESULT:      -7.9      2.831      4.632
REMARK  7 active torsions:
REMARK  status: ('A' for Active; 'I' for Inactive)
REMARK    1  A    between atoms: C_4  and  O_5 
REMARK    2  A    between atoms: O_5  and  C_6 
REMARK    3  A    between atoms: C_9  and  N_10 
REMARK       I    between atoms: N_10  and  C_11 
REMARK    4  A    between atoms: C_11  and  C_12 
REMARK    5  A    between atoms: C_12  and  C_13 
REMARK    6  A    between atoms: C_13  and  N_14 
REMARK       I    between atoms: N_14  and  C_15 
REMARK    7  A    between atoms: C_15  and  C_16 
ROOT
HETATM    1  N   UNL     1     -43.531  56.706 -54.778  1.00  0.00    -0.327 N 
HETATM    2  C   UNL     1     -44.554  57.542 -54.370  1.00  0.00     0.223 C 
HETATM    3  O   UNL     1     -45.064  57.581 -53.255  1.00  0.00    -0.273 OA
HETATM    4  H   UNL     1     -43.247  56.769 -55.749  1.00  0.00     0.169 HD
ENDROOT
BRANCH   1   5
HETATM    5  C   UNL     1     -42.795  55.798 -53.986  1.00  0.00     0.034 A 
HETATM    6  C   UNL     1     -43.364  54.752 -53.257  1.00  0.00     0.032 A 
HETATM    7  C   UNL     1     -42.566  53.921 -52.458  1.00  0.00     0.039 A 
HETATM    8  C   UNL     1     -41.187  54.118 -52.402  1.00  0.00     0.076 A 
HETATM    9  C   UNL     1     -40.612  55.164 -53.123  1.00  0.00     0.039 A 
HETATM   10  C   UNL     1     -41.410  55.996 -53.914  1.00  0.00     0.032 A 
BRANCH   8  11
HETATM   11  O   UNL     1     -40.331  53.399 -51.599  1.00  0.00    -0.311 OA
BRANCH  11  12
HETATM   12  C   UNL     1     -40.120  52.071 -51.878  1.00  0.00     0.076 A 
HETATM   13  C   UNL     1     -39.988  51.583 -53.181  1.00  0.00     0.044 A 
HETATM   14  C   UNL     1     -39.717  50.226 -53.401  1.00  0.00    -0.059 A 
HETATM   15  C   UNL     1     -39.554  49.704 -54.798  1.00  0.00     0.048 C 
HETATM   16  C   UNL     1     -39.535  49.378 -52.300  1.00  0.00     0.007 A 
HETATM   17  C   UNL     1     -39.642  49.874 -50.999  1.00  0.00     0.003 A 
HETATM   18  C   UNL     1     -39.930  51.221 -50.789  1.00  0.00     0.037 A 
ENDBRANCH  11  12
ENDBRANCH   8  11
ENDBRANCH   1   5
BRANCH   2  19
HETATM   19  C   UNL     1     -45.036  58.469 -55.468  1.00  0.00     0.123 C 
BRANCH  19  20
HETATM   20  C   UNL     1     -44.396  59.838 -55.268  1.00  0.00     0.132 C 
BRANCH  20  21
HETATM   21  N   UNL     1     -43.472  59.876 -54.154  1.00  0.00    -0.355 N 
HETATM   22  C   UNL     1     -42.103  59.815 -54.323  1.00  0.00     0.275 C 
HETATM   23  O   UNL     1     -41.574  59.897 -55.429  1.00  0.00    -0.265 OA
HETATM   24  H   UNL     1     -43.819  59.722 -53.213  1.00  0.00     0.162 HD
BRANCH  22  25
HETATM   25  C   UNL     1     -41.366  59.632 -53.089  1.00  0.00     0.142 A 
HETATM   26  O   UNL     1     -40.062  59.205 -53.140  1.00  0.00    -0.317 OA
HETATM   27  C   UNL     1     -39.612  59.144 -51.859  1.00  0.00     0.143 A 
HETATM   28  C   UNL     1     -40.600  59.521 -50.980  1.00  0.00     0.027 A 
HETATM   29  C   UNL     1     -41.731  59.834 -51.771  1.00  0.00     0.045 A 
ENDBRANCH  22  25
ENDBRANCH  20  21
ENDBRANCH  19  20
ENDBRANCH   2  19
TORSDOF 7
ENDMDL
MODEL 3
REMARK VINA RESULT:      -7.8      3.053      5.418
REMARK  7 active torsions:
REMARK  status: ('A' for Active; 'I' for Inactive)
REMARK    1  A    between atoms: C_4  and  O_5 
REMARK    2  A    between atoms: O_5  and  C_6 
REMARK    3  A    between atoms: C_9  and  N_10 
REMARK       I    between atoms: N_10  and  C_11 
REMARK    4  A    between atoms: C_11  and  C_12 
REMARK    5  A    between atoms: C_12  and  C_13 
REMARK    6  A    between atoms: C_13  and  N_14 
REMARK       I    between atoms: N_14  and  C_15 
REMARK    7  A    between atoms: C_15  and  C_16 
ROOT
HETATM    1  N   UNL     1     -43.637  57.351 -55.018  1.00  0.00    -0.327 N 
HETATM    2  C   UNL     1     -44.401  57.911 -54.011  1.00  0.00     0.223 C 
HETATM    3  O   UNL     1     -44.496  57.506 -52.856  1.00  0.00    -0.273 OA
HETATM    4  H   UNL     1     -43.697  57.783 -55.933  1.00  0.00     0.169 HD
ENDROOT
BRANCH   1   5
HETATM    5  C   UNL     1     -42.739  56.267 -54.914  1.00  0.00     0.034 A 
HETATM    6  C   UNL     1     -41.392  56.393 -54.567  1.00  0.00     0.032 A 
HETATM    7  C   UNL     1     -40.555  55.269 -54.531  1.00  0.00     0.039 A 
HETATM    8  C   UNL     1     -41.068  54.005 -54.819  1.00  0.00     0.076 A 
HETATM    9  C   UNL     1     -42.411  53.871 -55.171  1.00  0.00     0.039 A 
HETATM   10  C   UNL     1     -43.242  54.994 -55.215  1.00  0.00     0.032 A 
BRANCH   8  11
HETATM   11  O   UNL     1     -40.314  52.854 -54.873  1.00  0.00    -0.311 OA
BRANCH  11  12
HETATM   12  C   UNL     1     -40.056  52.176 -53.706  1.00  0.00     0.076 A 
HETATM   13  C   UNL     1     -40.242  52.745 -52.443  1.00  0.00     0.044 A 
HETATM   14  C   UNL     1     -40.015  51.985 -51.288  1.00  0.00    -0.059 A 
HETATM   15  C   UNL     1     -40.234  52.587 -49.931  1.00  0.00     0.048 C 
HETATM   16  C   UNL     1     -39.648  50.639 -51.418  1.00  0.00     0.007 A 
HETATM   17  C   UNL     1     -39.489  50.066 -52.681  1.00  0.00     0.003 A 
HETATM   18  C   UNL     1     -39.697  50.834 -53.825  1.00  0.00     0.037 A 
ENDBRANCH  11  12
ENDBRANCH   8  11
ENDBRANCH   1   5
BRANCH   2  19
HETATM   19  C   UNL     1     -45.164  59.142 -54.458  1.00  0.00     0.123 C 
BRANCH  19  20
HETATM   20  C   UNL     1     -44.233  60.347 -54.388  1.00  0.00     0.132 C 
BRANCH  20  21
HETATM   21  N   UNL     1     -43.301  60.281 -53.282  1.00  0.00    -0.355 N 
HETATM   22  C   UNL     1     -41.972  59.947 -53.450  1.00  0.00     0.275 C 
HETATM   23  O   UNL     1     -41.455  59.850 -54.560  1.00  0.00    -0.265 OA
HETATM   24  H   UNL     1     -43.656  60.262 -52.332  1.00  0.00     0.162 HD
BRANCH  22  25
HETATM   25  C   UNL     1     -41.264  59.709 -52.209  1.00  0.00     0.142 A 
HETATM   26  O   UNL     1     -39.965  59.268 -52.247  1.00  0.00    -0.317 OA
HETATM   27  C   UNL     1     -39.543  59.154 -50.961  1.00  0.00     0.143 A 
HETATM   28  C   UNL     1     -40.545  59.511 -50.089  1.00  0.00     0.027 A 
HETATM   29  C   UNL     1     -41.655  59.867 -50.892  1.00  0.00     0.045 A 
ENDBRANCH  22  25
ENDBRANCH  20  21
ENDBRANCH  19  20
ENDBRANCH   2  19
TORSDOF 7
ENDMDL
MODEL 4
REMARK VINA RESULT:      -7.7      1.937      8.350
REMARK  7 active torsions:
REMARK  status: ('A' for Active; 'I' for Inactive)
REMARK    1  A    between atoms: C_4  and  O_5 
REMARK    2  A    between atoms: O_5  and  C_6 
REMARK    3  A    between atoms: C_9  and  N_10 
REMARK       I    between atoms: N_10  and  C_11 
REMARK    4  A    between atoms: C_11  and  C_12 
REMARK    5  A    between atoms: C_12  and  C_13 
REMARK    6  A    between atoms: C_13  and  N_14 
REMARK       I    between atoms: N_14  and  C_15 
REMARK    7  A    between atoms: C_15  and  C_16 
ROOT
HETATM    1  N   UNL     1     -43.467  55.514 -52.900  1.00  0.00    -0.327 N 
HETATM    2  C   UNL     1     -42.540  55.874 -51.939  1.00  0.00     0.223 C 
HETATM    3  O   UNL     1     -41.439  56.377 -52.139  1.00  0.00    -0.273 OA
HETATM    4  H   UNL     1     -44.317  55.071 -52.573  1.00  0.00     0.169 HD
ENDROOT
BRANCH   1   5
HETATM    5  C   UNL     1     -43.391  55.734 -54.292  1.00  0.00     0.034 A 
HETATM    6  C   UNL     1     -42.856  54.821 -55.204  1.00  0.00     0.032 A 
HETATM    7  C   UNL     1     -42.776  55.136 -56.567  1.00  0.00     0.039 A 
HETATM    8  C   UNL     1     -43.255  56.360 -57.032  1.00  0.00     0.076 A 
HETATM    9  C   UNL     1     -43.786  57.279 -56.128  1.00  0.00     0.039 A 
HETATM   10  C   UNL     1     -43.858  56.966 -54.767  1.00  0.00     0.032 A 
BRANCH   8  11
HETATM   11  O   UNL     1     -43.161  56.785 -58.338  1.00  0.00    -0.311 OA
BRANCH  11  12
HETATM   12  C   UNL     1     -44.168  56.459 -59.214  1.00  0.00     0.076 A 
HETATM   13  C   UNL     1     -45.246  57.308 -59.478  1.00  0.00     0.044 A 
HETATM   14  C   UNL     1     -46.213  56.944 -60.425  1.00  0.00    -0.059 A 
HETATM   15  C   UNL     1     -47.360  57.863 -60.725  1.00  0.00     0.048 C 
HETATM   16  C   UNL     1     -46.058  55.746 -61.134  1.00  0.00     0.007 A 
HETATM   17  C   UNL     1     -44.966  54.912 -60.887  1.00  0.00     0.003 A 
HETATM   18  C   UNL     1     -44.019  55.271 -59.930  1.00  0.00     0.037 A 
ENDBRANCH  11  12
ENDBRANCH   8  11
ENDBRANCH   1   5
BRANCH   2  19
HETATM   19  C   UNL     1     -43.007  55.585 -50.526  1.00  0.00     0.123 C 
BRANCH  19  20
HETATM   20  C   UNL     1     -42.083  54.542 -49.909  1.00  0.00     0.132 C 
BRANCH  20  21
HETATM   21  N   UNL     1     -41.682  53.513 -50.846  1.00  0.00    -0.355 N 
HETATM   22  C   UNL     1     -40.358  53.237 -51.122  1.00  0.00     0.275 C 
HETATM   23  O   UNL     1     -39.436  53.721 -50.470  1.00  0.00    -0.265 OA
HETATM   24  H   UNL     1     -42.368  53.127 -51.487  1.00  0.00     0.162 HD
BRANCH  22  25
HETATM   25  C   UNL     1     -40.166  52.345 -52.247  1.00  0.00     0.142 A 
HETATM   26  O   UNL     1     -39.680  51.079 -52.029  1.00  0.00    -0.317 OA
HETATM   27  C   UNL     1     -39.622  50.459 -53.237  1.00  0.00     0.143 A 
HETATM   28  C   UNL     1     -40.059  51.300 -54.233  1.00  0.00     0.027 A 
HETATM   29  C   UNL     1     -40.408  52.515 -53.597  1.00  0.00     0.045 A 
ENDBRANCH  22  25
ENDBRANCH  20  21
ENDBRANCH  19  20
ENDBRANCH   2  19
TORSDOF 7
ENDMDL
MODEL 5
REMARK VINA RESULT:      -7.7      2.695      3.800
REMARK  7 active torsions:
REMARK  status: ('A' for Active; 'I' for Inactive)
REMARK    1  A    between atoms: C_4  and  O_5 
REMARK    2  A    between atoms: O_5  and  C_6 
REMARK    3  A    between atoms: C_9  and  N_10 
REMARK       I    between atoms: N_10  and  C_11 
REMARK    4  A    between atoms: C_11  and  C_12 
REMARK    5  A    between atoms: C_12  and  C_13 
REMARK    6  A    between atoms: C_13  and  N_14 
REMARK       I    between atoms: N_14  and  C_15 
REMARK    7  A    between atoms: C_15  and  C_16 
ROOT
HETATM    1  N   UNL     1     -43.607  56.558 -56.488  1.00  0.00    -0.327 N 
HETATM    2  C   UNL     1     -43.577  56.308 -57.848  1.00  0.00     0.223 C 
HETATM    3  O   UNL     1     -42.860  55.498 -58.426  1.00  0.00    -0.273 OA
HETATM    4  H   UNL     1     -44.230  57.291 -56.171  1.00  0.00     0.169 HD
ENDROOT
BRANCH   1   5
HETATM    5  C   UNL     1     -42.900  55.878 -55.474  1.00  0.00     0.034 A 
HETATM    6  C   UNL     1     -43.479  54.965 -54.589  1.00  0.00     0.032 A 
HETATM    7  C   UNL     1     -42.714  54.366 -53.579  1.00  0.00     0.039 A 
HETATM    8  C   UNL     1     -41.356  54.658 -53.463  1.00  0.00     0.076 A 
HETATM    9  C   UNL     1     -40.771  55.571 -54.339  1.00  0.00     0.039 A 
HETATM   10  C   UNL     1     -41.537  56.174 -55.341  1.00  0.00     0.032 A 
BRANCH   8  11
HETATM   11  O   UNL     1     -40.539  54.171 -52.467  1.00  0.00    -0.311 OA
BRANCH  11  12
HETATM   12  C   UNL     1     -40.291  52.821 -52.414  1.00  0.00     0.076 A 
HETATM   13  C   UNL     1     -40.125  52.037 -53.559  1.00  0.00     0.044 A 
HETATM   14  C   UNL     1     -39.817  50.675 -53.441  1.00  0.00    -0.059 A 
HETATM   15  C   UNL     1     -39.617  49.836 -54.669  1.00  0.00     0.048 C 
HETATM   16  C   UNL     1     -39.634  50.124 -52.166  1.00  0.00     0.007 A 
HETATM   17  C   UNL     1     -39.775  50.916 -51.025  1.00  0.00     0.003 A 
HETATM   18  C   UNL     1     -40.100  52.265 -51.150  1.00  0.00     0.037 A 
ENDBRANCH  11  12
ENDBRANCH   8  11
ENDBRANCH   1   5
BRANCH   2  19
HETATM   19  C   UNL     1     -44.557  57.160 -58.630  1.00  0.00     0.123 C 
BRANCH  19  20
HETATM   20  C   UNL     1     -44.529  58.577 -58.070  1.00  0.00     0.132 C 
BRANCH  20  21
HETATM   21  N   UNL     1     -43.521  59.413 -58.688  1.00  0.00    -0.355 N 
HETATM   22  C   UNL     1     -42.400  59.848 -58.011  1.00  0.00     0.275 C 
HETATM   23  O   UNL     1     -42.096  59.419 -56.901  1.00  0.00    -0.265 OA
HETATM   24  H   UNL     1     -43.732  59.881 -59.564  1.00  0.00     0.162 HD
BRANCH  22  25
HETATM   25  C   UNL     1     -41.639  60.856 -58.721  1.00  0.00     0.142 A 
HETATM   26  O   UNL     1     -41.867  61.054 -60.060  1.00  0.00    -0.317 OA
HETATM   27  C   UNL     1     -41.045  62.059 -60.461  1.00  0.00     0.143 A 
HETATM   28  C   UNL     1     -40.287  62.514 -59.408  1.00  0.00     0.027 A 
HETATM   29  C   UNL     1     -40.667  61.738 -58.287  1.00  0.00     0.045 A 
ENDBRANCH  22  25
ENDBRANCH  20  21
ENDBRANCH  19  20
ENDBRANCH   2  19
TORSDOF 7
ENDMDL
MODEL 6
REMARK VINA RESULT:      -7.6      5.538      8.644
REMARK  7 active torsions:
REMARK  status: ('A' for Active; 'I' for Inactive)
REMARK    1  A    between atoms: C_4  and  O_5 
REMARK    2  A    between atoms: O_5  and  C_6 
REMARK    3  A    between atoms: C_9  and  N_10 
REMARK       I    between atoms: N_10  and  C_11 
REMARK    4  A    between atoms: C_11  and  C_12 
REMARK    5  A    between atoms: C_12  and  C_13 
REMARK    6  A    between atoms: C_13  and  N_14 
REMARK       I    between atoms: N_14  and  C_15 
REMARK    7  A    between atoms: C_15  and  C_16 
ROOT
HETATM    1  N   UNL     1     -43.033  59.048 -50.887  1.00  0.00    -0.327 N 
HETATM    2  C   UNL     1     -43.733  60.151 -51.342  1.00  0.00     0.223 C 
HETATM    3  O   UNL     1     -44.101  60.357 -52.495  1.00  0.00    -0.273 OA
HETATM    4  H   UNL     1     -42.768  59.046 -49.910  1.00  0.00     0.169 HD
ENDROOT
BRANCH   1   5
HETATM    5  C   UNL     1     -42.681  57.893 -51.617  1.00  0.00     0.034 A 
HETATM    6  C   UNL     1     -41.485  57.744 -52.323  1.00  0.00     0.032 A 
HETATM    7  C   UNL     1     -41.231  56.580 -53.062  1.00  0.00     0.039 A 
HETATM    8  C   UNL     1     -42.164  55.544 -53.078  1.00  0.00     0.076 A 
HETATM    9  C   UNL     1     -43.363  55.687 -52.380  1.00  0.00     0.039 A 
HETATM   10  C   UNL     1     -43.618  56.851 -51.650  1.00  0.00     0.032 A 
BRANCH   8  11
HETATM   11  O   UNL     1     -42.035  54.394 -53.823  1.00  0.00    -0.311 OA
BRANCH  11  12
HETATM   12  C   UNL     1     -41.234  53.383 -53.348  1.00  0.00     0.076 A 
HETATM   13  C   UNL     1     -40.872  52.277 -54.121  1.00  0.00     0.044 A 
HETATM   14  C   UNL     1     -40.007  51.306 -53.599  1.00  0.00    -0.059 A 
HETATM   15  C   UNL     1     -39.599  50.129 -54.435  1.00  0.00     0.048 C 
HETATM   16  C   UNL     1     -39.475  51.484 -52.315  1.00  0.00     0.007 A 
HETATM   17  C   UNL     1     -39.819  52.603 -51.555  1.00  0.00     0.003 A 
HETATM   18  C   UNL     1     -40.695  53.554 -52.073  1.00  0.00     0.037 A 
ENDBRANCH  11  12
ENDBRANCH   8  11
ENDBRANCH   1   5
BRANCH   2  19
HETATM   19  C   UNL     1     -44.036  61.155 -50.248  1.00  0.00     0.123 C 
BRANCH  19  20
HETATM   20  C   UNL     1     -44.975  60.509 -49.237  1.00  0.00     0.132 C 
BRANCH  20  21
HETATM   21  N   UNL     1     -44.648  60.839 -47.866  1.00  0.00    -0.355 N 
HETATM   22  C   UNL     1     -45.606  61.210 -46.944  1.00  0.00     0.275 C 
HETATM   23  O   UNL     1     -46.809  61.120 -47.174  1.00  0.00    -0.265 OA
HETATM   24  H   UNL     1     -43.682  61.022 -47.613  1.00  0.00     0.162 HD
BRANCH  22  25
HETATM   25  C   UNL     1     -45.060  61.722 -45.703  1.00  0.00     0.142 A 
HETATM   26  O   UNL     1     -45.260  63.039 -45.370  1.00  0.00    -0.317 OA
HETATM   27  C   UNL     1     -44.671  63.241 -44.163  1.00  0.00     0.143 A 
HETATM   28  C   UNL     1     -44.090  62.080 -43.708  1.00  0.00     0.027 A 
HETATM   29  C   UNL     1     -44.339  61.101 -44.700  1.00  0.00     0.045 A 
ENDBRANCH  22  25
ENDBRANCH  20  21
ENDBRANCH  19  20
ENDBRANCH   2  19
TORSDOF 7
ENDMDL
MODEL 7
REMARK VINA RESULT:      -7.6      1.627      2.277
REMARK  7 active torsions:
REMARK  status: ('A' for Active; 'I' for Inactive)
REMARK    1  A    between atoms: C_4  and  O_5 
REMARK    2  A    between atoms: O_5  and  C_6 
REMARK    3  A    between atoms: C_9  and  N_10 
REMARK       I    between atoms: N_10  and  C_11 
REMARK    4  A    between atoms: C_11  and  C_12 
REMARK    5  A    between atoms: C_12  and  C_13 
REMARK    6  A    between atoms: C_13  and  N_14 
REMARK       I    between atoms: N_14  and  C_15 
REMARK    7  A    between atoms: C_15  and  C_16 
ROOT
HETATM    1  N   UNL     1     -43.558  56.561 -56.071  1.00  0.00    -0.327 N 
HETATM    2  C   UNL     1     -43.842  57.914 -56.053  1.00  0.00     0.223 C 
HETATM    3  O   UNL     1     -43.585  58.701 -55.147  1.00  0.00    -0.273 OA
HETATM    4  H   UNL     1     -43.873  56.038 -56.880  1.00  0.00     0.169 HD
ENDROOT
BRANCH   1   5
HETATM    5  C   UNL     1     -42.833  55.821 -55.111  1.00  0.00     0.034 A 
HETATM    6  C   UNL     1     -43.421  55.015 -54.134  1.00  0.00     0.032 A 
HETATM    7  C   UNL     1     -42.630  54.348 -53.188  1.00  0.00     0.039 A 
HETATM    8  C   UNL     1     -41.242  54.466 -53.228  1.00  0.00     0.076 A 
HETATM    9  C   UNL     1     -40.648  55.273 -54.197  1.00  0.00     0.039 A 
HETATM   10  C   UNL     1     -41.438  55.943 -55.136  1.00  0.00     0.032 A 
BRANCH   8  11
HETATM   11  O   UNL     1     -40.387  53.905 -52.306  1.00  0.00    -0.311 OA
BRANCH  11  12
HETATM   12  C   UNL     1     -40.174  52.548 -52.341  1.00  0.00     0.076 A 
HETATM   13  C   UNL     1     -40.069  51.829 -53.535  1.00  0.00     0.044 A 
HETATM   14  C   UNL     1     -39.794  50.455 -53.508  1.00  0.00    -0.059 A 
HETATM   15  C   UNL     1     -39.660  49.685 -54.788  1.00  0.00     0.048 C 
HETATM   16  C   UNL     1     -39.580  49.826 -52.274  1.00  0.00     0.007 A 
HETATM   17  C   UNL     1     -39.660  50.552 -51.085  1.00  0.00     0.003 A 
HETATM   18  C   UNL     1     -39.952  51.914 -51.119  1.00  0.00     0.037 A 
ENDBRANCH  11  12
ENDBRANCH   8  11
ENDBRANCH   1   5
BRANCH   2  19
HETATM   19  C   UNL     1     -44.541  58.391 -57.311  1.00  0.00     0.123 C 
BRANCH  19  20
HETATM   20  C   UNL     1     -44.826  57.186 -58.198  1.00  0.00     0.132 C 
BRANCH  20  21
HETATM   21  N   UNL     1     -45.913  57.410 -59.128  1.00  0.00    -0.355 N 
HETATM   22  C   UNL     1     -46.251  56.499 -60.108  1.00  0.00     0.275 C 
HETATM   23  O   UNL     1     -45.770  55.369 -60.149  1.00  0.00    -0.265 OA
HETATM   24  H   UNL     1     -46.305  58.342 -59.222  1.00  0.00     0.162 HD
BRANCH  22  25
HETATM   25  C   UNL     1     -47.204  57.002 -61.077  1.00  0.00     0.142 A 
HETATM   26  O   UNL     1     -47.725  56.149 -62.017  1.00  0.00    -0.317 OA
HETATM   27  C   UNL     1     -48.596  56.868 -62.771  1.00  0.00     0.143 A 
HETATM   28  C   UNL     1     -48.648  58.172 -62.339  1.00  0.00     0.027 A 
HETATM   29  C   UNL     1     -47.750  58.261 -61.248  1.00  0.00     0.045 A 
ENDBRANCH  22  25
ENDBRANCH  20  21
ENDBRANCH  19  20
ENDBRANCH   2  19
TORSDOF 7
ENDMDL
MODEL 8
REMARK VINA RESULT:      -7.4      2.448      3.442
REMARK  7 active torsions:
REMARK  status: ('A' for Active; 'I' for Inactive)
REMARK    1  A    between atoms: C_4  and  O_5 
REMARK    2  A    between atoms: O_5  and  C_6 
REMARK    3  A    between atoms: C_9  and  N_10 
REMARK       I    between atoms: N_10  and  C_11 
REMARK    4  A    between atoms: C_11  and  C_12 
REMARK    5  A    between atoms: C_12  and  C_13 
REMARK    6  A    between atoms: C_13  and  N_14 
REMARK       I    between atoms: N_14  and  C_15 
REMARK    7  A    between atoms: C_15  and  C_16 
ROOT
HETATM    1  N   UNL     1     -42.796  59.441 -52.147  1.00  0.00    -0.327 N 
HETATM    2  C   UNL     1     -42.086  60.121 -53.119  1.00  0.00     0.223 C 
HETATM    3  O   UNL     1     -41.007  59.790 -53.600  1.00  0.00    -0.273 OA
HETATM    4  H   UNL     1     -43.657  59.868 -51.825  1.00  0.00     0.169 HD
ENDROOT
BRANCH   1   5
HETATM    5  C   UNL     1     -42.487  58.187 -51.576  1.00  0.00     0.034 A 
HETATM    6  C   UNL     1     -41.268  57.880 -50.968  1.00  0.00     0.032 A 
HETATM    7  C   UNL     1     -41.024  56.594 -50.465  1.00  0.00     0.039 A 
HETATM    8  C   UNL     1     -42.011  55.613 -50.545  1.00  0.00     0.076 A 
HETATM    9  C   UNL     1     -43.229  55.910 -51.155  1.00  0.00     0.039 A 
HETATM   10  C   UNL     1     -43.468  57.190 -51.663  1.00  0.00     0.032 A 
BRANCH   8  11
HETATM   11  O   UNL     1     -41.843  54.308 -50.140  1.00  0.00    -0.311 OA
BRANCH  11  12
HETATM   12  C   UNL     1     -41.186  53.435 -50.973  1.00  0.00     0.076 A 
HETATM   13  C   UNL     1     -41.134  53.606 -52.359  1.00  0.00     0.044 A 
HETATM   14  C   UNL     1     -40.401  52.712 -53.152  1.00  0.00    -0.059 A 
HETATM   15  C   UNL     1     -40.325  52.906 -54.638  1.00  0.00     0.048 C 
HETATM   16  C   UNL     1     -39.686  51.678 -52.533  1.00  0.00     0.007 A 
HETATM   17  C   UNL     1     -39.720  51.526 -51.145  1.00  0.00     0.003 A 
HETATM   18  C   UNL     1     -40.466  52.406 -50.366  1.00  0.00     0.037 A 
ENDBRANCH  11  12
ENDBRANCH   8  11
ENDBRANCH   1   5
BRANCH   2  19
HETATM   19  C   UNL     1     -42.777  61.388 -53.581  1.00  0.00     0.123 C 
BRANCH  19  20
HETATM   20  C   UNL     1     -43.594  61.073 -54.828  1.00  0.00     0.132 C 
BRANCH  20  21
HETATM   21  N   UNL     1     -43.251  59.799 -55.425  1.00  0.00    -0.355 N 
HETATM   22  C   UNL     1     -44.128  58.733 -55.453  1.00  0.00     0.275 C 
HETATM   23  O   UNL     1     -45.307  58.844 -55.131  1.00  0.00    -0.265 OA
HETATM   24  H   UNL     1     -42.280  59.593 -55.636  1.00  0.00     0.162 HD
BRANCH  22  25
HETATM   25  C   UNL     1     -43.524  57.487 -55.880  1.00  0.00     0.142 A 
HETATM   26  O   UNL     1     -43.736  57.038 -57.160  1.00  0.00    -0.317 OA
HETATM   27  C   UNL     1     -43.044  55.877 -57.296  1.00  0.00     0.143 A 
HETATM   28  C   UNL     1     -42.389  55.564 -56.129  1.00  0.00     0.027 A 
HETATM   29  C   UNL     1     -42.698  56.599 -55.215  1.00  0.00     0.045 A 
ENDBRANCH  22  25
ENDBRANCH  20  21
ENDBRANCH  19  20
ENDBRANCH   2  19
TORSDOF 7
ENDMDL
MODEL 9
REMARK VINA RESULT:      -7.3     14.910     19.431
REMARK  7 active torsions:
REMARK  status: ('A' for Active; 'I' for Inactive)
REMARK    1  A    between atoms: C_4  and  O_5 
REMARK    2  A    between atoms: O_5  and  C_6 
REMARK    3  A    between atoms: C_9  and  N_10 
REMARK       I    between atoms: N_10  and  C_11 
REMARK    4  A    between atoms: C_11  and  C_12 
REMARK    5  A    between atoms: C_12  and  C_13 
REMARK    6  A    between atoms: C_13  and  N_14 
REMARK       I    between atoms: N_14  and  C_15 
REMARK    7  A    between atoms: C_15  and  C_16 
ROOT
HETATM    1  N   UNL     1     -33.756  40.254 -51.925  1.00  0.00    -0.327 N 
HETATM    2  C   UNL     1     -32.399  40.304 -52.187  1.00  0.00     0.223 C 
HETATM    3  O   UNL     1     -31.873  40.568 -53.264  1.00  0.00    -0.273 OA
HETATM    4  H   UNL     1     -34.032  39.980 -50.990  1.00  0.00     0.169 HD
ENDROOT
BRANCH   1   5
HETATM    5  C   UNL     1     -34.813  40.588 -52.799  1.00  0.00     0.034 A 
HETATM    6  C   UNL     1     -35.452  41.829 -52.821  1.00  0.00     0.032 A 
HETATM    7  C   UNL     1     -36.526  42.065 -53.691  1.00  0.00     0.039 A 
HETATM    8  C   UNL     1     -36.953  41.065 -54.563  1.00  0.00     0.076 A 
HETATM    9  C   UNL     1     -36.323  39.821 -54.544  1.00  0.00     0.039 A 
HETATM   10  C   UNL     1     -35.257  39.585 -53.671  1.00  0.00     0.032 A 
BRANCH   8  11
HETATM   11  O   UNL     1     -38.036  41.179 -55.405  1.00  0.00    -0.311 OA
BRANCH  11  12
HETATM   12  C   UNL     1     -37.835  41.075 -56.760  1.00  0.00     0.076 A 
HETATM   13  C   UNL     1     -38.358  40.029 -57.526  1.00  0.00     0.044 A 
HETATM   14  C   UNL     1     -38.166  40.008 -58.914  1.00  0.00    -0.059 A 
HETATM   15  C   UNL     1     -38.745  38.898 -59.740  1.00  0.00     0.048 C 
HETATM   16  C   UNL     1     -37.487  41.070 -59.526  1.00  0.00     0.007 A 
HETATM   17  C   UNL     1     -36.988  42.126 -58.762  1.00  0.00     0.003 A 
HETATM   18  C   UNL     1     -37.165  42.131 -57.380  1.00  0.00     0.037 A 
ENDBRANCH  11  12
ENDBRANCH   8  11
ENDBRANCH   1   5
BRANCH   2  19
HETATM   19  C   UNL     1     -31.548  39.987 -50.974  1.00  0.00     0.123 C 
BRANCH  19  20
HETATM   20  C   UNL     1     -32.446  39.945 -49.744  1.00  0.00     0.132 C 
BRANCH  20  21
HETATM   21  N   UNL     1     -31.734  40.205 -48.510  1.00  0.00    -0.355 N 
HETATM   22  C   UNL     1     -31.301  39.195 -47.676  1.00  0.00     0.275 C 
HETATM   23  O   UNL     1     -31.337  38.012 -48.004  1.00  0.00    -0.265 OA
HETATM   24  H   UNL     1     -31.736  41.143 -48.122  1.00  0.00     0.162 HD
BRANCH  22  25
HETATM   25  C   UNL     1     -30.821  39.659 -46.390  1.00  0.00     0.142 A 
HETATM   26  O   UNL     1     -31.236  39.023 -45.246  1.00  0.00    -0.317 OA
HETATM   27  C   UNL     1     -30.623  39.639 -44.202  1.00  0.00     0.143 A 
HETATM   28  C   UNL     1     -29.821  40.664 -44.647  1.00  0.00     0.027 A 
HETATM   29  C   UNL     1     -29.949  40.678 -46.057  1.00  0.00     0.045 A 
ENDBRANCH  22  25
ENDBRANCH  20  21
ENDBRANCH  19  20
ENDBRANCH   2  19
TORSDOF 7
ENDMDL
MODEL 10
REMARK VINA RESULT:      -7.3      4.730      7.835
REMARK  7 active torsions:
REMARK  status: ('A' for Active; 'I' for Inactive)
REMARK    1  A    between atoms: C_4  and  O_5 
REMARK    2  A    between atoms: O_5  and  C_6 
REMARK    3  A    between atoms: C_9  and  N_10 
REMARK       I    between atoms: N_10  and  C_11 
REMARK    4  A    between atoms: C_11  and  C_12 
REMARK    5  A    between atoms: C_12  and  C_13 
REMARK    6  A    between atoms: C_13  and  N_14 
REMARK       I    between atoms: N_14  and  C_15 
REMARK    7  A    between atoms: C_15  and  C_16 
ROOT
HETATM    1  N   UNL     1     -44.619  58.402 -52.639  1.00  0.00    -0.327 N 
HETATM    2  C   UNL     1     -45.288  58.420 -51.429  1.00  0.00     0.223 C 
HETATM    3  O   UNL     1     -45.149  57.624 -50.506  1.00  0.00    -0.273 OA
HETATM    4  H   UNL     1     -44.878  59.109 -53.316  1.00  0.00     0.169 HD
ENDROOT
BRANCH   1   5
HETATM    5  C   UNL     1     -43.575  57.536 -53.031  1.00  0.00     0.034 A 
HETATM    6  C   UNL     1     -42.218  57.803 -52.834  1.00  0.00     0.032 A 
HETATM    7  C   UNL     1     -41.240  56.910 -53.295  1.00  0.00     0.039 A 
HETATM    8  C   UNL     1     -41.616  55.730 -53.935  1.00  0.00     0.076 A 
HETATM    9  C   UNL     1     -42.968  55.459 -54.140  1.00  0.00     0.039 A 
HETATM   10  C   UNL     1     -43.942  56.354 -53.686  1.00  0.00     0.032 A 
BRANCH   8  11
HETATM   11  O   UNL     1     -40.732  54.826 -54.478  1.00  0.00    -0.311 OA
BRANCH  11  12
HETATM   12  C   UNL     1     -40.475  53.660 -53.798  1.00  0.00     0.076 A 
HETATM   13  C   UNL     1     -40.249  52.441 -54.443  1.00  0.00     0.044 A 
HETATM   14  C   UNL     1     -39.936  51.297 -53.697  1.00  0.00    -0.059 A 
HETATM   15  C   UNL     1     -39.672  49.992 -54.388  1.00  0.00     0.048 C 
HETATM   16  C   UNL     1     -39.807  51.403 -52.305  1.00  0.00     0.007 A 
HETATM   17  C   UNL     1     -40.007  52.628 -51.667  1.00  0.00     0.003 A 
HETATM   18  C   UNL     1     -40.337  53.757 -52.413  1.00  0.00     0.037 A 
ENDBRANCH  11  12
ENDBRANCH   8  11
ENDBRANCH   1   5
BRANCH   2  19
HETATM   19  C   UNL     1     -46.274  59.566 -51.313  1.00  0.00     0.123 C 
BRANCH  19  20
HETATM   20  C   UNL     1     -45.532  60.799 -50.811  1.00  0.00     0.132 C 
BRANCH  20  21
HETATM   21  N   UNL     1     -45.427  60.851 -49.368  1.00  0.00    -0.355 N 
HETATM   22  C   UNL     1     -45.916  61.908 -48.627  1.00  0.00     0.275 C 
HETATM   23  O   UNL     1     -46.621  62.785 -49.119  1.00  0.00    -0.265 OA
HETATM   24  H   UNL     1     -44.792  60.219 -48.891  1.00  0.00     0.162 HD
BRANCH  22  25
HETATM   25  C   UNL     1     -45.511  61.887 -47.236  1.00  0.00     0.142 A 
HETATM   26  O   UNL     1     -45.034  60.722 -46.689  1.00  0.00    -0.317 OA
HETATM   27  C   UNL     1     -44.710  60.989 -45.397  1.00  0.00     0.143 A 
HETATM   28  C   UNL     1     -44.971  62.304 -45.095  1.00  0.00     0.027 A 
HETATM   29  C   UNL     1     -45.488  62.884 -46.278  1.00  0.00     0.045 A 
ENDBRANCH  22  25
ENDBRANCH  20  21
ENDBRANCH  19  20
ENDBRANCH   2  19
TORSDOF 7
ENDMDL
