MODEL 1
REMARK VINA RESULT:      -8.8      0.000      0.000
REMARK  5 active torsions:
REMARK  status: ('A' for Active; 'I' for Inactive)
REMARK    1  A    between atoms: C_10  and  C_11 
REMARK    2  A    between atoms: C_13  and  O_14 
REMARK    3  A    between atoms: C_16  and  O_17 
REMARK    4  A    between atoms: O_17  and  C_18 
REMARK    5  A    between atoms: C_18  and  C_19 
ROOT
HETATM    1  C   UNL     1     -43.088  55.709 -56.518  1.00  0.00    -0.013 A 
HETATM    2  C   UNL     1     -43.255  55.471 -57.898  1.00  0.00     0.050 A 
HETATM    3  C   UNL     1     -42.946  56.455 -58.841  1.00  0.00     0.102 A 
HETATM    4  C   UNL     1     -42.455  57.689 -58.392  1.00  0.00     0.112 A 
HETATM    5  C   UNL     1     -42.327  57.961 -57.031  1.00  0.00     0.041 A 
HETATM    6  C   UNL     1     -42.634  56.969 -56.098  1.00  0.00     0.014 A 
ENDROOT
BRANCH   1   7
HETATM    7  C   UNL     1     -43.400  54.631 -55.499  1.00  0.00     0.219 A 
HETATM    8  N   UNL     1     -43.708  55.231 -54.220  1.00  0.00    -0.358 N 
HETATM    9  C   UNL     1     -42.987  54.962 -53.120  1.00  0.00     0.088 A 
HETATM   10  H   UNL     1     -44.416  55.961 -54.232  1.00  0.00     0.162 HD
HETATM   11  C   UNL     1     -41.947  54.065 -53.095  1.00  0.00     0.073 A 
HETATM   12  S   UNL     1     -43.253  55.699 -51.610  1.00  0.00    -0.074 SA
HETATM   13  C   UNL     1     -41.355  53.973 -51.794  1.00  0.00    -0.023 A 
HETATM   14  C   UNL     1     -41.593  53.362 -54.310  1.00  0.00     0.256 A 
HETATM   15  C   UNL     1     -41.993  54.808 -50.894  1.00  0.00     0.018 A 
HETATM   16  C   UNL     1     -40.217  53.090 -51.376  1.00  0.00     0.068 C 
HETATM   17  C   UNL     1     -41.629  54.958 -49.459  1.00  0.00     0.281 C 
HETATM   18  N   UNL     1     -40.751  53.794 -49.014  1.00  0.00    -0.070 N 
HETATM   19  C   UNL     1     -40.238  53.981 -47.620  1.00  0.00     0.270 C 
HETATM   20  H   UNL     1     -41.362  52.967 -49.012  1.00  0.00     0.279 HD
HETATM   21  C   UNL     1     -39.634  53.516 -50.016  1.00  0.00     0.239 C 
HETATM   22  N   UNL     1     -42.322  53.679 -55.417  1.00  0.00    -0.332 N 
HETATM   23  O   UNL     1     -40.688  52.534 -54.351  1.00  0.00    -0.267 OA
HETATM   24  H   UNL     1     -42.056  53.195 -56.262  1.00  0.00     0.165 HD
ENDBRANCH   1   7
BRANCH   3  25
HETATM   25  O   UNL     1     -43.073  56.314 -60.197  1.00  0.00    -0.353 OA
HETATM   26  C   UNL     1     -44.382  56.144 -60.721  1.00  0.00     0.210 C 
ENDBRANCH   3  25
BRANCH   4  27
HETATM   27  O   UNL     1     -42.150  58.643 -59.390  1.00  0.00    -0.272 OA
BRANCH  27  28
HETATM   28  C   UNL     1     -42.830  59.843 -59.454  1.00  0.00     0.300 C 
HETATM   29  O   UNL     1     -44.030  60.051 -59.445  1.00  0.00    -0.259 OA
BRANCH  28  30
HETATM   30  C   UNL     1     -41.825  60.904 -59.612  1.00  0.00     0.061 A 
HETATM   31  C   UNL     1     -41.516  61.435 -60.870  1.00  0.00     0.051 A 
HETATM   32 CL   UNL     1     -42.267  60.877 -62.322  1.00  0.00    -0.083 Cl
HETATM   33  C   UNL     1     -40.544  62.432 -60.980  1.00  0.00     0.048 A 
HETATM   34  C   UNL     1     -39.883  62.883 -59.837  1.00  0.00     0.035 A 
HETATM   35 CL   UNL     1     -38.684  64.109 -59.978  1.00  0.00    -0.084 Cl
HETATM   36  C   UNL     1     -40.177  62.344 -58.584  1.00  0.00     0.025 A 
HETATM   37  C   UNL     1     -41.147  61.346 -58.469  1.00  0.00     0.021 A 
ENDBRANCH  28  30
ENDBRANCH  27  28
ENDBRANCH   4  27
TORSDOF 5
ENDMDL
MODEL 2
REMARK VINA RESULT:      -8.7      5.399     10.350
REMARK  5 active torsions:
REMARK  status: ('A' for Active; 'I' for Inactive)
REMARK    1  A    between atoms: C_10  and  C_11 
REMARK    2  A    between atoms: C_13  and  O_14 
REMARK    3  A    between atoms: C_16  and  O_17 
REMARK    4  A    between atoms: O_17  and  C_18 
REMARK    5  A    between atoms: C_18  and  C_19 
ROOT
HETATM    1  C   UNL     1     -42.973  56.296 -56.907  1.00  0.00    -0.013 A 
HETATM    2  C   UNL     1     -43.371  57.155 -55.862  1.00  0.00     0.050 A 
HETATM    3  C   UNL     1     -43.282  56.754 -54.527  1.00  0.00     0.102 A 
HETATM    4  C   UNL     1     -42.778  55.477 -54.238  1.00  0.00     0.112 A 
HETATM    5  C   UNL     1     -42.422  54.596 -55.257  1.00  0.00     0.041 A 
HETATM    6  C   UNL     1     -42.511  55.010 -56.587  1.00  0.00     0.014 A 
ENDROOT
BRANCH   1   7
HETATM    7  C   UNL     1     -43.047  56.744 -58.354  1.00  0.00     0.219 A 
HETATM    8  N   UNL     1     -43.836  57.951 -58.459  1.00  0.00    -0.358 N 
HETATM    9  C   UNL     1     -44.951  58.004 -59.206  1.00  0.00     0.088 A 
HETATM   10  H   UNL     1     -43.570  58.711 -57.837  1.00  0.00     0.162 HD
HETATM   11  C   UNL     1     -45.403  56.957 -59.970  1.00  0.00     0.073 A 
HETATM   12  S   UNL     1     -45.960  59.371 -59.304  1.00  0.00    -0.074 SA
HETATM   13  C   UNL     1     -46.611  57.287 -60.664  1.00  0.00    -0.023 A 
HETATM   14  C   UNL     1     -44.652  55.718 -59.984  1.00  0.00     0.256 A 
HETATM   15  C   UNL     1     -47.006  58.585 -60.391  1.00  0.00     0.018 A 
HETATM   16  C   UNL     1     -47.386  56.411 -61.603  1.00  0.00     0.068 C 
HETATM   17  C   UNL     1     -48.219  59.245 -60.946  1.00  0.00     0.281 C 
HETATM   18  N   UNL     1     -48.736  58.470 -62.151  1.00  0.00    -0.070 N 
HETATM   19  C   UNL     1     -50.039  59.013 -62.649  1.00  0.00     0.270 C 
HETATM   20  H   UNL     1     -48.038  58.609 -62.894  1.00  0.00     0.279 HD
HETATM   21  C   UNL     1     -48.795  56.970 -61.873  1.00  0.00     0.239 C 
HETATM   22  N   UNL     1     -43.544  55.684 -59.192  1.00  0.00    -0.332 N 
HETATM   23  O   UNL     1     -44.991  54.752 -60.659  1.00  0.00    -0.267 OA
HETATM   24  H   UNL     1     -43.038  54.810 -59.196  1.00  0.00     0.165 HD
ENDBRANCH   1   7
BRANCH   3  25
HETATM   25  O   UNL     1     -43.642  57.518 -53.449  1.00  0.00    -0.353 OA
HETATM   26  C   UNL     1     -43.093  58.824 -53.354  1.00  0.00     0.210 C 
ENDBRANCH   3  25
BRANCH   4  27
HETATM   27  O   UNL     1     -42.700  55.128 -52.870  1.00  0.00    -0.272 OA
BRANCH  27  28
HETATM   28  C   UNL     1     -41.536  55.325 -52.154  1.00  0.00     0.300 C 
HETATM   29  O   UNL     1     -40.979  56.368 -51.860  1.00  0.00    -0.259 OA
BRANCH  28  30
HETATM   30  C   UNL     1     -40.994  53.998 -51.833  1.00  0.00     0.061 A 
HETATM   31  C   UNL     1     -40.965  53.519 -50.518  1.00  0.00     0.051 A 
HETATM   32 CL   UNL     1     -41.539  54.449 -49.180  1.00  0.00    -0.083 Cl
HETATM   33  C   UNL     1     -40.426  52.258 -50.253  1.00  0.00     0.048 A 
HETATM   34  C   UNL     1     -39.915  51.490 -51.298  1.00  0.00     0.035 A 
HETATM   35 CL   UNL     1     -39.250  49.939 -50.966  1.00  0.00    -0.084 Cl
HETATM   36  C   UNL     1     -39.927  51.971 -52.608  1.00  0.00     0.025 A 
HETATM   37  C   UNL     1     -40.462  53.233 -52.879  1.00  0.00     0.021 A 
ENDBRANCH  28  30
ENDBRANCH  27  28
ENDBRANCH   4  27
TORSDOF 5
ENDMDL
MODEL 3
REMARK VINA RESULT:      -8.7      5.104      9.985
REMARK  5 active torsions:
REMARK  status: ('A' for Active; 'I' for Inactive)
REMARK    1  A    between atoms: C_10  and  C_11 
REMARK    2  A    between atoms: C_13  and  O_14 
REMARK    3  A    between atoms: C_16  and  O_17 
REMARK    4  A    between atoms: O_17  and  C_18 
REMARK    5  A    between atoms: C_18  and  C_19 
ROOT
HETATM    1  C   UNL     1     -42.769  57.355 -55.576  1.00  0.00    -0.013 A 
HETATM    2  C   UNL     1     -41.677  57.580 -54.713  1.00  0.00     0.050 A 
HETATM    3  C   UNL     1     -41.794  57.381 -53.335  1.00  0.00     0.102 A 
HETATM    4  C   UNL     1     -43.021  56.940 -52.819  1.00  0.00     0.112 A 
HETATM    5  C   UNL     1     -44.126  56.754 -53.649  1.00  0.00     0.041 A 
HETATM    6  C   UNL     1     -43.996  56.953 -55.024  1.00  0.00     0.014 A 
ENDROOT
BRANCH   1   7
HETATM    7  C   UNL     1     -42.631  57.548 -57.074  1.00  0.00     0.219 A 
HETATM    8  N   UNL     1     -43.508  58.606 -57.520  1.00  0.00    -0.358 N 
HETATM    9  C   UNL     1     -44.473  58.389 -58.429  1.00  0.00     0.088 A 
HETATM   10  H   UNL     1     -43.437  59.485 -57.013  1.00  0.00     0.162 HD
HETATM   11  C   UNL     1     -44.672  57.181 -59.050  1.00  0.00     0.073 A 
HETATM   12  S   UNL     1     -45.584  59.575 -58.932  1.00  0.00    -0.074 SA
HETATM   13  C   UNL     1     -45.766  57.231 -59.973  1.00  0.00    -0.023 A 
HETATM   14  C   UNL     1     -43.808  56.066 -58.719  1.00  0.00     0.256 A 
HETATM   15  C   UNL     1     -46.334  58.492 -60.007  1.00  0.00     0.018 A 
HETATM   16  C   UNL     1     -46.267  56.119 -60.846  1.00  0.00     0.068 C 
HETATM   17  C   UNL     1     -47.491  58.887 -60.856  1.00  0.00     0.281 C 
HETATM   18  N   UNL     1     -47.703  57.864 -61.966  1.00  0.00    -0.070 N 
HETATM   19  C   UNL     1     -48.946  58.141 -62.752  1.00  0.00     0.270 C 
HETATM   20  H   UNL     1     -46.903  57.971 -62.603  1.00  0.00     0.279 HD
HETATM   21  C   UNL     1     -47.656  56.435 -61.431  1.00  0.00     0.239 C 
HETATM   22  N   UNL     1     -42.860  56.308 -57.771  1.00  0.00    -0.332 N 
HETATM   23  O   UNL     1     -43.920  54.967 -59.251  1.00  0.00    -0.267 OA
HETATM   24  H   UNL     1     -42.274  55.520 -57.536  1.00  0.00     0.165 HD
ENDBRANCH   1   7
BRANCH   3  25
HETATM   25  O   UNL     1     -40.791  57.572 -52.423  1.00  0.00    -0.353 OA
HETATM   26  C   UNL     1     -40.231  58.873 -52.323  1.00  0.00     0.210 C 
ENDBRANCH   3  25
BRANCH   4  27
HETATM   27  O   UNL     1     -43.080  56.744 -51.420  1.00  0.00    -0.272 OA
BRANCH  27  28
HETATM   28  C   UNL     1     -43.467  55.529 -50.891  1.00  0.00     0.300 C 
HETATM   29  O   UNL     1     -44.468  55.247 -50.256  1.00  0.00    -0.259 OA
BRANCH  28  30
HETATM   30  C   UNL     1     -42.388  54.571 -51.168  1.00  0.00     0.061 A 
HETATM   31  C   UNL     1     -41.348  54.359 -50.255  1.00  0.00     0.051 A 
HETATM   32 CL   UNL     1     -41.241  55.212 -48.757  1.00  0.00    -0.083 Cl
HETATM   33  C   UNL     1     -40.332  53.451 -50.563  1.00  0.00     0.048 A 
HETATM   34  C   UNL     1     -40.358  52.770 -51.780  1.00  0.00     0.035 A 
HETATM   35 CL   UNL     1     -39.103  51.655 -52.156  1.00  0.00    -0.084 Cl
HETATM   36  C   UNL     1     -41.384  52.992 -52.699  1.00  0.00     0.025 A 
HETATM   37  C   UNL     1     -42.401  53.900 -52.397  1.00  0.00     0.021 A 
ENDBRANCH  28  30
ENDBRANCH  27  28
ENDBRANCH   4  27
TORSDOF 5
ENDMDL
MODEL 4
REMARK VINA RESULT:      -8.5      4.893      9.445
REMARK  5 active torsions:
REMARK  status: ('A' for Active; 'I' for Inactive)
REMARK    1  A    between atoms: C_10  and  C_11 
REMARK    2  A    between atoms: C_13  and  O_14 
REMARK    3  A    between atoms: C_16  and  O_17 
REMARK    4  A    between atoms: O_17  and  C_18 
REMARK    5  A    between atoms: C_18  and  C_19 
ROOT
HETATM    1  C   UNL     1     -43.158  56.066 -56.184  1.00  0.00    -0.013 A 
HETATM    2  C   UNL     1     -42.462  55.035 -55.521  1.00  0.00     0.050 A 
HETATM    3  C   UNL     1     -42.609  54.835 -54.146  1.00  0.00     0.102 A 
HETATM    4  C   UNL     1     -43.473  55.677 -53.431  1.00  0.00     0.112 A 
HETATM    5  C   UNL     1     -44.135  56.730 -54.058  1.00  0.00     0.041 A 
HETATM    6  C   UNL     1     -43.984  56.917 -55.434  1.00  0.00     0.014 A 
ENDROOT
BRANCH   1   7
HETATM    7  C   UNL     1     -43.017  56.264 -57.681  1.00  0.00     0.219 A 
HETATM    8  N   UNL     1     -43.536  57.558 -58.062  1.00  0.00    -0.358 N 
HETATM    9  C   UNL     1     -44.550  57.684 -58.934  1.00  0.00     0.088 A 
HETATM   10  H   UNL     1     -43.179  58.352 -57.536  1.00  0.00     0.162 HD
HETATM   11  C   UNL     1     -45.136  56.621 -59.577  1.00  0.00     0.073 A 
HETATM   12  S   UNL     1     -45.254  59.174 -59.357  1.00  0.00    -0.074 SA
HETATM   13  C   UNL     1     -46.189  57.042 -60.449  1.00  0.00    -0.023 A 
HETATM   14  C   UNL     1     -44.649  55.283 -59.312  1.00  0.00     0.256 A 
HETATM   15  C   UNL     1     -46.339  58.417 -60.426  1.00  0.00     0.018 A 
HETATM   16  C   UNL     1     -47.040  56.174 -61.329  1.00  0.00     0.068 C 
HETATM   17  C   UNL     1     -47.343  59.183 -61.214  1.00  0.00     0.281 C 
HETATM   18  N   UNL     1     -47.900  58.319 -62.339  1.00  0.00    -0.070 N 
HETATM   19  C   UNL     1     -49.021  58.996 -63.064  1.00  0.00     0.270 C 
HETATM   20  H   UNL     1     -47.127  58.197 -63.007  1.00  0.00     0.279 HD
HETATM   21  C   UNL     1     -48.280  56.926 -61.844  1.00  0.00     0.239 C 
HETATM   22  N   UNL     1     -43.642  55.183 -58.400  1.00  0.00    -0.332 N 
HETATM   23  O   UNL     1     -45.115  54.292 -59.867  1.00  0.00    -0.267 OA
HETATM   24  H   UNL     1     -43.322  54.245 -58.211  1.00  0.00     0.165 HD
ENDBRANCH   1   7
BRANCH   3  25
HETATM   25  O   UNL     1     -41.977  53.862 -53.419  1.00  0.00    -0.353 OA
HETATM   26  C   UNL     1     -40.594  54.038 -53.145  1.00  0.00     0.210 C 
ENDBRANCH   3  25
BRANCH   4  27
HETATM   27  O   UNL     1     -43.591  55.423 -52.045  1.00  0.00    -0.272 OA
BRANCH  27  28
HETATM   28  C   UNL     1     -43.869  56.445 -51.159  1.00  0.00     0.300 C 
HETATM   29  O   UNL     1     -44.924  56.738 -50.626  1.00  0.00    -0.259 OA
BRANCH  28  30
HETATM   30  C   UNL     1     -42.634  57.224 -50.994  1.00  0.00     0.061 A 
HETATM   31  C   UNL     1     -41.507  56.682 -50.367  1.00  0.00     0.051 A 
HETATM   32 CL   UNL     1     -41.484  55.078 -49.725  1.00  0.00    -0.083 Cl
HETATM   33  C   UNL     1     -40.357  57.461 -50.215  1.00  0.00     0.048 A 
HETATM   34  C   UNL     1     -40.346  58.775 -50.682  1.00  0.00     0.035 A 
HETATM   35 CL   UNL     1     -38.929  59.732 -50.491  1.00  0.00    -0.084 Cl
HETATM   36  C   UNL     1     -41.474  59.325 -51.293  1.00  0.00     0.025 A 
HETATM   37  C   UNL     1     -42.626  58.551 -51.445  1.00  0.00     0.021 A 
ENDBRANCH  28  30
ENDBRANCH  27  28
ENDBRANCH   4  27
TORSDOF 5
ENDMDL
MODEL 5
REMARK VINA RESULT:      -8.3      5.070     10.441
REMARK  5 active torsions:
REMARK  status: ('A' for Active; 'I' for Inactive)
REMARK    1  A    between atoms: C_10  and  C_11 
REMARK    2  A    between atoms: C_13  and  O_14 
REMARK    3  A    between atoms: C_16  and  O_17 
REMARK    4  A    between atoms: O_17  and  C_18 
REMARK    5  A    between atoms: C_18  and  C_19 
ROOT
HETATM    1  C   UNL     1     -42.315  59.284 -54.910  1.00  0.00    -0.013 A 
HETATM    2  C   UNL     1     -41.575  59.435 -53.719  1.00  0.00     0.050 A 
HETATM    3  C   UNL     1     -41.106  58.322 -53.017  1.00  0.00     0.102 A 
HETATM    4  C   UNL     1     -41.375  57.042 -53.523  1.00  0.00     0.112 A 
HETATM    5  C   UNL     1     -42.143  56.869 -54.673  1.00  0.00     0.041 A 
HETATM    6  C   UNL     1     -42.603  57.989 -55.369  1.00  0.00     0.014 A 
ENDROOT
BRANCH   1   7
HETATM    7  C   UNL     1     -42.801  60.494 -55.683  1.00  0.00     0.219 A 
HETATM    8  N   UNL     1     -43.866  60.113 -56.583  1.00  0.00    -0.358 N 
HETATM    9  C   UNL     1     -43.766  60.285 -57.911  1.00  0.00     0.088 A 
HETATM   10  H   UNL     1     -44.634  59.593 -56.166  1.00  0.00     0.162 HD
HETATM   11  C   UNL     1     -42.689  60.881 -58.520  1.00  0.00     0.073 A 
HETATM   12  S   UNL     1     -44.952  59.783 -59.023  1.00  0.00    -0.074 SA
HETATM   13  C   UNL     1     -42.845  60.935 -59.942  1.00  0.00    -0.023 A 
HETATM   14  C   UNL     1     -41.591  61.355 -57.704  1.00  0.00     0.256 A 
HETATM   15  C   UNL     1     -44.049  60.379 -60.335  1.00  0.00     0.018 A 
HETATM   16  C   UNL     1     -41.891  61.528 -60.937  1.00  0.00     0.068 C 
HETATM   17  C   UNL     1     -44.524  60.272 -61.742  1.00  0.00     0.281 C 
HETATM   18  N   UNL     1     -43.722  61.204 -62.641  1.00  0.00    -0.070 N 
HETATM   19  C   UNL     1     -44.064  61.019 -64.087  1.00  0.00     0.270 C 
HETATM   20  H   UNL     1     -44.001  62.158 -62.376  1.00  0.00     0.279 HD
HETATM   21  C   UNL     1     -42.223  61.091 -62.375  1.00  0.00     0.239 C 
HETATM   22  N   UNL     1     -41.707  61.139 -56.364  1.00  0.00    -0.332 N 
HETATM   23  O   UNL     1     -40.609  61.914 -58.182  1.00  0.00    -0.267 OA
HETATM   24  H   UNL     1     -40.928  61.458 -55.806  1.00  0.00     0.165 HD
ENDBRANCH   1   7
BRANCH   3  25
HETATM   25  O   UNL     1     -40.380  58.370 -51.857  1.00  0.00    -0.353 OA
HETATM   26  C   UNL     1     -41.042  58.824 -50.685  1.00  0.00     0.210 C 
ENDBRANCH   3  25
BRANCH   4  27
HETATM   27  O   UNL     1     -40.867  55.952 -52.778  1.00  0.00    -0.272 OA
BRANCH  27  28
HETATM   28  C   UNL     1     -41.702  54.942 -52.343  1.00  0.00     0.300 C 
HETATM   29  O   UNL     1     -42.724  55.016 -51.685  1.00  0.00    -0.259 OA
BRANCH  28  30
HETATM   30  C   UNL     1     -41.099  53.670 -52.762  1.00  0.00     0.061 A 
HETATM   31  C   UNL     1     -40.223  52.966 -51.928  1.00  0.00     0.051 A 
HETATM   32 CL   UNL     1     -39.768  53.543 -50.364  1.00  0.00    -0.083 Cl
HETATM   33  C   UNL     1     -39.659  51.768 -52.370  1.00  0.00     0.048 A 
HETATM   34  C   UNL     1     -39.967  51.286 -53.643  1.00  0.00     0.035 A 
HETATM   35 CL   UNL     1     -39.267  49.810 -54.184  1.00  0.00    -0.084 Cl
HETATM   36  C   UNL     1     -40.827  51.993 -54.484  1.00  0.00     0.025 A 
HETATM   37  C   UNL     1     -41.392  53.193 -54.047  1.00  0.00     0.021 A 
ENDBRANCH  28  30
ENDBRANCH  27  28
ENDBRANCH   4  27
TORSDOF 5
ENDMDL
MODEL 6
REMARK VINA RESULT:      -8.1      4.959     10.343
REMARK  5 active torsions:
REMARK  status: ('A' for Active; 'I' for Inactive)
REMARK    1  A    between atoms: C_10  and  C_11 
REMARK    2  A    between atoms: C_13  and  O_14 
REMARK    3  A    between atoms: C_16  and  O_17 
REMARK    4  A    between atoms: O_17  and  C_18 
REMARK    5  A    between atoms: C_18  and  C_19 
ROOT
HETATM    1  C   UNL     1     -43.780  57.268 -56.980  1.00  0.00    -0.013 A 
HETATM    2  C   UNL     1     -43.744  57.524 -55.594  1.00  0.00     0.050 A 
HETATM    3  C   UNL     1     -43.144  56.623 -54.711  1.00  0.00     0.102 A 
HETATM    4  C   UNL     1     -42.565  55.455 -55.228  1.00  0.00     0.112 A 
HETATM    5  C   UNL     1     -42.629  55.162 -56.589  1.00  0.00     0.041 A 
HETATM    6  C   UNL     1     -43.228  56.072 -57.462  1.00  0.00     0.014 A 
ENDROOT
BRANCH   1   7
HETATM    7  C   UNL     1     -44.409  58.261 -57.939  1.00  0.00     0.219 A 
HETATM    8  N   UNL     1     -43.614  58.361 -59.142  1.00  0.00    -0.358 N 
HETATM    9  C   UNL     1     -43.068  59.523 -59.534  1.00  0.00     0.088 A 
HETATM   10  H   UNL     1     -43.386  57.481 -59.598  1.00  0.00     0.162 HD
HETATM   11  C   UNL     1     -43.260  60.713 -58.875  1.00  0.00     0.073 A 
HETATM   12  S   UNL     1     -42.059  59.684 -60.894  1.00  0.00    -0.074 SA
HETATM   13  C   UNL     1     -42.564  61.791 -59.510  1.00  0.00    -0.023 A 
HETATM   14  C   UNL     1     -44.091  60.736 -57.689  1.00  0.00     0.256 A 
HETATM   15  C   UNL     1     -41.883  61.355 -60.633  1.00  0.00     0.018 A 
HETATM   16  C   UNL     1     -42.552  63.232 -59.094  1.00  0.00     0.068 C 
HETATM   17  C   UNL     1     -41.058  62.217 -61.522  1.00  0.00     0.281 C 
HETATM   18  N   UNL     1     -41.385  63.686 -61.283  1.00  0.00    -0.070 N 
HETATM   19  C   UNL     1     -40.473  64.595 -62.047  1.00  0.00     0.270 C 
HETATM   20  H   UNL     1     -42.337  63.824 -61.648  1.00  0.00     0.279 HD
HETATM   21  C   UNL     1     -41.429  64.019 -59.794  1.00  0.00     0.239 C 
HETATM   22  N   UNL     1     -44.605  59.536 -57.298  1.00  0.00    -0.332 N 
HETATM   23  O   UNL     1     -44.319  61.767 -57.066  1.00  0.00    -0.267 OA
HETATM   24  H   UNL     1     -45.169  59.560 -56.461  1.00  0.00     0.165 HD
ENDBRANCH   1   7
BRANCH   3  25
HETATM   25  O   UNL     1     -43.061  56.787 -53.354  1.00  0.00    -0.353 OA
HETATM   26  C   UNL     1     -42.235  57.835 -52.867  1.00  0.00     0.210 C 
ENDBRANCH   3  25
BRANCH   4  27
HETATM   27  O   UNL     1     -41.963  54.585 -54.290  1.00  0.00    -0.272 OA
BRANCH  27  28
HETATM   28  C   UNL     1     -40.599  54.368 -54.300  1.00  0.00     0.300 C 
HETATM   29  O   UNL     1     -39.733  54.929 -54.948  1.00  0.00    -0.259 OA
BRANCH  28  30
HETATM   30  C   UNL     1     -40.333  53.237 -53.401  1.00  0.00     0.061 A 
HETATM   31  C   UNL     1     -40.439  53.368 -52.011  1.00  0.00     0.051 A 
HETATM   32 CL   UNL     1     -40.866  54.859 -51.250  1.00  0.00    -0.083 Cl
HETATM   33  C   UNL     1     -40.162  52.273 -51.190  1.00  0.00     0.048 A 
HETATM   34  C   UNL     1     -39.774  51.061 -51.761  1.00  0.00     0.035 A 
HETATM   35 CL   UNL     1     -39.431  49.715 -50.745  1.00  0.00    -0.084 Cl
HETATM   36  C   UNL     1     -39.651  50.931 -53.144  1.00  0.00     0.025 A 
HETATM   37  C   UNL     1     -39.925  52.024 -53.970  1.00  0.00     0.021 A 
ENDBRANCH  28  30
ENDBRANCH  27  28
ENDBRANCH   4  27
TORSDOF 5
ENDMDL
MODEL 7
REMARK VINA RESULT:      -8.1      4.706     10.014
REMARK  5 active torsions:
REMARK  status: ('A' for Active; 'I' for Inactive)
REMARK    1  A    between atoms: C_10  and  C_11 
REMARK    2  A    between atoms: C_13  and  O_14 
REMARK    3  A    between atoms: C_16  and  O_17 
REMARK    4  A    between atoms: O_17  and  C_18 
REMARK    5  A    between atoms: C_18  and  C_19 
ROOT
HETATM    1  C   UNL     1     -43.887  56.471 -53.183  1.00  0.00    -0.013 A 
HETATM    2  C   UNL     1     -43.151  57.003 -52.104  1.00  0.00     0.050 A 
HETATM    3  C   UNL     1     -42.440  56.170 -51.238  1.00  0.00     0.102 A 
HETATM    4  C   UNL     1     -42.461  54.786 -51.462  1.00  0.00     0.112 A 
HETATM    5  C   UNL     1     -43.219  54.236 -52.495  1.00  0.00     0.041 A 
HETATM    6  C   UNL     1     -43.922  55.078 -53.357  1.00  0.00     0.014 A 
ENDROOT
BRANCH   1   7
HETATM    7  C   UNL     1     -44.638  57.380 -54.137  1.00  0.00     0.219 A 
HETATM    8  N   UNL     1     -44.522  56.882 -55.489  1.00  0.00    -0.358 N 
HETATM    9  C   UNL     1     -43.969  57.616 -56.468  1.00  0.00     0.088 A 
HETATM   10  H   UNL     1     -44.764  55.903 -55.625  1.00  0.00     0.162 HD
HETATM   11  C   UNL     1     -43.524  58.903 -56.293  1.00  0.00     0.073 A 
HETATM   12  S   UNL     1     -43.734  57.053 -58.057  1.00  0.00    -0.074 SA
HETATM   13  C   UNL     1     -42.981  59.448 -57.501  1.00  0.00    -0.023 A 
HETATM   14  C   UNL     1     -43.648  59.521 -54.989  1.00  0.00     0.256 A 
HETATM   15  C   UNL     1     -43.055  58.536 -58.538  1.00  0.00     0.018 A 
HETATM   16  C   UNL     1     -42.421  60.825 -57.703  1.00  0.00     0.068 C 
HETATM   17  C   UNL     1     -42.577  58.778 -59.927  1.00  0.00     0.281 C 
HETATM   18  N   UNL     1     -42.381  60.271 -60.163  1.00  0.00    -0.070 N 
HETATM   19  C   UNL     1     -41.760  60.550 -61.496  1.00  0.00     0.270 C 
HETATM   20  H   UNL     1     -43.325  60.680 -60.169  1.00  0.00     0.279 HD
HETATM   21  C   UNL     1     -41.621  60.928 -59.014  1.00  0.00     0.239 C 
HETATM   22  N   UNL     1     -44.184  58.741 -54.009  1.00  0.00    -0.332 N 
HETATM   23  O   UNL     1     -43.289  60.673 -54.770  1.00  0.00    -0.267 OA
HETATM   24  H   UNL     1     -44.251  59.175 -53.099  1.00  0.00     0.165 HD
ENDBRANCH   1   7
BRANCH   3  25
HETATM   25  O   UNL     1     -41.698  56.595 -50.168  1.00  0.00    -0.353 OA
HETATM   26  C   UNL     1     -40.962  57.801 -50.315  1.00  0.00     0.210 C 
ENDBRANCH   3  25
BRANCH   4  27
HETATM   27  O   UNL     1     -41.715  53.992 -50.561  1.00  0.00    -0.272 OA
BRANCH  27  28
HETATM   28  C   UNL     1     -40.358  53.809 -50.735  1.00  0.00     0.300 C 
HETATM   29  O   UNL     1     -39.427  54.403 -50.221  1.00  0.00    -0.259 OA
BRANCH  28  30
HETATM   30  C   UNL     1     -40.187  52.764 -51.753  1.00  0.00     0.061 A 
HETATM   31  C   UNL     1     -40.113  51.410 -51.406  1.00  0.00     0.051 A 
HETATM   32 CL   UNL     1     -40.192  50.868 -49.767  1.00  0.00    -0.083 Cl
HETATM   33  C   UNL     1     -39.935  50.448 -52.403  1.00  0.00     0.048 A 
HETATM   34  C   UNL     1     -39.825  50.845 -53.735  1.00  0.00     0.035 A 
HETATM   35 CL   UNL     1     -39.604  49.657 -54.960  1.00  0.00    -0.084 Cl
HETATM   36  C   UNL     1     -39.883  52.195 -54.084  1.00  0.00     0.025 A 
HETATM   37  C   UNL     1     -40.058  53.161 -53.091  1.00  0.00     0.021 A 
ENDBRANCH  28  30
ENDBRANCH  27  28
ENDBRANCH   4  27
TORSDOF 5
ENDMDL
MODEL 8
REMARK VINA RESULT:      -7.9      5.160     10.314
REMARK  5 active torsions:
REMARK  status: ('A' for Active; 'I' for Inactive)
REMARK    1  A    between atoms: C_10  and  C_11 
REMARK    2  A    between atoms: C_13  and  O_14 
REMARK    3  A    between atoms: C_16  and  O_17 
REMARK    4  A    between atoms: O_17  and  C_18 
REMARK    5  A    between atoms: C_18  and  C_19 
ROOT
HETATM    1  C   UNL     1     -44.817  57.476 -54.629  1.00  0.00    -0.013 A 
HETATM    2  C   UNL     1     -44.739  58.231 -53.440  1.00  0.00     0.050 A 
HETATM    3  C   UNL     1     -44.085  57.730 -52.312  1.00  0.00     0.102 A 
HETATM    4  C   UNL     1     -43.494  56.461 -52.382  1.00  0.00     0.112 A 
HETATM    5  C   UNL     1     -43.598  55.681 -53.532  1.00  0.00     0.041 A 
HETATM    6  C   UNL     1     -44.251  56.192 -54.655  1.00  0.00     0.014 A 
ENDROOT
BRANCH   1   7
HETATM    7  C   UNL     1     -45.506  58.033 -55.860  1.00  0.00     0.219 A 
HETATM    8  N   UNL     1     -44.816  57.597 -57.054  1.00  0.00    -0.358 N 
HETATM    9  C   UNL     1     -44.281  58.471 -57.921  1.00  0.00     0.088 A 
HETATM   10  H   UNL     1     -44.648  56.597 -57.129  1.00  0.00     0.162 HD
HETATM   11  C   UNL     1     -44.389  59.834 -57.789  1.00  0.00     0.073 A 
HETATM   12  S   UNL     1     -43.391  58.016 -59.298  1.00  0.00    -0.074 SA
HETATM   13  C   UNL     1     -43.728  60.526 -58.853  1.00  0.00    -0.023 A 
HETATM   14  C   UNL     1     -45.114  60.377 -56.658  1.00  0.00     0.256 A 
HETATM   15  C   UNL     1     -43.158  59.639 -59.749  1.00  0.00     0.018 A 
HETATM   16  C   UNL     1     -43.649  62.010 -59.059  1.00  0.00     0.068 C 
HETATM   17  C   UNL     1     -42.394  60.024 -60.967  1.00  0.00     0.281 C 
HETATM   18  N   UNL     1     -42.668  61.481 -61.321  1.00  0.00    -0.070 N 
HETATM   19  C   UNL     1     -41.806  61.954 -62.450  1.00  0.00     0.270 C 
HETATM   20  H   UNL     1     -43.644  61.513 -61.642  1.00  0.00     0.279 HD
HETATM   21  C   UNL     1     -42.574  62.386 -60.095  1.00  0.00     0.239 C 
HETATM   22  N   UNL     1     -45.617  59.467 -55.779  1.00  0.00    -0.332 N 
HETATM   23  O   UNL     1     -45.264  61.584 -56.491  1.00  0.00    -0.267 OA
HETATM   24  H   UNL     1     -46.106  59.857 -54.986  1.00  0.00     0.165 HD
ENDBRANCH   1   7
BRANCH   3  25
HETATM   25  O   UNL     1     -43.957  58.389 -51.118  1.00  0.00    -0.353 OA
HETATM   26  C   UNL     1     -43.374  59.684 -51.140  1.00  0.00     0.210 C 
ENDBRANCH   3  25
BRANCH   4  27
HETATM   27  O   UNL     1     -42.836  56.009 -51.214  1.00  0.00    -0.272 OA
BRANCH  27  28
HETATM   28  C   UNL     1     -41.459  56.051 -51.117  1.00  0.00     0.300 C 
HETATM   29  O   UNL     1     -40.717  57.016 -51.082  1.00  0.00    -0.259 OA
BRANCH  28  30
HETATM   30  C   UNL     1     -40.981  54.661 -51.130  1.00  0.00     0.061 A 
HETATM   31  C   UNL     1     -40.737  53.962 -49.943  1.00  0.00     0.051 A 
HETATM   32 CL   UNL     1     -40.956  54.675 -48.384  1.00  0.00    -0.083 Cl
HETATM   33  C   UNL     1     -40.268  52.647 -49.998  1.00  0.00     0.048 A 
HETATM   34  C   UNL     1     -40.038  52.046 -51.235  1.00  0.00     0.035 A 
HETATM   35 CL   UNL     1     -39.458  50.428 -51.299  1.00  0.00    -0.084 Cl
HETATM   36  C   UNL     1     -40.265  52.746 -52.421  1.00  0.00     0.025 A 
HETATM   37  C   UNL     1     -40.732  54.061 -52.371  1.00  0.00     0.021 A 
ENDBRANCH  28  30
ENDBRANCH  27  28
ENDBRANCH   4  27
TORSDOF 5
ENDMDL
MODEL 9
REMARK VINA RESULT:      -7.9      4.661      9.394
REMARK  5 active torsions:
REMARK  status: ('A' for Active; 'I' for Inactive)
REMARK    1  A    between atoms: C_10  and  C_11 
REMARK    2  A    between atoms: C_13  and  O_14 
REMARK    3  A    between atoms: C_16  and  O_17 
REMARK    4  A    between atoms: O_17  and  C_18 
REMARK    5  A    between atoms: C_18  and  C_19 
ROOT
HETATM    1  C   UNL     1     -43.085  55.978 -56.151  1.00  0.00    -0.013 A 
HETATM    2  C   UNL     1     -42.413  54.957 -55.447  1.00  0.00     0.050 A 
HETATM    3  C   UNL     1     -42.592  54.795 -54.071  1.00  0.00     0.102 A 
HETATM    4  C   UNL     1     -43.463  55.663 -53.396  1.00  0.00     0.112 A 
HETATM    5  C   UNL     1     -44.101  56.706 -54.065  1.00  0.00     0.041 A 
HETATM    6  C   UNL     1     -43.918  56.856 -55.441  1.00  0.00     0.014 A 
ENDROOT
BRANCH   1   7
HETATM    7  C   UNL     1     -42.908  56.136 -57.650  1.00  0.00     0.219 A 
HETATM    8  N   UNL     1     -42.208  57.367 -57.939  1.00  0.00    -0.358 N 
HETATM    9  C   UNL     1     -42.757  58.332 -58.694  1.00  0.00     0.088 A 
HETATM   10  H   UNL     1     -41.337  57.511 -57.435  1.00  0.00     0.162 HD
HETATM   11  C   UNL     1     -43.986  58.217 -59.298  1.00  0.00     0.073 A 
HETATM   12  S   UNL     1     -42.014  59.831 -59.002  1.00  0.00    -0.074 SA
HETATM   13  C   UNL     1     -44.325  59.392 -60.042  1.00  0.00    -0.023 A 
HETATM   14  C   UNL     1     -44.747  56.998 -59.121  1.00  0.00     0.256 A 
HETATM   15  C   UNL     1     -43.319  60.339 -59.968  1.00  0.00     0.018 A 
HETATM   16  C   UNL     1     -45.569  59.628 -60.847  1.00  0.00     0.068 C 
HETATM   17  C   UNL     1     -43.350  61.675 -60.625  1.00  0.00     0.281 C 
HETATM   18  N   UNL     1     -44.423  61.705 -61.706  1.00  0.00    -0.070 N 
HETATM   19  C   UNL     1     -44.592  63.073 -62.289  1.00  0.00     0.270 C 
HETATM   20  H   UNL     1     -44.084  61.088 -62.455  1.00  0.00     0.279 HD
HETATM   21  C   UNL     1     -45.740  61.115 -61.208  1.00  0.00     0.239 C 
HETATM   22  N   UNL     1     -44.178  56.050 -58.325  1.00  0.00    -0.332 N 
HETATM   23  O   UNL     1     -45.841  56.823 -59.648  1.00  0.00    -0.267 OA
HETATM   24  H   UNL     1     -44.724  55.211 -58.195  1.00  0.00     0.165 HD
ENDBRANCH   1   7
BRANCH   3  25
HETATM   25  O   UNL     1     -41.986  53.835 -53.306  1.00  0.00    -0.353 OA
HETATM   26  C   UNL     1     -40.572  53.887 -53.181  1.00  0.00     0.210 C 
ENDBRANCH   3  25
BRANCH   4  27
HETATM   27  O   UNL     1     -43.614  55.446 -52.007  1.00  0.00    -0.272 OA
BRANCH  27  28
HETATM   28  C   UNL     1     -43.895  56.494 -51.154  1.00  0.00     0.300 C 
HETATM   29  O   UNL     1     -44.955  56.810 -50.643  1.00  0.00    -0.259 OA
BRANCH  28  30
HETATM   30  C   UNL     1     -42.656  57.267 -50.992  1.00  0.00     0.061 A 
HETATM   31  C   UNL     1     -41.519  56.708 -50.397  1.00  0.00     0.051 A 
HETATM   32 CL   UNL     1     -41.489  55.091 -49.792  1.00  0.00    -0.083 Cl
HETATM   33  C   UNL     1     -40.366  57.482 -50.248  1.00  0.00     0.048 A 
HETATM   34  C   UNL     1     -40.359  58.806 -50.685  1.00  0.00     0.035 A 
HETATM   35 CL   UNL     1     -38.937  59.756 -50.497  1.00  0.00    -0.084 Cl
HETATM   36  C   UNL     1     -41.496  59.371 -51.265  1.00  0.00     0.025 A 
HETATM   37  C   UNL     1     -42.652  58.603 -51.414  1.00  0.00     0.021 A 
ENDBRANCH  28  30
ENDBRANCH  27  28
ENDBRANCH   4  27
TORSDOF 5
ENDMDL
MODEL 10
REMARK VINA RESULT:      -7.8      5.196      9.490
REMARK  5 active torsions:
REMARK  status: ('A' for Active; 'I' for Inactive)
REMARK    1  A    between atoms: C_10  and  C_11 
REMARK    2  A    between atoms: C_13  and  O_14 
REMARK    3  A    between atoms: C_16  and  O_17 
REMARK    4  A    between atoms: O_17  and  C_18 
REMARK    5  A    between atoms: C_18  and  C_19 
ROOT
HETATM    1  C   UNL     1     -42.313  56.989 -56.171  1.00  0.00    -0.013 A 
HETATM    2  C   UNL     1     -42.160  58.346 -55.821  1.00  0.00     0.050 A 
HETATM    3  C   UNL     1     -41.625  58.714 -54.584  1.00  0.00     0.102 A 
HETATM    4  C   UNL     1     -41.230  57.707 -53.693  1.00  0.00     0.112 A 
HETATM    5  C   UNL     1     -41.414  56.360 -54.001  1.00  0.00     0.041 A 
HETATM    6  C   UNL     1     -41.946  56.004 -55.241  1.00  0.00     0.014 A 
ENDROOT
BRANCH   1   7
HETATM    7  C   UNL     1     -42.870  56.592 -57.525  1.00  0.00     0.219 A 
HETATM    8  N   UNL     1     -42.190  57.319 -58.573  1.00  0.00    -0.358 N 
HETATM    9  C   UNL     1     -42.851  58.130 -59.415  1.00  0.00     0.088 A 
HETATM   10  H   UNL     1     -41.174  57.281 -58.552  1.00  0.00     0.162 HD
HETATM   11  C   UNL     1     -44.215  58.295 -59.397  1.00  0.00     0.073 A 
HETATM   12  S   UNL     1     -42.094  59.070 -60.614  1.00  0.00    -0.074 SA
HETATM   13  C   UNL     1     -44.653  59.214 -60.402  1.00  0.00    -0.023 A 
HETATM   14  C   UNL     1     -45.000  57.565 -58.423  1.00  0.00     0.256 A 
HETATM   15  C   UNL     1     -43.586  59.694 -61.141  1.00  0.00     0.018 A 
HETATM   16  C   UNL     1     -46.064  59.629 -60.699  1.00  0.00     0.068 C 
HETATM   17  C   UNL     1     -43.690  60.668 -62.262  1.00  0.00     0.281 C 
HETATM   18  N   UNL     1     -45.130  60.753 -62.754  1.00  0.00    -0.070 N 
HETATM   19  C   UNL     1     -45.308  61.830 -63.779  1.00  0.00     0.270 C 
HETATM   20  H   UNL     1     -45.323  59.853 -63.213  1.00  0.00     0.279 HD
HETATM   21  C   UNL     1     -46.114  60.880 -61.595  1.00  0.00     0.239 C 
HETATM   22  N   UNL     1     -44.299  56.775 -57.563  1.00  0.00    -0.332 N 
HETATM   23  O   UNL     1     -46.222  57.651 -58.366  1.00  0.00    -0.267 OA
HETATM   24  H   UNL     1     -44.854  56.283 -56.877  1.00  0.00     0.165 HD
ENDBRANCH   1   7
BRANCH   3  25
HETATM   25  O   UNL     1     -41.438  60.002 -54.159  1.00  0.00    -0.353 OA
HETATM   26  C   UNL     1     -42.566  60.866 -54.159  1.00  0.00     0.210 C 
ENDBRANCH   3  25
BRANCH   4  27
HETATM   27  O   UNL     1     -40.685  58.137 -52.460  1.00  0.00    -0.272 OA
BRANCH  27  28
HETATM   28  C   UNL     1     -41.313  57.840 -51.267  1.00  0.00     0.300 C 
HETATM   29  O   UNL     1     -41.159  56.881 -50.532  1.00  0.00    -0.259 OA
BRANCH  28  30
HETATM   30  C   UNL     1     -42.314  58.889 -51.031  1.00  0.00     0.061 A 
HETATM   31  C   UNL     1     -43.674  58.671 -51.278  1.00  0.00     0.051 A 
HETATM   32 CL   UNL     1     -44.275  57.174 -51.896  1.00  0.00    -0.083 Cl
HETATM   33  C   UNL     1     -44.592  59.700 -51.055  1.00  0.00     0.048 A 
HETATM   34  C   UNL     1     -44.144  60.939 -50.595  1.00  0.00     0.035 A 
HETATM   35 CL   UNL     1     -45.278  62.204 -50.324  1.00  0.00    -0.084 Cl
HETATM   36  C   UNL     1     -42.787  61.165 -50.362  1.00  0.00     0.025 A 
HETATM   37  C   UNL     1     -41.865  60.140 -50.586  1.00  0.00     0.021 A 
ENDBRANCH  28  30
ENDBRANCH  27  28
ENDBRANCH   4  27
TORSDOF 5
ENDMDL
