MODEL 1
REMARK VINA RESULT:      -8.5      0.000      0.000
REMARK  8 active torsions:
REMARK  status: ('A' for Active; 'I' for Inactive)
REMARK    1  A    between atoms: C_2  and  C_3 
REMARK    2  A    between atoms: C_3  and  N_4 
REMARK       I    between atoms: N_4  and  C_5 
REMARK    3  A    between atoms: C_5  and  C_6 
REMARK    4  A    between atoms: C_7  and  N_8 
REMARK    5  A    between atoms: N_11  and  C_12 
REMARK    6  A    between atoms: C_13  and  O_14 
REMARK    7  A    between atoms: C_24  and  N_25 
REMARK       I    between atoms: N_25  and  C_26 
REMARK       I    between atoms: C_26  and  N_27 
REMARK    8  A    between atoms: N_27  and  C_28 
ROOT
HETATM    1  C   UNL     1     -43.698  57.232 -56.378  1.00  0.00     0.060 A 
HETATM    2  C   UNL     1     -42.998  56.010 -56.458  1.00  0.00     0.046 A 
HETATM    3  C   UNL     1     -42.947  55.409 -57.724  1.00  0.00     0.032 A 
HETATM    4  C   UNL     1     -43.572  55.974 -58.845  1.00  0.00     0.032 A 
HETATM    5  C   UNL     1     -44.277  57.171 -58.743  1.00  0.00     0.037 A 
HETATM    6  C   UNL     1     -44.337  57.801 -57.500  1.00  0.00     0.049 A 
ENDROOT
BRANCH   2   7
HETATM    7  N   UNL     1     -42.394  55.417 -55.343  1.00  0.00    -0.377 N 
HETATM    8  C   UNL     1     -40.939  55.155 -55.480  1.00  0.00     0.143 C 
HETATM    9  C   UNL     1     -40.314  54.884 -54.091  1.00  0.00     0.143 C 
HETATM   10  N   UNL     1     -41.011  53.798 -53.373  1.00  0.00    -0.376 N 
HETATM   11  C   UNL     1     -42.476  54.007 -53.286  1.00  0.00     0.143 C 
HETATM   12  C   UNL     1     -43.090  54.289 -54.679  1.00  0.00     0.143 C 
BRANCH  10  13
HETATM   13  C   UNL     1     -40.497  52.512 -53.238  1.00  0.00     0.064 A 
HETATM   14  C   UNL     1     -39.853  51.997 -52.088  1.00  0.00     0.094 A 
HETATM   15  C   UNL     1     -39.387  50.668 -52.057  1.00  0.00     0.039 A 
HETATM   16  C   UNL     1     -39.585  49.814 -53.139  1.00  0.00     0.003 A 
HETATM   17  C   UNL     1     -40.235  50.285 -54.268  1.00  0.00     0.002 A 
HETATM   18  C   UNL     1     -40.678  51.611 -54.310  1.00  0.00     0.032 A 
BRANCH  14  19
HETATM   19  O   UNL     1     -39.595  52.845 -51.034  1.00  0.00    -0.354 OA
HETATM   20  C   UNL     1     -40.527  52.757 -49.959  1.00  0.00     0.210 C 
ENDBRANCH  14  19
ENDBRANCH  10  13
ENDBRANCH   2   7
BRANCH   1  21
HETATM   21  C   UNL     1     -43.880  57.958 -55.095  1.00  0.00     0.254 C 
HETATM   22  N   UNL     1     -42.898  58.898 -54.834  1.00  0.00    -0.353 N 
HETATM   23  H   UNL     1     -42.065  58.886 -55.408  1.00  0.00     0.163 HD
HETATM   24  O   UNL     1     -44.849  57.757 -54.376  1.00  0.00    -0.268 OA
BRANCH  22  25
HETATM   25  C   UNL     1     -42.887  59.672 -53.599  1.00  0.00     0.080 C 
HETATM   26  C   UNL     1     -42.738  61.158 -53.914  1.00  0.00     0.032 C 
BRANCH  25  27
HETATM   27  C   UNL     1     -41.821  59.160 -52.614  1.00  0.00     0.020 C 
HETATM   28  C   UNL     1     -40.521  58.702 -53.262  1.00  0.00     0.007 C 
ENDBRANCH  25  27
ENDBRANCH  22  25
ENDBRANCH   1  21
BRANCH   5  29
HETATM   29  N   UNL     1     -44.986  57.748 -59.817  1.00  0.00    -0.309 N 
HETATM   30  C   UNL     1     -46.349  57.636 -60.062  1.00  0.00     0.325 C 
HETATM   31  N   UNL     1     -46.753  58.576 -60.995  1.00  0.00    -0.307 N 
HETATM   32  O   UNL     1     -47.088  56.830 -59.511  1.00  0.00    -0.247 OA
HETATM   33  H   UNL     1     -46.106  59.329 -61.182  1.00  0.00     0.170 HD
HETATM   34  H   UNL     1     -44.439  58.188 -60.542  1.00  0.00     0.170 HD
BRANCH  31  35
HETATM   35  C   UNL     1     -48.064  58.782 -61.494  1.00  0.00     0.053 A 
HETATM   36  C   UNL     1     -48.791  59.902 -61.050  1.00  0.00     0.037 A 
HETATM   37 BR   UNL     1     -48.042  61.142 -59.814  1.00  0.00    -0.049 Br
HETATM   38  C   UNL     1     -50.098  60.133 -61.490  1.00  0.00     0.021 A 
HETATM   39  C   UNL     1     -50.695  59.254 -62.390  1.00  0.00     0.002 A 
HETATM   40  C   UNL     1     -49.981  58.152 -62.854  1.00  0.00     0.002 A 
HETATM   41  C   UNL     1     -48.673  57.921 -62.413  1.00  0.00     0.031 A 
ENDBRANCH  31  35
ENDBRANCH   5  29
TORSDOF 8
ENDMDL
MODEL 2
REMARK VINA RESULT:      -8.3      3.981      7.204
REMARK  8 active torsions:
REMARK  status: ('A' for Active; 'I' for Inactive)
REMARK    1  A    between atoms: C_2  and  C_3 
REMARK    2  A    between atoms: C_3  and  N_4 
REMARK       I    between atoms: N_4  and  C_5 
REMARK    3  A    between atoms: C_5  and  C_6 
REMARK    4  A    between atoms: C_7  and  N_8 
REMARK    5  A    between atoms: N_11  and  C_12 
REMARK    6  A    between atoms: C_13  and  O_14 
REMARK    7  A    between atoms: C_24  and  N_25 
REMARK       I    between atoms: N_25  and  C_26 
REMARK       I    between atoms: C_26  and  N_27 
REMARK    8  A    between atoms: N_27  and  C_28 
ROOT
HETATM    1  C   UNL     1     -43.261  58.159 -54.477  1.00  0.00     0.060 A 
HETATM    2  C   UNL     1     -42.851  57.125 -53.609  1.00  0.00     0.046 A 
HETATM    3  C   UNL     1     -43.066  57.346 -52.240  1.00  0.00     0.032 A 
HETATM    4  C   UNL     1     -43.635  58.531 -51.756  1.00  0.00     0.032 A 
HETATM    5  C   UNL     1     -44.015  59.550 -52.626  1.00  0.00     0.037 A 
HETATM    6  C   UNL     1     -43.825  59.358 -53.994  1.00  0.00     0.049 A 
ENDROOT
BRANCH   2   7
HETATM    7  N   UNL     1     -42.253  55.947 -54.073  1.00  0.00    -0.377 N 
HETATM    8  C   UNL     1     -43.025  54.705 -53.816  1.00  0.00     0.143 C 
HETATM    9  C   UNL     1     -42.488  53.554 -54.698  1.00  0.00     0.143 C 
HETATM   10  N   UNL     1     -41.036  53.353 -54.526  1.00  0.00    -0.376 N 
HETATM   11  C   UNL     1     -40.253  54.599 -54.711  1.00  0.00     0.143 C 
HETATM   12  C   UNL     1     -40.804  55.748 -53.833  1.00  0.00     0.143 C 
BRANCH  10  13
HETATM   13  C   UNL     1     -40.486  52.305 -53.795  1.00  0.00     0.064 A 
HETATM   14  C   UNL     1     -40.307  52.283 -52.392  1.00  0.00     0.094 A 
HETATM   15  C   UNL     1     -39.754  51.156 -51.753  1.00  0.00     0.039 A 
HETATM   16  C   UNL     1     -39.411  50.018 -52.478  1.00  0.00     0.003 A 
HETATM   17  C   UNL     1     -39.599  50.003 -53.851  1.00  0.00     0.002 A 
HETATM   18  C   UNL     1     -40.126  51.130 -54.491  1.00  0.00     0.032 A 
BRANCH  14  19
HETATM   19  O   UNL     1     -40.584  53.421 -51.667  1.00  0.00    -0.354 OA
HETATM   20  C   UNL     1     -39.708  53.653 -50.567  1.00  0.00     0.210 C 
ENDBRANCH  14  19
ENDBRANCH  10  13
ENDBRANCH   2   7
BRANCH   1  21
HETATM   21  C   UNL     1     -43.050  58.089 -55.945  1.00  0.00     0.254 C 
HETATM   22  N   UNL     1     -44.019  57.368 -56.621  1.00  0.00    -0.353 N 
HETATM   23  H   UNL     1     -44.658  56.805 -56.076  1.00  0.00     0.163 HD
HETATM   24  O   UNL     1     -42.120  58.670 -56.488  1.00  0.00    -0.268 OA
BRANCH  22  25
HETATM   25  C   UNL     1     -43.949  57.154 -58.062  1.00  0.00     0.080 C 
HETATM   26  C   UNL     1     -45.314  57.410 -58.695  1.00  0.00     0.032 C 
BRANCH  25  27
HETATM   27  C   UNL     1     -43.382  55.766 -58.405  1.00  0.00     0.020 C 
HETATM   28  C   UNL     1     -44.130  55.026 -59.507  1.00  0.00     0.007 C 
ENDBRANCH  25  27
ENDBRANCH  22  25
ENDBRANCH   1  21
BRANCH   5  29
HETATM   29  N   UNL     1     -44.524  60.792 -52.192  1.00  0.00    -0.309 N 
HETATM   30  C   UNL     1     -45.744  61.012 -51.566  1.00  0.00     0.325 C 
HETATM   31  N   UNL     1     -45.777  62.274 -50.998  1.00  0.00    -0.307 N 
HETATM   32  O   UNL     1     -46.652  60.193 -51.512  1.00  0.00    -0.247 OA
HETATM   33  H   UNL     1     -44.889  62.747 -50.902  1.00  0.00     0.170 HD
HETATM   34  H   UNL     1     -44.008  61.617 -52.463  1.00  0.00     0.170 HD
BRANCH  31  35
HETATM   35  C   UNL     1     -46.843  62.859 -50.267  1.00  0.00     0.053 A 
HETATM   36  C   UNL     1     -46.812  62.802 -48.861  1.00  0.00     0.037 A 
HETATM   37 BR   UNL     1     -45.369  61.977 -47.934  1.00  0.00    -0.049 Br
HETATM   38  C   UNL     1     -47.853  63.339 -48.096  1.00  0.00     0.021 A 
HETATM   39  C   UNL     1     -48.935  63.949 -48.725  1.00  0.00     0.002 A 
HETATM   40  C   UNL     1     -48.970  64.030 -50.114  1.00  0.00     0.002 A 
HETATM   41  C   UNL     1     -47.928  63.493 -50.880  1.00  0.00     0.031 A 
ENDBRANCH  31  35
ENDBRANCH   5  29
TORSDOF 8
ENDMDL
MODEL 3
REMARK VINA RESULT:      -7.9      2.943     10.378
REMARK  8 active torsions:
REMARK  status: ('A' for Active; 'I' for Inactive)
REMARK    1  A    between atoms: C_2  and  C_3 
REMARK    2  A    between atoms: C_3  and  N_4 
REMARK       I    between atoms: N_4  and  C_5 
REMARK    3  A    between atoms: C_5  and  C_6 
REMARK    4  A    between atoms: C_7  and  N_8 
REMARK    5  A    between atoms: N_11  and  C_12 
REMARK    6  A    between atoms: C_13  and  O_14 
REMARK    7  A    between atoms: C_24  and  N_25 
REMARK       I    between atoms: N_25  and  C_26 
REMARK       I    between atoms: C_26  and  N_27 
REMARK    8  A    between atoms: N_27  and  C_28 
ROOT
HETATM    1  C   UNL     1     -42.401  57.739 -55.675  1.00  0.00     0.060 A 
HETATM    2  C   UNL     1     -43.121  57.214 -56.769  1.00  0.00     0.046 A 
HETATM    3  C   UNL     1     -43.033  55.827 -56.959  1.00  0.00     0.032 A 
HETATM    4  C   UNL     1     -42.260  55.007 -56.124  1.00  0.00     0.032 A 
HETATM    5  C   UNL     1     -41.540  55.546 -55.061  1.00  0.00     0.037 A 
HETATM    6  C   UNL     1     -41.615  56.920 -54.838  1.00  0.00     0.049 A 
ENDROOT
BRANCH   2   7
HETATM    7  N   UNL     1     -43.873  58.022 -57.630  1.00  0.00    -0.377 N 
HETATM    8  C   UNL     1     -45.331  58.057 -57.348  1.00  0.00     0.143 C 
HETATM    9  C   UNL     1     -45.985  59.254 -58.076  1.00  0.00     0.143 C 
HETATM   10  N   UNL     1     -45.697  59.248 -59.524  1.00  0.00    -0.376 N 
HETATM   11  C   UNL     1     -44.249  59.143 -59.827  1.00  0.00     0.143 C 
HETATM   12  C   UNL     1     -43.601  57.949 -59.085  1.00  0.00     0.143 C 
BRANCH  10  13
HETATM   13  C   UNL     1     -46.624  58.869 -60.490  1.00  0.00     0.064 A 
HETATM   14  C   UNL     1     -47.116  57.558 -60.693  1.00  0.00     0.094 A 
HETATM   15  C   UNL     1     -48.072  57.293 -61.693  1.00  0.00     0.039 A 
HETATM   16  C   UNL     1     -48.589  58.319 -62.480  1.00  0.00     0.003 A 
HETATM   17  C   UNL     1     -48.143  59.616 -62.286  1.00  0.00     0.002 A 
HETATM   18  C   UNL     1     -47.177  59.879 -61.308  1.00  0.00     0.032 A 
BRANCH  14  19
HETATM   19  O   UNL     1     -46.571  56.523 -59.966  1.00  0.00    -0.354 OA
HETATM   20  C   UNL     1     -45.810  55.594 -60.734  1.00  0.00     0.210 C 
ENDBRANCH  14  19
ENDBRANCH  10  13
ENDBRANCH   2   7
BRANCH   1  21
HETATM   21  C   UNL     1     -42.359  59.194 -55.381  1.00  0.00     0.254 C 
HETATM   22  N   UNL     1     -43.166  59.581 -54.325  1.00  0.00    -0.353 N 
HETATM   23  H   UNL     1     -43.841  58.915 -53.975  1.00  0.00     0.163 HD
HETATM   24  O   UNL     1     -41.626  59.952 -56.001  1.00  0.00    -0.268 OA
BRANCH  22  25
HETATM   25  C   UNL     1     -43.286  60.978 -53.925  1.00  0.00     0.080 C 
HETATM   26  C   UNL     1     -42.851  61.144 -52.471  1.00  0.00     0.032 C 
BRANCH  25  27
HETATM   27  C   UNL     1     -44.698  61.528 -54.192  1.00  0.00     0.020 C 
HETATM   28  C   UNL     1     -45.826  60.732 -53.548  1.00  0.00     0.007 C 
ENDBRANCH  25  27
ENDBRANCH  22  25
ENDBRANCH   1  21
BRANCH   5  29
HETATM   29  N   UNL     1     -40.688  54.782 -54.235  1.00  0.00    -0.309 N 
HETATM   30  C   UNL     1     -41.069  53.758 -53.377  1.00  0.00     0.325 C 
HETATM   31  N   UNL     1     -39.965  53.026 -52.975  1.00  0.00    -0.307 N 
HETATM   32  O   UNL     1     -42.224  53.529 -53.043  1.00  0.00    -0.247 OA
HETATM   33  H   UNL     1     -39.118  53.162 -53.509  1.00  0.00     0.170 HD
HETATM   34  H   UNL     1     -39.726  55.081 -54.170  1.00  0.00     0.170 HD
BRANCH  31  35
HETATM   35  C   UNL     1     -39.949  51.901 -52.112  1.00  0.00     0.053 A 
HETATM   36  C   UNL     1     -39.703  50.628 -52.662  1.00  0.00     0.037 A 
HETATM   37 BR   UNL     1     -39.378  50.399 -54.523  1.00  0.00    -0.049 Br
HETATM   38  C   UNL     1     -39.705  49.484 -51.857  1.00  0.00     0.021 A 
HETATM   39  C   UNL     1     -39.944  49.596 -50.489  1.00  0.00     0.002 A 
HETATM   40  C   UNL     1     -40.168  50.850 -49.929  1.00  0.00     0.002 A 
HETATM   41  C   UNL     1     -40.166  51.995 -50.734  1.00  0.00     0.031 A 
ENDBRANCH  31  35
ENDBRANCH   5  29
TORSDOF 8
ENDMDL
MODEL 4
REMARK VINA RESULT:      -7.8      1.034      1.521
REMARK  8 active torsions:
REMARK  status: ('A' for Active; 'I' for Inactive)
REMARK    1  A    between atoms: C_2  and  C_3 
REMARK    2  A    between atoms: C_3  and  N_4 
REMARK       I    between atoms: N_4  and  C_5 
REMARK    3  A    between atoms: C_5  and  C_6 
REMARK    4  A    between atoms: C_7  and  N_8 
REMARK    5  A    between atoms: N_11  and  C_12 
REMARK    6  A    between atoms: C_13  and  O_14 
REMARK    7  A    between atoms: C_24  and  N_25 
REMARK       I    between atoms: N_25  and  C_26 
REMARK       I    between atoms: C_26  and  N_27 
REMARK    8  A    between atoms: N_27  and  C_28 
ROOT
HETATM    1  C   UNL     1     -43.399  57.244 -56.675  1.00  0.00     0.060 A 
HETATM    2  C   UNL     1     -42.972  55.900 -56.629  1.00  0.00     0.046 A 
HETATM    3  C   UNL     1     -43.230  55.130 -57.774  1.00  0.00     0.032 A 
HETATM    4  C   UNL     1     -43.891  55.655 -58.892  1.00  0.00     0.032 A 
HETATM    5  C   UNL     1     -44.324  56.978 -58.912  1.00  0.00     0.037 A 
HETATM    6  C   UNL     1     -44.073  57.774 -57.795  1.00  0.00     0.049 A 
ENDROOT
BRANCH   2   7
HETATM    7  N   UNL     1     -42.337  55.352 -55.509  1.00  0.00    -0.377 N 
HETATM    8  C   UNL     1     -40.904  55.014 -55.700  1.00  0.00     0.143 C 
HETATM    9  C   UNL     1     -40.220  54.803 -54.328  1.00  0.00     0.143 C 
HETATM   10  N   UNL     1     -40.925  53.800 -53.506  1.00  0.00    -0.376 N 
HETATM   11  C   UNL     1     -42.373  54.083 -53.361  1.00  0.00     0.143 C 
HETATM   12  C   UNL     1     -43.046  54.303 -54.737  1.00  0.00     0.143 C 
BRANCH  10  13
HETATM   13  C   UNL     1     -40.461  52.503 -53.311  1.00  0.00     0.064 A 
HETATM   14  C   UNL     1     -39.845  52.015 -52.134  1.00  0.00     0.094 A 
HETATM   15  C   UNL     1     -39.431  50.671 -52.041  1.00  0.00     0.039 A 
HETATM   16  C   UNL     1     -39.654  49.779 -53.087  1.00  0.00     0.003 A 
HETATM   17  C   UNL     1     -40.278  50.224 -54.241  1.00  0.00     0.002 A 
HETATM   18  C   UNL     1     -40.670  51.563 -54.344  1.00  0.00     0.032 A 
BRANCH  14  19
HETATM   19  O   UNL     1     -39.562  52.897 -51.116  1.00  0.00    -0.354 OA
HETATM   20  C   UNL     1     -40.459  52.835 -50.009  1.00  0.00     0.210 C 
ENDBRANCH  14  19
ENDBRANCH  10  13
ENDBRANCH   2   7
BRANCH   1  21
HETATM   21  C   UNL     1     -43.241  58.164 -55.520  1.00  0.00     0.254 C 
HETATM   22  N   UNL     1     -42.082  58.921 -55.555  1.00  0.00    -0.353 N 
HETATM   23  H   UNL     1     -41.368  58.665 -56.225  1.00  0.00     0.163 HD
HETATM   24  O   UNL     1     -44.100  58.261 -54.655  1.00  0.00    -0.268 OA
BRANCH  22  25
HETATM   25  C   UNL     1     -41.737  59.843 -54.481  1.00  0.00     0.080 C 
HETATM   26  C   UNL     1     -41.289  59.065 -53.247  1.00  0.00     0.032 C 
BRANCH  25  27
HETATM   27  C   UNL     1     -42.882  60.826 -54.184  1.00  0.00     0.020 C 
HETATM   28  C   UNL     1     -43.031  61.210 -52.717  1.00  0.00     0.007 C 
ENDBRANCH  25  27
ENDBRANCH  22  25
ENDBRANCH   1  21
BRANCH   5  29
HETATM   29  N   UNL     1     -45.059  57.539 -59.978  1.00  0.00    -0.309 N 
HETATM   30  C   UNL     1     -46.401  57.893 -59.960  1.00  0.00     0.325 C 
HETATM   31  N   UNL     1     -46.706  58.698 -61.045  1.00  0.00    -0.307 N 
HETATM   32  O   UNL     1     -47.196  57.553 -59.093  1.00  0.00    -0.247 OA
HETATM   33  H   UNL     1     -45.922  59.100 -61.539  1.00  0.00     0.170 HD
HETATM   34  H   UNL     1     -44.600  57.583 -60.876  1.00  0.00     0.170 HD
BRANCH  31  35
HETATM   35  C   UNL     1     -47.965  59.267 -61.365  1.00  0.00     0.053 A 
HETATM   36  C   UNL     1     -48.872  58.516 -62.136  1.00  0.00     0.037 A 
HETATM   37 BR   UNL     1     -48.447  56.760 -62.735  1.00  0.00    -0.049 Br
HETATM   38  C   UNL     1     -50.114  59.044 -62.502  1.00  0.00     0.021 A 
HETATM   39  C   UNL     1     -50.473  60.327 -62.095  1.00  0.00     0.002 A 
HETATM   40  C   UNL     1     -49.594  61.074 -61.315  1.00  0.00     0.002 A 
HETATM   41  C   UNL     1     -48.350  60.546 -60.949  1.00  0.00     0.031 A 
ENDBRANCH  31  35
ENDBRANCH   5  29
TORSDOF 8
ENDMDL
MODEL 5
REMARK VINA RESULT:      -7.4      2.790     10.328
REMARK  8 active torsions:
REMARK  status: ('A' for Active; 'I' for Inactive)
REMARK    1  A    between atoms: C_2  and  C_3 
REMARK    2  A    between atoms: C_3  and  N_4 
REMARK       I    between atoms: N_4  and  C_5 
REMARK    3  A    between atoms: C_5  and  C_6 
REMARK    4  A    between atoms: C_7  and  N_8 
REMARK    5  A    between atoms: N_11  and  C_12 
REMARK    6  A    between atoms: C_13  and  O_14 
REMARK    7  A    between atoms: C_24  and  N_25 
REMARK       I    between atoms: N_25  and  C_26 
REMARK       I    between atoms: C_26  and  N_27 
REMARK    8  A    between atoms: N_27  and  C_28 
ROOT
HETATM    1  C   UNL     1     -43.779  57.790 -55.479  1.00  0.00     0.060 A 
HETATM    2  C   UNL     1     -44.123  57.686 -56.843  1.00  0.00     0.046 A 
HETATM    3  C   UNL     1     -43.488  56.662 -57.564  1.00  0.00     0.032 A 
HETATM    4  C   UNL     1     -42.552  55.803 -56.972  1.00  0.00     0.032 A 
HETATM    5  C   UNL     1     -42.210  55.934 -55.629  1.00  0.00     0.037 A 
HETATM    6  C   UNL     1     -42.830  56.934 -54.881  1.00  0.00     0.049 A 
ENDROOT
BRANCH   2   7
HETATM    7  N   UNL     1     -45.033  58.554 -57.457  1.00  0.00    -0.377 N 
HETATM    8  C   UNL     1     -46.442  58.086 -57.465  1.00  0.00     0.143 C 
HETATM    9  C   UNL     1     -47.391  59.263 -57.792  1.00  0.00     0.143 C 
HETATM   10  N   UNL     1     -47.021  59.941 -59.050  1.00  0.00    -0.376 N 
HETATM   11  C   UNL     1     -45.598  60.355 -59.089  1.00  0.00     0.143 C 
HETATM   12  C   UNL     1     -44.657  59.174 -58.750  1.00  0.00     0.143 C 
BRANCH  10  13
HETATM   13  C   UNL     1     -47.716  59.778 -60.244  1.00  0.00     0.064 A 
HETATM   14  C   UNL     1     -47.634  58.653 -61.099  1.00  0.00     0.094 A 
HETATM   15  C   UNL     1     -48.402  58.586 -62.278  1.00  0.00     0.039 A 
HETATM   16  C   UNL     1     -49.291  59.604 -62.613  1.00  0.00     0.003 A 
HETATM   17  C   UNL     1     -49.409  60.706 -61.781  1.00  0.00     0.002 A 
HETATM   18  C   UNL     1     -48.632  60.785 -60.620  1.00  0.00     0.032 A 
BRANCH  14  19
HETATM   19  O   UNL     1     -46.716  57.667 -60.815  1.00  0.00    -0.354 OA
HETATM   20  C   UNL     1     -47.272  56.362 -60.671  1.00  0.00     0.210 C 
ENDBRANCH  14  19
ENDBRANCH  10  13
ENDBRANCH   2   7
BRANCH   1  21
HETATM   21  C   UNL     1     -44.330  58.856 -54.604  1.00  0.00     0.254 C 
HETATM   22  N   UNL     1     -43.427  59.859 -54.298  1.00  0.00    -0.353 N 
HETATM   23  H   UNL     1     -42.452  59.703 -54.518  1.00  0.00     0.163 HD
HETATM   24  O   UNL     1     -45.499  58.848 -54.242  1.00  0.00    -0.268 OA
BRANCH  22  25
HETATM   25  C   UNL     1     -43.778  60.963 -53.414  1.00  0.00     0.080 C 
HETATM   26  C   UNL     1     -42.984  62.210 -53.793  1.00  0.00     0.032 C 
BRANCH  25  27
HETATM   27  C   UNL     1     -43.616  60.580 -51.932  1.00  0.00     0.020 C 
HETATM   28  C   UNL     1     -42.190  60.249 -51.510  1.00  0.00     0.007 C 
ENDBRANCH  25  27
ENDBRANCH  22  25
ENDBRANCH   1  21
BRANCH   5  29
HETATM   29  N   UNL     1     -41.222  55.148 -54.999  1.00  0.00    -0.309 N 
HETATM   30  C   UNL     1     -41.416  53.926 -54.369  1.00  0.00     0.325 C 
HETATM   31  N   UNL     1     -40.204  53.293 -54.152  1.00  0.00    -0.307 N 
HETATM   32  O   UNL     1     -42.511  53.469 -54.067  1.00  0.00    -0.247 OA
HETATM   33  H   UNL     1     -39.411  53.656 -54.662  1.00  0.00     0.170 HD
HETATM   34  H   UNL     1     -40.308  55.562 -54.893  1.00  0.00     0.170 HD
BRANCH  31  35
HETATM   35  C   UNL     1     -39.992  52.028 -53.546  1.00  0.00     0.053 A 
HETATM   36  C   UNL     1     -39.850  51.962 -52.148  1.00  0.00     0.037 A 
HETATM   37 BR   UNL     1     -39.954  53.524 -51.065  1.00  0.00    -0.049 Br
HETATM   38  C   UNL     1     -39.611  50.742 -51.506  1.00  0.00     0.021 A 
HETATM   39  C   UNL     1     -39.520  49.570 -52.252  1.00  0.00     0.002 A 
HETATM   40  C   UNL     1     -39.678  49.617 -53.634  1.00  0.00     0.002 A 
HETATM   41  C   UNL     1     -39.917  50.838 -54.276  1.00  0.00     0.031 A 
ENDBRANCH  31  35
ENDBRANCH   5  29
TORSDOF 8
ENDMDL
MODEL 6
REMARK VINA RESULT:      -6.8      4.935     11.207
REMARK  8 active torsions:
REMARK  status: ('A' for Active; 'I' for Inactive)
REMARK    1  A    between atoms: C_2  and  C_3 
REMARK    2  A    between atoms: C_3  and  N_4 
REMARK       I    between atoms: N_4  and  C_5 
REMARK    3  A    between atoms: C_5  and  C_6 
REMARK    4  A    between atoms: C_7  and  N_8 
REMARK    5  A    between atoms: N_11  and  C_12 
REMARK    6  A    between atoms: C_13  and  O_14 
REMARK    7  A    between atoms: C_24  and  N_25 
REMARK       I    between atoms: N_25  and  C_26 
REMARK       I    between atoms: C_26  and  N_27 
REMARK    8  A    between atoms: N_27  and  C_28 
ROOT
HETATM    1  C   UNL     1     -43.735  59.766 -51.431  1.00  0.00     0.060 A 
HETATM    2  C   UNL     1     -44.554  59.791 -52.580  1.00  0.00     0.046 A 
HETATM    3  C   UNL     1     -44.407  58.713 -53.466  1.00  0.00     0.032 A 
HETATM    4  C   UNL     1     -43.489  57.679 -53.238  1.00  0.00     0.032 A 
HETATM    5  C   UNL     1     -42.674  57.682 -52.109  1.00  0.00     0.037 A 
HETATM    6  C   UNL     1     -42.802  58.733 -51.202  1.00  0.00     0.049 A 
ENDROOT
BRANCH   2   7
HETATM    7  N   UNL     1     -45.455  60.831 -52.838  1.00  0.00    -0.377 N 
HETATM    8  C   UNL     1     -46.813  60.643 -52.268  1.00  0.00     0.143 C 
HETATM    9  C   UNL     1     -47.578  61.987 -52.265  1.00  0.00     0.143 C 
HETATM   10  N   UNL     1     -47.616  62.607 -53.604  1.00  0.00    -0.376 N 
HETATM   11  C   UNL     1     -46.274  62.739 -54.220  1.00  0.00     0.143 C 
HETATM   12  C   UNL     1     -45.512  61.393 -54.208  1.00  0.00     0.143 C 
BRANCH  10  13
HETATM   13  C   UNL     1     -48.743  62.605 -54.420  1.00  0.00     0.064 A 
HETATM   14  C   UNL     1     -50.078  62.435 -53.982  1.00  0.00     0.094 A 
HETATM   15  C   UNL     1     -51.147  62.470 -54.899  1.00  0.00     0.039 A 
HETATM   16  C   UNL     1     -50.924  62.715 -56.252  1.00  0.00     0.003 A 
HETATM   17  C   UNL     1     -49.628  62.910 -56.703  1.00  0.00     0.002 A 
HETATM   18  C   UNL     1     -48.563  62.853 -55.798  1.00  0.00     0.032 A 
BRANCH  14  19
HETATM   19  O   UNL     1     -50.312  62.132 -52.660  1.00  0.00    -0.354 OA
HETATM   20  C   UNL     1     -51.157  63.055 -51.979  1.00  0.00     0.210 C 
ENDBRANCH  14  19
ENDBRANCH  10  13
ENDBRANCH   2   7
BRANCH   1  21
HETATM   21  C   UNL     1     -43.742  60.864 -50.431  1.00  0.00     0.254 C 
HETATM   22  N   UNL     1     -44.601  60.653 -49.366  1.00  0.00    -0.353 N 
HETATM   23  H   UNL     1     -45.272  59.900 -49.440  1.00  0.00     0.163 HD
HETATM   24  O   UNL     1     -43.005  61.835 -50.540  1.00  0.00    -0.268 OA
BRANCH  22  25
HETATM   25  C   UNL     1     -44.774  61.646 -48.313  1.00  0.00     0.080 C 
HETATM   26  C   UNL     1     -44.745  60.968 -46.946  1.00  0.00     0.032 C 
BRANCH  25  27
HETATM   27  C   UNL     1     -46.037  62.495 -48.532  1.00  0.00     0.020 C 
HETATM   28  C   UNL     1     -45.838  63.721 -49.415  1.00  0.00     0.007 C 
ENDBRANCH  25  27
ENDBRANCH  22  25
ENDBRANCH   1  21
BRANCH   5  29
HETATM   29  N   UNL     1     -41.682  56.709 -51.865  1.00  0.00    -0.309 N 
HETATM   30  C   UNL     1     -41.800  55.340 -52.067  1.00  0.00     0.325 C 
HETATM   31  N   UNL     1     -40.554  54.735 -52.035  1.00  0.00    -0.307 N 
HETATM   32  O   UNL     1     -42.858  54.758 -52.264  1.00  0.00    -0.247 OA
HETATM   33  H   UNL     1     -39.756  55.350 -52.110  1.00  0.00     0.170 HD
HETATM   34  H   UNL     1     -40.846  57.018 -51.390  1.00  0.00     0.170 HD
BRANCH  31  35
HETATM   35  C   UNL     1     -40.263  53.359 -52.210  1.00  0.00     0.053 A 
HETATM   36  C   UNL     1     -40.166  52.847 -53.517  1.00  0.00     0.037 A 
HETATM   37 BR   UNL     1     -40.399  53.967 -55.039  1.00  0.00    -0.049 Br
HETATM   38  C   UNL     1     -39.909  51.491 -53.742  1.00  0.00     0.021 A 
HETATM   39  C   UNL     1     -39.736  50.627 -52.663  1.00  0.00     0.002 A 
HETATM   40  C   UNL     1     -39.809  51.123 -51.365  1.00  0.00     0.002 A 
HETATM   41  C   UNL     1     -40.067  52.480 -51.139  1.00  0.00     0.031 A 
ENDBRANCH  31  35
ENDBRANCH   5  29
TORSDOF 8
ENDMDL
MODEL 7
REMARK VINA RESULT:      -6.8     17.910     23.261
REMARK  8 active torsions:
REMARK  status: ('A' for Active; 'I' for Inactive)
REMARK    1  A    between atoms: C_2  and  C_3 
REMARK    2  A    between atoms: C_3  and  N_4 
REMARK       I    between atoms: N_4  and  C_5 
REMARK    3  A    between atoms: C_5  and  C_6 
REMARK    4  A    between atoms: C_7  and  N_8 
REMARK    5  A    between atoms: N_11  and  C_12 
REMARK    6  A    between atoms: C_13  and  O_14 
REMARK    7  A    between atoms: C_24  and  N_25 
REMARK       I    between atoms: N_25  and  C_26 
REMARK       I    between atoms: C_26  and  N_27 
REMARK    8  A    between atoms: N_27  and  C_28 
ROOT
HETATM    1  C   UNL     1     -32.274  38.987 -52.669  1.00  0.00     0.060 A 
HETATM    2  C   UNL     1     -33.377  39.662 -53.235  1.00  0.00     0.046 A 
HETATM    3  C   UNL     1     -33.975  40.647 -52.435  1.00  0.00     0.032 A 
HETATM    4  C   UNL     1     -33.521  40.934 -51.140  1.00  0.00     0.032 A 
HETATM    5  C   UNL     1     -32.445  40.243 -50.590  1.00  0.00     0.037 A 
HETATM    6  C   UNL     1     -31.820  39.265 -51.363  1.00  0.00     0.049 A 
ENDROOT
BRANCH   2   7
HETATM    7  N   UNL     1     -33.861  39.367 -54.515  1.00  0.00    -0.377 N 
HETATM    8  C   UNL     1     -33.260  40.163 -55.615  1.00  0.00     0.143 C 
HETATM    9  C   UNL     1     -33.560  39.496 -56.978  1.00  0.00     0.143 C 
HETATM   10  N   UNL     1     -35.005  39.270 -57.179  1.00  0.00    -0.376 N 
HETATM   11  C   UNL     1     -35.639  38.538 -56.057  1.00  0.00     0.143 C 
HETATM   12  C   UNL     1     -35.324  39.205 -54.697  1.00  0.00     0.143 C 
BRANCH  10  13
HETATM   13  C   UNL     1     -35.795  40.052 -58.015  1.00  0.00     0.064 A 
HETATM   14  C   UNL     1     -36.412  39.616 -59.212  1.00  0.00     0.094 A 
HETATM   15  C   UNL     1     -37.211  40.492 -59.973  1.00  0.00     0.039 A 
HETATM   16  C   UNL     1     -37.449  41.796 -59.547  1.00  0.00     0.003 A 
HETATM   17  C   UNL     1     -36.878  42.242 -58.366  1.00  0.00     0.002 A 
HETATM   18  C   UNL     1     -36.066  41.380 -57.620  1.00  0.00     0.032 A 
BRANCH  14  19
HETATM   19  O   UNL     1     -36.138  38.350 -59.679  1.00  0.00    -0.354 OA
HETATM   20  C   UNL     1     -37.243  37.450 -59.639  1.00  0.00     0.210 C 
ENDBRANCH  14  19
ENDBRANCH  10  13
ENDBRANCH   2   7
BRANCH   1  21
HETATM   21  C   UNL     1     -31.573  37.886 -53.377  1.00  0.00     0.254 C 
HETATM   22  N   UNL     1     -30.825  38.300 -54.466  1.00  0.00    -0.353 N 
HETATM   23  H   UNL     1     -30.960  39.244 -54.802  1.00  0.00     0.163 HD
HETATM   24  O   UNL     1     -31.629  36.730 -52.979  1.00  0.00    -0.268 OA
BRANCH  22  25
HETATM   25  C   UNL     1     -30.107  37.351 -55.307  1.00  0.00     0.080 C 
HETATM   26  C   UNL     1     -28.823  37.987 -55.834  1.00  0.00     0.032 C 
BRANCH  25  27
HETATM   27  C   UNL     1     -31.001  36.793 -56.429  1.00  0.00     0.020 C 
HETATM   28  C   UNL     1     -30.490  37.052 -57.841  1.00  0.00     0.007 C 
ENDBRANCH  25  27
ENDBRANCH  22  25
ENDBRANCH   1  21
BRANCH   5  29
HETATM   29  N   UNL     1     -31.992  40.437 -49.268  1.00  0.00    -0.309 N 
HETATM   30  C   UNL     1     -31.661  39.444 -48.354  1.00  0.00     0.325 C 
HETATM   31  N   UNL     1     -30.959  39.981 -47.288  1.00  0.00    -0.307 N 
HETATM   32  O   UNL     1     -31.937  38.259 -48.488  1.00  0.00    -0.247 OA
HETATM   33  H   UNL     1     -30.588  40.912 -47.418  1.00  0.00     0.170 HD
HETATM   34  H   UNL     1     -32.019  41.380 -48.909  1.00  0.00     0.170 HD
BRANCH  31  35
HETATM   35  C   UNL     1     -30.442  39.287 -46.164  1.00  0.00     0.053 A 
HETATM   36  C   UNL     1     -29.050  39.112 -46.056  1.00  0.00     0.037 A 
HETATM   37 BR   UNL     1     -27.860  39.801 -47.374  1.00  0.00    -0.049 Br
HETATM   38  C   UNL     1     -28.493  38.411 -44.982  1.00  0.00     0.021 A 
HETATM   39  C   UNL     1     -29.320  37.882 -43.994  1.00  0.00     0.002 A 
HETATM   40  C   UNL     1     -30.697  38.064 -44.077  1.00  0.00     0.002 A 
HETATM   41  C   UNL     1     -31.254  38.766 -45.152  1.00  0.00     0.031 A 
ENDBRANCH  31  35
ENDBRANCH   5  29
TORSDOF 8
ENDMDL
MODEL 8
REMARK VINA RESULT:      -6.7      5.533     11.528
REMARK  8 active torsions:
REMARK  status: ('A' for Active; 'I' for Inactive)
REMARK    1  A    between atoms: C_2  and  C_3 
REMARK    2  A    between atoms: C_3  and  N_4 
REMARK       I    between atoms: N_4  and  C_5 
REMARK    3  A    between atoms: C_5  and  C_6 
REMARK    4  A    between atoms: C_7  and  N_8 
REMARK    5  A    between atoms: N_11  and  C_12 
REMARK    6  A    between atoms: C_13  and  O_14 
REMARK    7  A    between atoms: C_24  and  N_25 
REMARK       I    between atoms: N_25  and  C_26 
REMARK       I    between atoms: C_26  and  N_27 
REMARK    8  A    between atoms: N_27  and  C_28 
ROOT
HETATM    1  C   UNL     1     -44.727  59.820 -51.286  1.00  0.00     0.060 A 
HETATM    2  C   UNL     1     -44.900  60.564 -52.472  1.00  0.00     0.046 A 
HETATM    3  C   UNL     1     -44.094  60.192 -53.558  1.00  0.00     0.032 A 
HETATM    4  C   UNL     1     -43.156  59.154 -53.470  1.00  0.00     0.032 A 
HETATM    5  C   UNL     1     -42.984  58.444 -52.285  1.00  0.00     0.037 A 
HETATM    6  C   UNL     1     -43.777  58.782 -51.189  1.00  0.00     0.049 A 
ENDROOT
BRANCH   2   7
HETATM    7  N   UNL     1     -45.811  61.623 -52.568  1.00  0.00    -0.377 N 
HETATM    8  C   UNL     1     -47.240  61.221 -52.614  1.00  0.00     0.143 C 
HETATM    9  C   UNL     1     -48.145  62.441 -52.318  1.00  0.00     0.143 C 
HETATM   10  N   UNL     1     -47.855  63.576 -53.216  1.00  0.00    -0.376 N 
HETATM   11  C   UNL     1     -46.421  63.947 -53.238  1.00  0.00     0.143 C 
HETATM   12  C   UNL     1     -45.523  62.719 -53.523  1.00  0.00     0.143 C 
BRANCH  10  13
HETATM   13  C   UNL     1     -48.668  63.935 -54.287  1.00  0.00     0.064 A 
HETATM   14  C   UNL     1     -49.990  64.430 -54.189  1.00  0.00     0.094 A 
HETATM   15  C   UNL     1     -50.716  64.782 -55.344  1.00  0.00     0.039 A 
HETATM   16  C   UNL     1     -50.138  64.692 -56.608  1.00  0.00     0.003 A 
HETATM   17  C   UNL     1     -48.836  64.234 -56.731  1.00  0.00     0.002 A 
HETATM   18  C   UNL     1     -48.121  63.863 -55.587  1.00  0.00     0.032 A 
BRANCH  14  19
HETATM   19  O   UNL     1     -50.598  64.468 -52.954  1.00  0.00    -0.354 OA
HETATM   20  C   UNL     1     -51.710  63.588 -52.812  1.00  0.00     0.210 C 
ENDBRANCH  14  19
ENDBRANCH  10  13
ENDBRANCH   2   7
BRANCH   1  21
HETATM   21  C   UNL     1     -45.472  60.133 -50.040  1.00  0.00     0.254 C 
HETATM   22  N   UNL     1     -45.388  61.458 -49.649  1.00  0.00    -0.353 N 
HETATM   23  H   UNL     1     -44.702  62.045 -50.105  1.00  0.00     0.163 HD
HETATM   24  O   UNL     1     -46.134  59.284 -49.459  1.00  0.00    -0.268 OA
BRANCH  22  25
HETATM   25  C   UNL     1     -46.017  61.937 -48.425  1.00  0.00     0.080 C 
HETATM   26  C   UNL     1     -46.856  63.178 -48.719  1.00  0.00     0.032 C 
BRANCH  25  27
HETATM   27  C   UNL     1     -44.987  62.165 -47.305  1.00  0.00     0.020 C 
HETATM   28  C   UNL     1     -44.750  60.961 -46.402  1.00  0.00     0.007 C 
ENDBRANCH  25  27
ENDBRANCH  22  25
ENDBRANCH   1  21
BRANCH   5  29
HETATM   29  N   UNL     1     -42.005  57.442 -52.116  1.00  0.00    -0.309 N 
HETATM   30  C   UNL     1     -42.118  56.107 -52.482  1.00  0.00     0.325 C 
HETATM   31  N   UNL     1     -40.877  55.493 -52.469  1.00  0.00    -0.307 N 
HETATM   32  O   UNL     1     -43.168  55.560 -52.792  1.00  0.00    -0.247 OA
HETATM   33  H   UNL     1     -40.074  56.106 -52.437  1.00  0.00     0.170 HD
HETATM   34  H   UNL     1     -41.190  57.686 -51.573  1.00  0.00     0.170 HD
BRANCH  31  35
HETATM   35  C   UNL     1     -40.582  54.145 -52.793  1.00  0.00     0.053 A 
HETATM   36  C   UNL     1     -40.175  53.274 -51.765  1.00  0.00     0.037 A 
HETATM   37 BR   UNL     1     -40.032  53.867 -49.962  1.00  0.00    -0.049 Br
HETATM   38  C   UNL     1     -39.846  51.942 -52.038  1.00  0.00     0.021 A 
HETATM   39  C   UNL     1     -39.928  51.458 -53.341  1.00  0.00     0.002 A 
HETATM   40  C   UNL     1     -40.348  52.303 -54.365  1.00  0.00     0.002 A 
HETATM   41  C   UNL     1     -40.678  53.635 -54.092  1.00  0.00     0.031 A 
ENDBRANCH  31  35
ENDBRANCH   5  29
TORSDOF 8
ENDMDL
MODEL 9
REMARK VINA RESULT:      -6.6     16.817     22.489
REMARK  8 active torsions:
REMARK  status: ('A' for Active; 'I' for Inactive)
REMARK    1  A    between atoms: C_2  and  C_3 
REMARK    2  A    between atoms: C_3  and  N_4 
REMARK       I    between atoms: N_4  and  C_5 
REMARK    3  A    between atoms: C_5  and  C_6 
REMARK    4  A    between atoms: C_7  and  N_8 
REMARK    5  A    between atoms: N_11  and  C_12 
REMARK    6  A    between atoms: C_13  and  O_14 
REMARK    7  A    between atoms: C_24  and  N_25 
REMARK       I    between atoms: N_25  and  C_26 
REMARK       I    between atoms: C_26  and  N_27 
REMARK    8  A    between atoms: N_27  and  C_28 
ROOT
HETATM    1  C   UNL     1     -33.775  39.387 -52.947  1.00  0.00     0.060 A 
HETATM    2  C   UNL     1     -34.586  40.538 -53.050  1.00  0.00     0.046 A 
HETATM    3  C   UNL     1     -34.854  41.213 -51.849  1.00  0.00     0.032 A 
HETATM    4  C   UNL     1     -34.365  40.765 -50.615  1.00  0.00     0.032 A 
HETATM    5  C   UNL     1     -33.583  39.615 -50.530  1.00  0.00     0.037 A 
HETATM    6  C   UNL     1     -33.288  38.926 -51.706  1.00  0.00     0.049 A 
ENDROOT
BRANCH   2   7
HETATM    7  N   UNL     1     -35.107  40.983 -54.270  1.00  0.00    -0.377 N 
HETATM    8  C   UNL     1     -36.446  40.444 -54.617  1.00  0.00     0.143 C 
HETATM    9  C   UNL     1     -37.082  41.286 -55.747  1.00  0.00     0.143 C 
HETATM   10  N   UNL     1     -36.200  41.388 -56.926  1.00  0.00    -0.376 N 
HETATM   11  C   UNL     1     -34.835  41.858 -56.590  1.00  0.00     0.143 C 
HETATM   12  C   UNL     1     -34.212  41.017 -55.451  1.00  0.00     0.143 C 
BRANCH  10  13
HETATM   13  C   UNL     1     -36.404  40.673 -58.102  1.00  0.00     0.064 A 
HETATM   14  C   UNL     1     -36.925  41.199 -59.308  1.00  0.00     0.094 A 
HETATM   15  C   UNL     1     -37.071  40.384 -60.448  1.00  0.00     0.039 A 
HETATM   16  C   UNL     1     -36.667  39.051 -60.431  1.00  0.00     0.003 A 
HETATM   17  C   UNL     1     -36.130  38.517 -59.271  1.00  0.00     0.002 A 
HETATM   18  C   UNL     1     -36.005  39.318 -58.132  1.00  0.00     0.032 A 
BRANCH  14  19
HETATM   19  O   UNL     1     -37.386  42.497 -59.324  1.00  0.00    -0.354 OA
HETATM   20  C   UNL     1     -37.426  43.097 -60.616  1.00  0.00     0.210 C 
ENDBRANCH  14  19
ENDBRANCH  10  13
ENDBRANCH   2   7
BRANCH   1  21
HETATM   21  C   UNL     1     -33.450  38.542 -54.124  1.00  0.00     0.254 C 
HETATM   22  N   UNL     1     -32.125  38.610 -54.519  1.00  0.00    -0.353 N 
HETATM   23  H   UNL     1     -31.549  39.341 -54.123  1.00  0.00     0.163 HD
HETATM   24  O   UNL     1     -34.288  37.820 -54.646  1.00  0.00    -0.268 OA
BRANCH  22  25
HETATM   25  C   UNL     1     -31.635  37.883 -55.684  1.00  0.00     0.080 C 
HETATM   26  C   UNL     1     -30.169  37.506 -55.486  1.00  0.00     0.032 C 
BRANCH  25  27
HETATM   27  C   UNL     1     -31.880  38.663 -56.987  1.00  0.00     0.020 C 
HETATM   28  C   UNL     1     -32.611  37.881 -58.072  1.00  0.00     0.007 C 
ENDBRANCH  25  27
ENDBRANCH  22  25
ENDBRANCH   1  21
BRANCH   5  29
HETATM   29  N   UNL     1     -33.126  39.076 -49.310  1.00  0.00    -0.309 N 
HETATM   30  C   UNL     1     -31.917  39.353 -48.685  1.00  0.00     0.325 C 
HETATM   31  N   UNL     1     -31.935  38.912 -47.373  1.00  0.00    -0.307 N 
HETATM   32  O   UNL     1     -30.977  39.926 -49.220  1.00  0.00    -0.247 OA
HETATM   33  H   UNL     1     -32.842  38.683 -46.989  1.00  0.00     0.170 HD
HETATM   34  H   UNL     1     -33.674  38.330 -48.906  1.00  0.00     0.170 HD
BRANCH  31  35
HETATM   35  C   UNL     1     -30.896  39.022 -46.415  1.00  0.00     0.053 A 
HETATM   36  C   UNL     1     -31.172  38.696 -45.074  1.00  0.00     0.037 A 
HETATM   37 BR   UNL     1     -32.897  38.098 -44.534  1.00  0.00    -0.049 Br
HETATM   38  C   UNL     1     -30.188  38.817 -44.087  1.00  0.00     0.021 A 
HETATM   39  C   UNL     1     -28.911  39.255 -44.427  1.00  0.00     0.002 A 
HETATM   40  C   UNL     1     -28.618  39.562 -45.753  1.00  0.00     0.002 A 
HETATM   41  C   UNL     1     -29.602  39.442 -46.741  1.00  0.00     0.031 A 
ENDBRANCH  31  35
ENDBRANCH   5  29
TORSDOF 8
ENDMDL
MODEL 10
REMARK VINA RESULT:      -6.6     17.351     21.157
REMARK  8 active torsions:
REMARK  status: ('A' for Active; 'I' for Inactive)
REMARK    1  A    between atoms: C_2  and  C_3 
REMARK    2  A    between atoms: C_3  and  N_4 
REMARK       I    between atoms: N_4  and  C_5 
REMARK    3  A    between atoms: C_5  and  C_6 
REMARK    4  A    between atoms: C_7  and  N_8 
REMARK    5  A    between atoms: N_11  and  C_12 
REMARK    6  A    between atoms: C_13  and  O_14 
REMARK    7  A    between atoms: C_24  and  N_25 
REMARK       I    between atoms: N_25  and  C_26 
REMARK       I    between atoms: C_26  and  N_27 
REMARK    8  A    between atoms: N_27  and  C_28 
ROOT
HETATM    1  C   UNL     1     -36.318  39.745 -50.352  1.00  0.00     0.060 A 
HETATM    2  C   UNL     1     -37.045  39.622 -51.556  1.00  0.00     0.046 A 
HETATM    3  C   UNL     1     -38.271  38.945 -51.471  1.00  0.00     0.032 A 
HETATM    4  C   UNL     1     -38.742  38.402 -50.268  1.00  0.00     0.032 A 
HETATM    5  C   UNL     1     -38.001  38.514 -49.094  1.00  0.00     0.037 A 
HETATM    6  C   UNL     1     -36.783  39.192 -49.141  1.00  0.00     0.049 A 
ENDROOT
BRANCH   2   7
HETATM    7  N   UNL     1     -36.575  40.132 -52.772  1.00  0.00    -0.377 N 
HETATM    8  C   UNL     1     -37.439  41.165 -53.397  1.00  0.00     0.143 C 
HETATM    9  C   UNL     1     -36.652  41.926 -54.490  1.00  0.00     0.143 C 
HETATM   10  N   UNL     1     -36.064  41.012 -55.488  1.00  0.00    -0.376 N 
HETATM   11  C   UNL     1     -35.254  39.930 -54.878  1.00  0.00     0.143 C 
HETATM   12  C   UNL     1     -36.045  39.182 -53.779  1.00  0.00     0.143 C 
BRANCH  10  13
HETATM   13  C   UNL     1     -36.581  40.836 -56.768  1.00  0.00     0.064 A 
HETATM   14  C   UNL     1     -37.304  39.705 -57.217  1.00  0.00     0.094 A 
HETATM   15  C   UNL     1     -37.800  39.643 -58.535  1.00  0.00     0.039 A 
HETATM   16  C   UNL     1     -37.629  40.708 -59.416  1.00  0.00     0.003 A 
HETATM   17  C   UNL     1     -36.946  41.837 -58.993  1.00  0.00     0.002 A 
HETATM   18  C   UNL     1     -36.433  41.892 -57.693  1.00  0.00     0.032 A 
BRANCH  14  19
HETATM   19  O   UNL     1     -37.430  38.619 -56.380  1.00  0.00    -0.354 OA
HETATM   20  C   UNL     1     -37.094  37.369 -56.975  1.00  0.00     0.210 C 
ENDBRANCH  14  19
ENDBRANCH  10  13
ENDBRANCH   2   7
BRANCH   1  21
HETATM   21  C   UNL     1     -34.982  40.390 -50.298  1.00  0.00     0.254 C 
HETATM   22  N   UNL     1     -33.967  39.552 -49.868  1.00  0.00    -0.353 N 
HETATM   23  H   UNL     1     -34.227  38.666 -49.455  1.00  0.00     0.163 HD
HETATM   24  O   UNL     1     -34.814  41.548 -50.656  1.00  0.00    -0.268 OA
BRANCH  22  25
HETATM   25  C   UNL     1     -32.599  40.027 -49.707  1.00  0.00     0.080 C 
HETATM   26  C   UNL     1     -31.784  39.708 -50.958  1.00  0.00     0.032 C 
BRANCH  25  27
HETATM   27  C   UNL     1     -31.954  39.483 -48.421  1.00  0.00     0.020 C 
HETATM   28  C   UNL     1     -32.670  38.289 -47.803  1.00  0.00     0.007 C 
ENDBRANCH  25  27
ENDBRANCH  22  25
ENDBRANCH   1  21
BRANCH   5  29
HETATM   29  N   UNL     1     -38.389  37.925 -47.872  1.00  0.00    -0.309 N 
HETATM   30  C   UNL     1     -39.475  38.290 -47.086  1.00  0.00     0.325 C 
HETATM   31  N   UNL     1     -39.743  37.311 -46.145  1.00  0.00    -0.307 N 
HETATM   32  O   UNL     1     -40.113  39.325 -47.225  1.00  0.00    -0.247 OA
HETATM   33  H   UNL     1     -39.307  36.412 -46.295  1.00  0.00     0.170 HD
HETATM   34  H   UNL     1     -37.755  37.252 -47.468  1.00  0.00     0.170 HD
BRANCH  31  35
HETATM   35  C   UNL     1     -40.776  37.315 -45.173  1.00  0.00     0.053 A 
HETATM   36  C   UNL     1     -40.427  37.252 -43.811  1.00  0.00     0.037 A 
HETATM   37 BR   UNL     1     -38.607  37.181 -43.257  1.00  0.00    -0.049 Br
HETATM   38  C   UNL     1     -41.410  37.224 -42.817  1.00  0.00     0.021 A 
HETATM   39  C   UNL     1     -42.757  37.268 -43.168  1.00  0.00     0.002 A 
HETATM   40  C   UNL     1     -43.117  37.350 -44.511  1.00  0.00     0.002 A 
HETATM   41  C   UNL     1     -42.133  37.378 -45.506  1.00  0.00     0.031 A 
ENDBRANCH  31  35
ENDBRANCH   5  29
TORSDOF 8
ENDMDL
