MODEL 1
REMARK VINA RESULT:      -8.3      0.000      0.000
REMARK  7 active torsions:
REMARK  status: ('A' for Active; 'I' for Inactive)
REMARK    1  A    between atoms: C_2  and  C_3 
REMARK    2  A    between atoms: C_3  and  N_4 
REMARK    3  A    between atoms: C_10  and  N_11 
REMARK       I    between atoms: N_11  and  C_12 
REMARK    4  A    between atoms: C_12  and  C_13 
REMARK    5  A    between atoms: C_13  and  N_14 
REMARK       I    between atoms: N_14  and  C_15 
REMARK       I    between atoms: C_15  and  N_16 
REMARK    6  A    between atoms: N_16  and  C_17 
REMARK    7  A    between atoms: C_17  and  C_18 
ROOT
HETATM    1  N   UNL     1     -44.377  57.007 -52.381  1.00  0.00    -0.325 N 
HETATM    2  C   UNL     1     -43.167  56.411 -52.072  1.00  0.00     0.239 C 
HETATM    3  O   UNL     1     -42.119  56.588 -52.687  1.00  0.00    -0.271 OA
HETATM    4  H   UNL     1     -45.182  56.640 -51.873  1.00  0.00     0.169 HD
ENDROOT
BRANCH   2   5
HETATM    5  C   UNL     1     -43.252  55.401 -50.925  1.00  0.00     0.227 C 
BRANCH   5   6
HETATM    6  N   UNL     1     -42.274  55.657 -49.879  1.00  0.00    -0.334 N 
HETATM    7  C   UNL     1     -41.341  54.734 -49.510  1.00  0.00     0.316 C 
HETATM    8  N   UNL     1     -40.805  54.030 -50.547  1.00  0.00    -0.339 N 
HETATM    9  O   UNL     1     -41.067  54.562 -48.331  1.00  0.00    -0.247 OA
HETATM   10  H   UNL     1     -40.429  54.644 -51.256  1.00  0.00     0.164 HD
HETATM   11  H   UNL     1     -42.637  56.123 -49.054  1.00  0.00     0.164 HD
BRANCH   8  12
HETATM   12  C   UNL     1     -40.017  52.842 -50.288  1.00  0.00     0.162 C 
BRANCH  12  13
HETATM   13  C   UNL     1     -39.949  52.018 -51.549  1.00  0.00    -0.040 A 
HETATM   14  C   UNL     1     -40.199  52.585 -52.806  1.00  0.00     0.012 A 
HETATM   15  C   UNL     1     -40.159  51.793 -53.956  1.00  0.00     0.043 A 
HETATM   16  C   UNL     1     -39.862  50.438 -53.849  1.00  0.00     0.116 A 
HETATM   17  F   UNL     1     -39.835  49.681 -54.953  1.00  0.00    -0.206 F 
HETATM   18  C   UNL     1     -39.599  49.858 -52.616  1.00  0.00     0.043 A 
HETATM   19  C   UNL     1     -39.640  50.646 -51.466  1.00  0.00     0.012 A 
ENDBRANCH  12  13
ENDBRANCH   8  12
ENDBRANCH   5   6
ENDBRANCH   2   5
BRANCH   1  20
HETATM   20  C   UNL     1     -44.665  57.928 -53.412  1.00  0.00     0.043 A 
HETATM   21  C   UNL     1     -44.660  57.683 -54.784  1.00  0.00     0.002 A 
HETATM   22  C   UNL     1     -44.320  56.448 -55.555  1.00  0.00     0.276 C 
HETATM   23  C   UNL     1     -44.973  58.709 -55.696  1.00  0.00    -0.022 A 
HETATM   24  N   UNL     1     -44.191  56.874 -57.026  1.00  0.00    -0.063 N 
HETATM   25  H   UNL     1     -44.745  56.218 -57.586  1.00  0.00     0.280 HD
HETATM   26  C   UNL     1     -44.877  58.229 -57.104  1.00  0.00     0.274 C 
HETATM   27  C   UNL     1     -45.313  59.984 -55.275  1.00  0.00     0.009 A 
HETATM   28  C   UNL     1     -45.301  60.247 -53.911  1.00  0.00     0.003 A 
HETATM   29  C   UNL     1     -44.967  59.236 -52.996  1.00  0.00     0.030 A 
BRANCH  24  30
HETATM   30  C   UNL     1     -42.780  56.903 -57.547  1.00  0.00     0.239 C 
BRANCH  30  31
HETATM   31  C   UNL     1     -42.628  56.201 -58.908  1.00  0.00     0.003 C 
HETATM   32  C   UNL     1     -42.399  57.258 -59.993  1.00  0.00     0.011 C 
HETATM   33  C   UNL     1     -43.836  55.340 -59.276  1.00  0.00     0.011 C 
ENDBRANCH  30  31
ENDBRANCH  24  30
ENDBRANCH   1  20
TORSDOF 7
ENDMDL
MODEL 2
REMARK VINA RESULT:      -8.3      1.289      2.914
REMARK  7 active torsions:
REMARK  status: ('A' for Active; 'I' for Inactive)
REMARK    1  A    between atoms: C_2  and  C_3 
REMARK    2  A    between atoms: C_3  and  N_4 
REMARK    3  A    between atoms: C_10  and  N_11 
REMARK       I    between atoms: N_11  and  C_12 
REMARK    4  A    between atoms: C_12  and  C_13 
REMARK    5  A    between atoms: C_13  and  N_14 
REMARK       I    between atoms: N_14  and  C_15 
REMARK       I    between atoms: C_15  and  N_16 
REMARK    6  A    between atoms: N_16  and  C_17 
REMARK    7  A    between atoms: C_17  and  C_18 
ROOT
HETATM    1  N   UNL     1     -43.579  55.793 -53.252  1.00  0.00    -0.325 N 
HETATM    2  C   UNL     1     -42.697  56.095 -52.231  1.00  0.00     0.239 C 
HETATM    3  O   UNL     1     -41.590  56.605 -52.385  1.00  0.00    -0.271 OA
HETATM    4  H   UNL     1     -44.387  55.235 -52.975  1.00  0.00     0.169 HD
ENDROOT
BRANCH   2   5
HETATM    5  C   UNL     1     -43.175  55.644 -50.848  1.00  0.00     0.227 C 
BRANCH   5   6
HETATM    6  N   UNL     1     -42.167  55.832 -49.817  1.00  0.00    -0.334 N 
HETATM    7  C   UNL     1     -41.317  54.835 -49.437  1.00  0.00     0.316 C 
HETATM    8  N   UNL     1     -40.858  54.066 -50.464  1.00  0.00    -0.339 N 
HETATM    9  O   UNL     1     -41.047  54.663 -48.258  1.00  0.00    -0.247 OA
HETATM   10  H   UNL     1     -40.436  54.629 -51.190  1.00  0.00     0.164 HD
HETATM   11  H   UNL     1     -42.478  56.344 -48.999  1.00  0.00     0.164 HD
BRANCH   8  12
HETATM   12  C   UNL     1     -40.176  52.817 -50.188  1.00  0.00     0.162 C 
BRANCH  12  13
HETATM   13  C   UNL     1     -40.051  52.035 -51.472  1.00  0.00    -0.040 A 
HETATM   14  C   UNL     1     -39.669  50.687 -51.472  1.00  0.00     0.012 A 
HETATM   15  C   UNL     1     -39.532  49.995 -52.678  1.00  0.00     0.043 A 
HETATM   16  C   UNL     1     -39.784  50.649 -53.880  1.00  0.00     0.116 A 
HETATM   17  F   UNL     1     -39.641  49.984 -55.033  1.00  0.00    -0.206 F 
HETATM   18  C   UNL     1     -40.175  51.980 -53.902  1.00  0.00     0.043 A 
HETATM   19  C   UNL     1     -40.311  52.674 -52.700  1.00  0.00     0.012 A 
ENDBRANCH  12  13
ENDBRANCH   8  12
ENDBRANCH   5   6
ENDBRANCH   2   5
BRANCH   1  20
HETATM   20  C   UNL     1     -43.425  56.009 -54.639  1.00  0.00     0.043 A 
HETATM   21  C   UNL     1     -43.557  57.216 -55.322  1.00  0.00     0.002 A 
HETATM   22  C   UNL     1     -43.928  58.580 -54.834  1.00  0.00     0.276 C 
HETATM   23  C   UNL     1     -43.370  57.275 -56.716  1.00  0.00    -0.022 A 
HETATM   24  N   UNL     1     -44.216  59.428 -56.083  1.00  0.00    -0.063 N 
HETATM   25  H   UNL     1     -43.697  60.306 -55.985  1.00  0.00     0.280 HD
HETATM   26  C   UNL     1     -43.588  58.656 -57.234  1.00  0.00     0.274 C 
HETATM   27  C   UNL     1     -43.034  56.154 -57.458  1.00  0.00     0.009 A 
HETATM   28  C   UNL     1     -42.920  54.940 -56.792  1.00  0.00     0.003 A 
HETATM   29  C   UNL     1     -43.129  54.869 -55.406  1.00  0.00     0.030 A 
BRANCH  24  30
HETATM   30  C   UNL     1     -45.671  59.732 -56.311  1.00  0.00     0.239 C 
BRANCH  30  31
HETATM   31  C   UNL     1     -46.172  59.270 -57.691  1.00  0.00     0.003 C 
HETATM   32  C   UNL     1     -46.869  60.442 -58.388  1.00  0.00     0.011 C 
HETATM   33  C   UNL     1     -47.125  58.077 -57.613  1.00  0.00     0.011 C 
ENDBRANCH  30  31
ENDBRANCH  24  30
ENDBRANCH   1  20
TORSDOF 7
ENDMDL
MODEL 3
REMARK VINA RESULT:      -8.1      2.198      4.035
REMARK  7 active torsions:
REMARK  status: ('A' for Active; 'I' for Inactive)
REMARK    1  A    between atoms: C_2  and  C_3 
REMARK    2  A    between atoms: C_3  and  N_4 
REMARK    3  A    between atoms: C_10  and  N_11 
REMARK       I    between atoms: N_11  and  C_12 
REMARK    4  A    between atoms: C_12  and  C_13 
REMARK    5  A    between atoms: C_13  and  N_14 
REMARK       I    between atoms: N_14  and  C_15 
REMARK       I    between atoms: C_15  and  N_16 
REMARK    6  A    between atoms: N_16  and  C_17 
REMARK    7  A    between atoms: C_17  and  C_18 
ROOT
HETATM    1  N   UNL     1     -43.529  55.974 -56.361  1.00  0.00    -0.325 N 
HETATM    2  C   UNL     1     -42.871  55.104 -55.510  1.00  0.00     0.239 C 
HETATM    3  O   UNL     1     -41.710  54.727 -55.649  1.00  0.00    -0.271 OA
HETATM    4  H   UNL     1     -44.531  56.067 -56.194  1.00  0.00     0.169 HD
ENDROOT
BRANCH   2   5
HETATM    5  C   UNL     1     -43.756  54.546 -54.392  1.00  0.00     0.227 C 
BRANCH   5   6
HETATM    6  N   UNL     1     -43.735  55.373 -53.195  1.00  0.00    -0.334 N 
HETATM    7  C   UNL     1     -42.888  55.129 -52.154  1.00  0.00     0.316 C 
HETATM    8  N   UNL     1     -41.637  54.741 -52.527  1.00  0.00    -0.339 N 
HETATM    9  O   UNL     1     -43.276  55.228 -51.000  1.00  0.00    -0.247 OA
HETATM   10  H   UNL     1     -41.220  55.400 -53.171  1.00  0.00     0.164 HD
HETATM   11  H   UNL     1     -44.648  55.636 -52.838  1.00  0.00     0.164 HD
BRANCH   8  12
HETATM   12  C   UNL     1     -40.724  54.189 -51.545  1.00  0.00     0.162 C 
BRANCH  12  13
HETATM   13  C   UNL     1     -40.323  52.801 -51.980  1.00  0.00    -0.040 A 
HETATM   14  C   UNL     1     -39.962  51.820 -51.046  1.00  0.00     0.012 A 
HETATM   15  C   UNL     1     -39.565  50.551 -51.477  1.00  0.00     0.043 A 
HETATM   16  C   UNL     1     -39.537  50.264 -52.838  1.00  0.00     0.116 A 
HETATM   17  F   UNL     1     -39.146  49.050 -53.247  1.00  0.00    -0.206 F 
HETATM   18  C   UNL     1     -39.901  51.217 -53.779  1.00  0.00     0.043 A 
HETATM   19  C   UNL     1     -40.296  52.484 -53.352  1.00  0.00     0.012 A 
ENDBRANCH  12  13
ENDBRANCH   8  12
ENDBRANCH   5   6
ENDBRANCH   2   5
BRANCH   1  20
HETATM   20  C   UNL     1     -43.034  56.613 -57.518  1.00  0.00     0.043 A 
HETATM   21  C   UNL     1     -42.569  57.923 -57.622  1.00  0.00     0.002 A 
HETATM   22  C   UNL     1     -42.495  59.018 -56.607  1.00  0.00     0.276 C 
HETATM   23  C   UNL     1     -42.101  58.421 -58.854  1.00  0.00    -0.022 A 
HETATM   24  N   UNL     1     -42.194  60.311 -57.380  1.00  0.00    -0.063 N 
HETATM   25  H   UNL     1     -41.416  60.780 -56.905  1.00  0.00     0.280 HD
HETATM   26  C   UNL     1     -41.683  59.848 -58.736  1.00  0.00     0.274 C 
HETATM   27  C   UNL     1     -42.066  57.637 -59.995  1.00  0.00     0.009 A 
HETATM   28  C   UNL     1     -42.546  56.337 -59.909  1.00  0.00     0.003 A 
HETATM   29  C   UNL     1     -43.036  55.840 -58.692  1.00  0.00     0.030 A 
BRANCH  24  30
HETATM   30  C   UNL     1     -43.355  61.261 -57.489  1.00  0.00     0.239 C 
BRANCH  30  31
HETATM   31  C   UNL     1     -44.201  61.032 -58.754  1.00  0.00     0.003 C 
HETATM   32  C   UNL     1     -44.603  62.390 -59.338  1.00  0.00     0.011 C 
HETATM   33  C   UNL     1     -45.452  60.192 -58.495  1.00  0.00     0.011 C 
ENDBRANCH  30  31
ENDBRANCH  24  30
ENDBRANCH   1  20
TORSDOF 7
ENDMDL
MODEL 4
REMARK VINA RESULT:      -8.1      2.456      3.679
REMARK  7 active torsions:
REMARK  status: ('A' for Active; 'I' for Inactive)
REMARK    1  A    between atoms: C_2  and  C_3 
REMARK    2  A    between atoms: C_3  and  N_4 
REMARK    3  A    between atoms: C_10  and  N_11 
REMARK       I    between atoms: N_11  and  C_12 
REMARK    4  A    between atoms: C_12  and  C_13 
REMARK    5  A    between atoms: C_13  and  N_14 
REMARK       I    between atoms: N_14  and  C_15 
REMARK       I    between atoms: C_15  and  N_16 
REMARK    6  A    between atoms: N_16  and  C_17 
REMARK    7  A    between atoms: C_17  and  C_18 
ROOT
HETATM    1  N   UNL     1     -43.009  58.291 -55.331  1.00  0.00    -0.325 N 
HETATM    2  C   UNL     1     -44.076  58.323 -54.453  1.00  0.00     0.239 C 
HETATM    3  O   UNL     1     -45.090  59.001 -54.602  1.00  0.00    -0.271 OA
HETATM    4  H   UNL     1     -42.182  57.800 -54.990  1.00  0.00     0.169 HD
ENDROOT
BRANCH   2   5
HETATM    5  C   UNL     1     -43.856  57.497 -53.182  1.00  0.00     0.227 C 
BRANCH   5   6
HETATM    6  N   UNL     1     -44.218  56.099 -53.353  1.00  0.00    -0.334 N 
HETATM    7  C   UNL     1     -43.385  55.195 -53.944  1.00  0.00     0.316 C 
HETATM    8  N   UNL     1     -42.071  55.345 -53.617  1.00  0.00    -0.339 N 
HETATM    9  O   UNL     1     -43.822  54.363 -54.724  1.00  0.00    -0.247 OA
HETATM   10  H   UNL     1     -41.935  55.344 -52.615  1.00  0.00     0.164 HD
HETATM   11  H   UNL     1     -45.171  55.935 -53.660  1.00  0.00     0.164 HD
BRANCH   8  12
HETATM   12  C   UNL     1     -41.050  54.645 -54.371  1.00  0.00     0.162 C 
BRANCH  12  13
HETATM   13  C   UNL     1     -40.547  53.485 -53.548  1.00  0.00    -0.040 A 
HETATM   14  C   UNL     1     -40.463  53.562 -52.151  1.00  0.00     0.012 A 
HETATM   15  C   UNL     1     -39.966  52.483 -51.416  1.00  0.00     0.043 A 
HETATM   16  C   UNL     1     -39.559  51.329 -52.076  1.00  0.00     0.116 A 
HETATM   17  F   UNL     1     -39.073  50.302 -51.368  1.00  0.00    -0.206 F 
HETATM   18  C   UNL     1     -39.643  51.226 -53.458  1.00  0.00     0.043 A 
HETATM   19  C   UNL     1     -40.139  52.302 -54.194  1.00  0.00     0.012 A 
ENDBRANCH  12  13
ENDBRANCH   8  12
ENDBRANCH   5   6
ENDBRANCH   2   5
BRANCH   1  20
HETATM   20  C   UNL     1     -42.856  58.981 -56.553  1.00  0.00     0.043 A 
HETATM   21  C   UNL     1     -43.479  58.693 -57.766  1.00  0.00     0.002 A 
HETATM   22  C   UNL     1     -44.419  57.593 -58.145  1.00  0.00     0.276 C 
HETATM   23  C   UNL     1     -43.225  59.479 -58.906  1.00  0.00    -0.022 A 
HETATM   24  N   UNL     1     -44.514  57.610 -59.679  1.00  0.00    -0.063 N 
HETATM   25  H   UNL     1     -45.508  57.587 -59.926  1.00  0.00     0.280 HD
HETATM   26  C   UNL     1     -43.975  58.971 -60.091  1.00  0.00     0.274 C 
HETATM   27  C   UNL     1     -42.371  60.569 -58.869  1.00  0.00     0.009 A 
HETATM   28  C   UNL     1     -41.727  60.854 -57.672  1.00  0.00     0.003 A 
HETATM   29  C   UNL     1     -41.956  60.061 -56.536  1.00  0.00     0.030 A 
BRANCH  24  30
HETATM   30  C   UNL     1     -43.806  56.472 -60.362  1.00  0.00     0.239 C 
BRANCH  30  31
HETATM   31  C   UNL     1     -44.743  55.298 -60.698  1.00  0.00     0.003 C 
HETATM   32  C   UNL     1     -46.182  55.815 -60.785  1.00  0.00     0.011 C 
HETATM   33  C   UNL     1     -44.666  54.159 -59.681  1.00  0.00     0.011 C 
ENDBRANCH  30  31
ENDBRANCH  24  30
ENDBRANCH   1  20
TORSDOF 7
ENDMDL
MODEL 5
REMARK VINA RESULT:      -8.0      2.307      3.870
REMARK  7 active torsions:
REMARK  status: ('A' for Active; 'I' for Inactive)
REMARK    1  A    between atoms: C_2  and  C_3 
REMARK    2  A    between atoms: C_3  and  N_4 
REMARK    3  A    between atoms: C_10  and  N_11 
REMARK       I    between atoms: N_11  and  C_12 
REMARK    4  A    between atoms: C_12  and  C_13 
REMARK    5  A    between atoms: C_13  and  N_14 
REMARK       I    between atoms: N_14  and  C_15 
REMARK       I    between atoms: C_15  and  N_16 
REMARK    6  A    between atoms: N_16  and  C_17 
REMARK    7  A    between atoms: C_17  and  C_18 
ROOT
HETATM    1  N   UNL     1     -43.963  56.448 -56.242  1.00  0.00    -0.325 N 
HETATM    2  C   UNL     1     -43.159  56.778 -55.167  1.00  0.00     0.239 C 
HETATM    3  O   UNL     1     -42.095  57.386 -55.245  1.00  0.00    -0.271 OA
HETATM    4  H   UNL     1     -44.732  55.811 -56.029  1.00  0.00     0.169 HD
ENDROOT
BRANCH   2   5
HETATM    5  C   UNL     1     -43.659  56.225 -53.829  1.00  0.00     0.227 C 
BRANCH   5   6
HETATM    6  N   UNL     1     -43.050  56.888 -52.686  1.00  0.00    -0.334 N 
HETATM    7  C   UNL     1     -42.280  56.220 -51.780  1.00  0.00     0.316 C 
HETATM    8  N   UNL     1     -41.454  55.284 -52.326  1.00  0.00    -0.339 N 
HETATM    9  O   UNL     1     -42.384  56.450 -50.585  1.00  0.00    -0.247 OA
HETATM   10  H   UNL     1     -40.875  55.680 -53.054  1.00  0.00     0.164 HD
HETATM   11  H   UNL     1     -43.648  57.549 -52.203  1.00  0.00     0.164 HD
BRANCH   8  12
HETATM   12  C   UNL     1     -40.788  54.317 -51.476  1.00  0.00     0.162 C 
BRANCH  12  13
HETATM   13  C   UNL     1     -40.428  53.107 -52.301  1.00  0.00    -0.040 A 
HETATM   14  C   UNL     1     -40.722  53.045 -53.671  1.00  0.00     0.012 A 
HETATM   15  C   UNL     1     -40.405  51.900 -54.406  1.00  0.00     0.043 A 
HETATM   16  C   UNL     1     -39.790  50.824 -53.774  1.00  0.00     0.116 A 
HETATM   17  F   UNL     1     -39.498  49.725 -54.481  1.00  0.00    -0.206 F 
HETATM   18  C   UNL     1     -39.480  50.869 -52.422  1.00  0.00     0.043 A 
HETATM   19  C   UNL     1     -39.796  52.010 -51.686  1.00  0.00     0.012 A 
ENDBRANCH  12  13
ENDBRANCH   8  12
ENDBRANCH   5   6
ENDBRANCH   2   5
BRANCH   1  20
HETATM   20  C   UNL     1     -43.765  56.739 -57.610  1.00  0.00     0.043 A 
HETATM   21  C   UNL     1     -44.379  57.744 -58.353  1.00  0.00     0.002 A 
HETATM   22  C   UNL     1     -45.420  58.748 -57.970  1.00  0.00     0.276 C 
HETATM   23  C   UNL     1     -44.076  57.913 -59.718  1.00  0.00    -0.022 A 
HETATM   24  N   UNL     1     -45.926  59.374 -59.279  1.00  0.00    -0.063 N 
HETATM   25  H   UNL     1     -45.913  60.392 -59.158  1.00  0.00     0.280 HD
HETATM   26  C   UNL     1     -44.869  59.026 -60.315  1.00  0.00     0.274 C 
HETATM   27  C   UNL     1     -43.153  57.110 -60.368  1.00  0.00     0.009 A 
HETATM   28  C   UNL     1     -42.549  56.091 -59.642  1.00  0.00     0.003 A 
HETATM   29  C   UNL     1     -42.864  55.900 -58.288  1.00  0.00     0.030 A 
BRANCH  24  30
HETATM   30  C   UNL     1     -47.307  58.940 -59.686  1.00  0.00     0.239 C 
BRANCH  30  31
HETATM   31  C   UNL     1     -47.328  58.184 -61.027  1.00  0.00     0.003 C 
HETATM   32  C   UNL     1     -48.485  58.711 -61.880  1.00  0.00     0.011 C 
HETATM   33  C   UNL     1     -47.459  56.670 -60.859  1.00  0.00     0.011 C 
ENDBRANCH  30  31
ENDBRANCH  24  30
ENDBRANCH   1  20
TORSDOF 7
ENDMDL
MODEL 6
REMARK VINA RESULT:      -8.0      3.117      8.206
REMARK  7 active torsions:
REMARK  status: ('A' for Active; 'I' for Inactive)
REMARK    1  A    between atoms: C_2  and  C_3 
REMARK    2  A    between atoms: C_3  and  N_4 
REMARK    3  A    between atoms: C_10  and  N_11 
REMARK       I    between atoms: N_11  and  C_12 
REMARK    4  A    between atoms: C_12  and  C_13 
REMARK    5  A    between atoms: C_13  and  N_14 
REMARK       I    between atoms: N_14  and  C_15 
REMARK       I    between atoms: C_15  and  N_16 
REMARK    6  A    between atoms: N_16  and  C_17 
REMARK    7  A    between atoms: C_17  and  C_18 
ROOT
HETATM    1  N   UNL     1     -42.061  53.880 -54.440  1.00  0.00    -0.325 N 
HETATM    2  C   UNL     1     -41.898  54.943 -55.310  1.00  0.00     0.239 C 
HETATM    3  O   UNL     1     -41.102  55.865 -55.153  1.00  0.00    -0.271 OA
HETATM    4  H   UNL     1     -42.865  53.283 -54.633  1.00  0.00     0.169 HD
ENDROOT
BRANCH   2   5
HETATM    5  C   UNL     1     -42.885  54.941 -56.480  1.00  0.00     0.227 C 
BRANCH   5   6
HETATM    6  N   UNL     1     -42.668  56.046 -57.399  1.00  0.00    -0.334 N 
HETATM    7  C   UNL     1     -43.392  57.201 -57.337  1.00  0.00     0.316 C 
HETATM    8  N   UNL     1     -43.650  57.634 -56.071  1.00  0.00    -0.339 N 
HETATM    9  O   UNL     1     -43.784  57.745 -58.358  1.00  0.00    -0.247 OA
HETATM   10  H   UNL     1     -42.802  57.722 -55.528  1.00  0.00     0.164 HD
HETATM   11  H   UNL     1     -42.534  55.780 -58.369  1.00  0.00     0.164 HD
BRANCH   8  12
HETATM   12  C   UNL     1     -44.629  58.680 -55.847  1.00  0.00     0.162 C 
BRANCH  12  13
HETATM   13  C   UNL     1     -44.873  58.809 -54.364  1.00  0.00    -0.040 A 
HETATM   14  C   UNL     1     -45.269  60.026 -53.792  1.00  0.00     0.012 A 
HETATM   15  C   UNL     1     -45.460  60.125 -52.412  1.00  0.00     0.043 A 
HETATM   16  C   UNL     1     -45.261  59.008 -51.607  1.00  0.00     0.116 A 
HETATM   17  F   UNL     1     -45.435  59.111 -50.283  1.00  0.00    -0.206 F 
HETATM   18  C   UNL     1     -44.881  57.790 -52.153  1.00  0.00     0.043 A 
HETATM   19  C   UNL     1     -44.688  57.689 -53.531  1.00  0.00     0.012 A 
ENDBRANCH  12  13
ENDBRANCH   8  12
ENDBRANCH   5   6
ENDBRANCH   2   5
BRANCH   1  20
HETATM   20  C   UNL     1     -41.368  53.613 -53.239  1.00  0.00     0.043 A 
HETATM   21  C   UNL     1     -41.471  54.309 -52.036  1.00  0.00     0.002 A 
HETATM   22  C   UNL     1     -42.269  55.520 -51.673  1.00  0.00     0.276 C 
HETATM   23  C   UNL     1     -40.712  53.919 -50.916  1.00  0.00    -0.022 A 
HETATM   24  N   UNL     1     -41.735  56.003 -50.315  1.00  0.00    -0.063 N 
HETATM   25  H   UNL     1     -42.543  56.157 -49.704  1.00  0.00     0.280 HD
HETATM   26  C   UNL     1     -40.961  54.821 -49.755  1.00  0.00     0.274 C 
HETATM   27  C   UNL     1     -39.855  52.832 -50.955  1.00  0.00     0.009 A 
HETATM   28  C   UNL     1     -39.728  52.143 -52.154  1.00  0.00     0.003 A 
HETATM   29  C   UNL     1     -40.463  52.539 -53.282  1.00  0.00     0.030 A 
BRANCH  24  30
HETATM   30  C   UNL     1     -40.913  57.261 -50.379  1.00  0.00     0.239 C 
BRANCH  30  31
HETATM   31  C   UNL     1     -41.500  58.314 -51.336  1.00  0.00     0.003 C 
HETATM   32  C   UNL     1     -40.575  58.458 -52.548  1.00  0.00     0.011 C 
HETATM   33  C   UNL     1     -41.700  59.679 -50.676  1.00  0.00     0.011 C 
ENDBRANCH  30  31
ENDBRANCH  24  30
ENDBRANCH   1  20
TORSDOF 7
ENDMDL
MODEL 7
REMARK VINA RESULT:      -7.9      3.040      4.760
REMARK  7 active torsions:
REMARK  status: ('A' for Active; 'I' for Inactive)
REMARK    1  A    between atoms: C_2  and  C_3 
REMARK    2  A    between atoms: C_3  and  N_4 
REMARK    3  A    between atoms: C_10  and  N_11 
REMARK       I    between atoms: N_11  and  C_12 
REMARK    4  A    between atoms: C_12  and  C_13 
REMARK    5  A    between atoms: C_13  and  N_14 
REMARK       I    between atoms: N_14  and  C_15 
REMARK       I    between atoms: C_15  and  N_16 
REMARK    6  A    between atoms: N_16  and  C_17 
REMARK    7  A    between atoms: C_17  and  C_18 
ROOT
HETATM    1  N   UNL     1     -42.626  60.170 -54.681  1.00  0.00    -0.325 N 
HETATM    2  C   UNL     1     -41.748  59.929 -53.640  1.00  0.00     0.239 C 
HETATM    3  O   UNL     1     -40.687  59.318 -53.741  1.00  0.00    -0.271 OA
HETATM    4  H   UNL     1     -43.529  60.554 -54.404  1.00  0.00     0.169 HD
ENDROOT
BRANCH   2   5
HETATM    5  C   UNL     1     -42.255  60.414 -52.279  1.00  0.00     0.227 C 
BRANCH   5   6
HETATM    6  N   UNL     1     -43.707  60.462 -52.206  1.00  0.00    -0.334 N 
HETATM    7  C   UNL     1     -44.466  59.348 -51.997  1.00  0.00     0.316 C 
HETATM    8  N   UNL     1     -43.939  58.472 -51.096  1.00  0.00    -0.339 N 
HETATM    9  O   UNL     1     -45.505  59.177 -52.616  1.00  0.00    -0.247 OA
HETATM   10  H   UNL     1     -43.730  58.924 -50.216  1.00  0.00     0.164 HD
HETATM   11  H   UNL     1     -44.153  61.052 -52.900  1.00  0.00     0.164 HD
BRANCH   8  12
HETATM   12  C   UNL     1     -44.486  57.134 -50.978  1.00  0.00     0.162 C 
BRANCH  12  13
HETATM   13  C   UNL     1     -43.374  56.134 -51.177  1.00  0.00    -0.040 A 
HETATM   14  C   UNL     1     -43.538  54.784 -50.837  1.00  0.00     0.012 A 
HETATM   15  C   UNL     1     -42.482  53.884 -51.004  1.00  0.00     0.043 A 
HETATM   16  C   UNL     1     -41.268  54.333 -51.515  1.00  0.00     0.116 A 
HETATM   17  F   UNL     1     -40.256  53.470 -51.662  1.00  0.00    -0.206 F 
HETATM   18  C   UNL     1     -41.089  55.663 -51.868  1.00  0.00     0.043 A 
HETATM   19  C   UNL     1     -42.141  56.564 -51.702  1.00  0.00     0.012 A 
ENDBRANCH  12  13
ENDBRANCH   8  12
ENDBRANCH   5   6
ENDBRANCH   2   5
BRANCH   1  20
HETATM   20  C   UNL     1     -42.501  59.802 -56.038  1.00  0.00     0.043 A 
HETATM   21  C   UNL     1     -42.997  58.651 -56.647  1.00  0.00     0.002 A 
HETATM   22  C   UNL     1     -43.738  57.484 -56.075  1.00  0.00     0.276 C 
HETATM   23  C   UNL     1     -42.793  58.423 -58.021  1.00  0.00    -0.022 A 
HETATM   24  N   UNL     1     -43.738  56.394 -57.159  1.00  0.00    -0.063 N 
HETATM   25  H   UNL     1     -44.701  56.056 -57.254  1.00  0.00     0.280 HD
HETATM   26  C   UNL     1     -43.384  57.122 -58.447  1.00  0.00     0.274 C 
HETATM   27  C   UNL     1     -42.115  59.328 -58.821  1.00  0.00     0.009 A 
HETATM   28  C   UNL     1     -41.597  60.469 -58.222  1.00  0.00     0.003 A 
HETATM   29  C   UNL     1     -41.775  60.693 -56.848  1.00  0.00     0.030 A 
BRANCH  24  30
HETATM   30  C   UNL     1     -42.827  55.231 -56.876  1.00  0.00     0.239 C 
BRANCH  30  31
HETATM   31  C   UNL     1     -42.437  55.122 -55.392  1.00  0.00     0.003 C 
HETATM   32  C   UNL     1     -41.044  54.494 -55.286  1.00  0.00     0.011 C 
HETATM   33  C   UNL     1     -43.434  54.305 -54.569  1.00  0.00     0.011 C 
ENDBRANCH  30  31
ENDBRANCH  24  30
ENDBRANCH   1  20
TORSDOF 7
ENDMDL
MODEL 8
REMARK VINA RESULT:      -7.7      1.938      3.016
REMARK  7 active torsions:
REMARK  status: ('A' for Active; 'I' for Inactive)
REMARK    1  A    between atoms: C_2  and  C_3 
REMARK    2  A    between atoms: C_3  and  N_4 
REMARK    3  A    between atoms: C_10  and  N_11 
REMARK       I    between atoms: N_11  and  C_12 
REMARK    4  A    between atoms: C_12  and  C_13 
REMARK    5  A    between atoms: C_13  and  N_14 
REMARK       I    between atoms: N_14  and  C_15 
REMARK       I    between atoms: C_15  and  N_16 
REMARK    6  A    between atoms: N_16  and  C_17 
REMARK    7  A    between atoms: C_17  and  C_18 
ROOT
HETATM    1  N   UNL     1     -43.191  57.495 -55.143  1.00  0.00    -0.325 N 
HETATM    2  C   UNL     1     -42.079  58.223 -54.759  1.00  0.00     0.239 C 
HETATM    3  O   UNL     1     -41.638  59.201 -55.357  1.00  0.00    -0.271 OA
HETATM    4  H   UNL     1     -43.335  56.625 -54.631  1.00  0.00     0.169 HD
ENDROOT
BRANCH   2   5
HETATM    5  C   UNL     1     -41.352  57.645 -53.543  1.00  0.00     0.227 C 
BRANCH   5   6
HETATM    6  N   UNL     1     -42.159  57.685 -52.334  1.00  0.00    -0.334 N 
HETATM    7  C   UNL     1     -42.411  56.572 -51.586  1.00  0.00     0.316 C 
HETATM    8  N   UNL     1     -41.349  55.727 -51.462  1.00  0.00    -0.339 N 
HETATM    9  O   UNL     1     -43.522  56.374 -51.118  1.00  0.00    -0.247 OA
HETATM   10  H   UNL     1     -40.531  56.208 -51.111  1.00  0.00     0.164 HD
HETATM   11  H   UNL     1     -42.999  58.250 -52.396  1.00  0.00     0.164 HD
BRANCH   8  12
HETATM   12  C   UNL     1     -41.542  54.390 -50.936  1.00  0.00     0.162 C 
BRANCH  12  13
HETATM   13  C   UNL     1     -40.926  53.398 -51.891  1.00  0.00    -0.040 A 
HETATM   14  C   UNL     1     -41.269  53.383 -53.250  1.00  0.00     0.012 A 
HETATM   15  C   UNL     1     -40.706  52.434 -54.107  1.00  0.00     0.043 A 
HETATM   16  C   UNL     1     -39.798  51.507 -53.606  1.00  0.00     0.116 A 
HETATM   17  F   UNL     1     -39.269  50.592 -54.429  1.00  0.00    -0.206 F 
HETATM   18  C   UNL     1     -39.436  51.510 -52.266  1.00  0.00     0.043 A 
HETATM   19  C   UNL     1     -39.997  52.456 -51.408  1.00  0.00     0.012 A 
ENDBRANCH  12  13
ENDBRANCH   8  12
ENDBRANCH   5   6
ENDBRANCH   2   5
BRANCH   1  20
HETATM   20  C   UNL     1     -44.044  57.711 -56.246  1.00  0.00     0.043 A 
HETATM   21  C   UNL     1     -43.784  57.412 -57.582  1.00  0.00     0.002 A 
HETATM   22  C   UNL     1     -42.567  56.842 -58.237  1.00  0.00     0.276 C 
HETATM   23  C   UNL     1     -44.742  57.685 -58.577  1.00  0.00    -0.022 A 
HETATM   24  N   UNL     1     -42.754  57.036 -59.750  1.00  0.00    -0.063 N 
HETATM   25  H   UNL     1     -42.552  56.139 -60.203  1.00  0.00     0.280 HD
HETATM   26  C   UNL     1     -44.239  57.311 -59.930  1.00  0.00     0.274 C 
HETATM   27  C   UNL     1     -45.975  58.240 -58.274  1.00  0.00     0.009 A 
HETATM   28  C   UNL     1     -46.238  58.562 -56.949  1.00  0.00     0.003 A 
HETATM   29  C   UNL     1     -45.280  58.315 -55.954  1.00  0.00     0.030 A 
BRANCH  24  30
HETATM   30  C   UNL     1     -41.886  58.104 -60.356  1.00  0.00     0.239 C 
BRANCH  30  31
HETATM   31  C   UNL     1     -42.496  59.513 -60.236  1.00  0.00     0.003 C 
HETATM   32  C   UNL     1     -42.208  60.293 -61.522  1.00  0.00     0.011 C 
HETATM   33  C   UNL     1     -41.968  60.293 -59.031  1.00  0.00     0.011 C 
ENDBRANCH  30  31
ENDBRANCH  24  30
ENDBRANCH   1  20
TORSDOF 7
ENDMDL
MODEL 9
REMARK VINA RESULT:      -7.7      3.352      5.523
REMARK  7 active torsions:
REMARK  status: ('A' for Active; 'I' for Inactive)
REMARK    1  A    between atoms: C_2  and  C_3 
REMARK    2  A    between atoms: C_3  and  N_4 
REMARK    3  A    between atoms: C_10  and  N_11 
REMARK       I    between atoms: N_11  and  C_12 
REMARK    4  A    between atoms: C_12  and  C_13 
REMARK    5  A    between atoms: C_13  and  N_14 
REMARK       I    between atoms: N_14  and  C_15 
REMARK       I    between atoms: C_15  and  N_16 
REMARK    6  A    between atoms: N_16  and  C_17 
REMARK    7  A    between atoms: C_17  and  C_18 
ROOT
HETATM    1  N   UNL     1     -42.353  56.903 -53.093  1.00  0.00    -0.325 N 
HETATM    2  C   UNL     1     -42.338  57.018 -54.471  1.00  0.00     0.239 C 
HETATM    3  O   UNL     1     -42.045  58.038 -55.089  1.00  0.00    -0.271 OA
HETATM    4  H   UNL     1     -42.765  56.041 -52.735  1.00  0.00     0.169 HD
ENDROOT
BRANCH   2   5
HETATM    5  C   UNL     1     -42.822  55.762 -55.201  1.00  0.00     0.227 C 
BRANCH   5   6
HETATM    6  N   UNL     1     -41.736  55.021 -55.823  1.00  0.00    -0.334 N 
HETATM    7  C   UNL     1     -40.923  54.185 -55.116  1.00  0.00     0.316 C 
HETATM    8  N   UNL     1     -41.564  53.448 -54.166  1.00  0.00    -0.339 N 
HETATM    9  O   UNL     1     -39.720  54.161 -55.327  1.00  0.00    -0.247 OA
HETATM   10  H   UNL     1     -42.341  52.933 -54.558  1.00  0.00     0.164 HD
HETATM   11  H   UNL     1     -41.185  55.546 -56.493  1.00  0.00     0.164 HD
BRANCH   8  12
HETATM   12  C   UNL     1     -40.800  52.731 -53.164  1.00  0.00     0.162 C 
BRANCH  12  13
HETATM   13  C   UNL     1     -40.951  53.435 -51.839  1.00  0.00    -0.040 A 
HETATM   14  C   UNL     1     -42.190  53.935 -51.415  1.00  0.00     0.012 A 
HETATM   15  C   UNL     1     -42.296  54.610 -50.196  1.00  0.00     0.043 A 
HETATM   16  C   UNL     1     -41.167  54.779 -49.402  1.00  0.00     0.116 A 
HETATM   17  F   UNL     1     -41.271  55.436 -48.240  1.00  0.00    -0.206 F 
HETATM   18  C   UNL     1     -39.932  54.282 -49.797  1.00  0.00     0.043 A 
HETATM   19  C   UNL     1     -39.823  53.609 -51.014  1.00  0.00     0.012 A 
ENDBRANCH  12  13
ENDBRANCH   8  12
ENDBRANCH   5   6
ENDBRANCH   2   5
BRANCH   1  20
HETATM   20  C   UNL     1     -42.033  57.881 -52.126  1.00  0.00     0.043 A 
HETATM   21  C   UNL     1     -42.857  58.902 -51.657  1.00  0.00     0.002 A 
HETATM   22  C   UNL     1     -44.249  59.290 -52.044  1.00  0.00     0.276 C 
HETATM   23  C   UNL     1     -42.394  59.806 -50.682  1.00  0.00    -0.022 A 
HETATM   24  N   UNL     1     -44.506  60.671 -51.419  1.00  0.00    -0.063 N 
HETATM   25  H   UNL     1     -45.410  60.627 -50.937  1.00  0.00     0.280 HD
HETATM   26  C   UNL     1     -43.431  60.826 -50.355  1.00  0.00     0.274 C 
HETATM   27  C   UNL     1     -41.123  59.711 -50.141  1.00  0.00     0.009 A 
HETATM   28  C   UNL     1     -40.284  58.710 -50.615  1.00  0.00     0.003 A 
HETATM   29  C   UNL     1     -40.730  57.820 -51.603  1.00  0.00     0.030 A 
BRANCH  24  30
HETATM   30  C   UNL     1     -44.522  61.809 -52.402  1.00  0.00     0.239 C 
BRANCH  30  31
HETATM   31  C   UNL     1     -44.667  61.340 -53.861  1.00  0.00     0.003 C 
HETATM   32  C   UNL     1     -43.473  61.853 -54.672  1.00  0.00     0.011 C 
HETATM   33  C   UNL     1     -45.970  61.804 -54.513  1.00  0.00     0.011 C 
ENDBRANCH  30  31
ENDBRANCH  24  30
ENDBRANCH   1  20
TORSDOF 7
ENDMDL
MODEL 10
REMARK VINA RESULT:      -7.6      2.965      4.415
REMARK  7 active torsions:
REMARK  status: ('A' for Active; 'I' for Inactive)
REMARK    1  A    between atoms: C_2  and  C_3 
REMARK    2  A    between atoms: C_3  and  N_4 
REMARK    3  A    between atoms: C_10  and  N_11 
REMARK       I    between atoms: N_11  and  C_12 
REMARK    4  A    between atoms: C_12  and  C_13 
REMARK    5  A    between atoms: C_13  and  N_14 
REMARK       I    between atoms: N_14  and  C_15 
REMARK       I    between atoms: C_15  and  N_16 
REMARK    6  A    between atoms: N_16  and  C_17 
REMARK    7  A    between atoms: C_17  and  C_18 
ROOT
HETATM    1  N   UNL     1     -42.737  57.538 -56.624  1.00  0.00    -0.325 N 
HETATM    2  C   UNL     1     -42.195  58.174 -55.522  1.00  0.00     0.239 C 
HETATM    3  O   UNL     1     -41.782  59.331 -55.509  1.00  0.00    -0.271 OA
HETATM    4  H   UNL     1     -42.888  56.535 -56.513  1.00  0.00     0.169 HD
ENDROOT
BRANCH   2   5
HETATM    5  C   UNL     1     -42.051  57.270 -54.295  1.00  0.00     0.227 C 
BRANCH   5   6
HETATM    6  N   UNL     1     -42.899  56.090 -54.365  1.00  0.00    -0.334 N 
HETATM    7  C   UNL     1     -42.434  54.881 -54.792  1.00  0.00     0.316 C 
HETATM    8  N   UNL     1     -41.176  54.579 -54.365  1.00  0.00    -0.339 N 
HETATM    9  O   UNL     1     -43.112  54.178 -55.526  1.00  0.00    -0.247 OA
HETATM   10  H   UNL     1     -41.099  54.649 -53.359  1.00  0.00     0.164 HD
HETATM   11  H   UNL     1     -43.828  56.249 -54.739  1.00  0.00     0.164 HD
BRANCH   8  12
HETATM   12  C   UNL     1     -40.454  53.470 -54.956  1.00  0.00     0.162 C 
BRANCH  12  13
HETATM   13  C   UNL     1     -40.133  52.467 -53.876  1.00  0.00    -0.040 A 
HETATM   14  C   UNL     1     -39.889  51.120 -54.180  1.00  0.00     0.012 A 
HETATM   15  C   UNL     1     -39.623  50.207 -53.157  1.00  0.00     0.043 A 
HETATM   16  C   UNL     1     -39.594  50.640 -51.836  1.00  0.00     0.116 A 
HETATM   17  F   UNL     1     -39.349  49.758 -50.858  1.00  0.00    -0.206 F 
HETATM   18  C   UNL     1     -39.821  51.971 -51.514  1.00  0.00     0.043 A 
HETATM   19  C   UNL     1     -40.088  52.886 -52.532  1.00  0.00     0.012 A 
ENDBRANCH  12  13
ENDBRANCH   8  12
ENDBRANCH   5   6
ENDBRANCH   2   5
BRANCH   1  20
HETATM   20  C   UNL     1     -42.948  58.054 -57.921  1.00  0.00     0.043 A 
HETATM   21  C   UNL     1     -44.147  58.523 -58.455  1.00  0.00     0.002 A 
HETATM   22  C   UNL     1     -45.522  58.579 -57.870  1.00  0.00     0.276 C 
HETATM   23  C   UNL     1     -44.200  59.013 -59.774  1.00  0.00    -0.022 A 
HETATM   24  N   UNL     1     -46.478  58.896 -59.031  1.00  0.00    -0.063 N 
HETATM   25  H   UNL     1     -47.084  59.665 -58.729  1.00  0.00     0.280 HD
HETATM   26  C   UNL     1     -45.584  59.431 -60.139  1.00  0.00     0.274 C 
HETATM   27  C   UNL     1     -43.076  59.068 -60.581  1.00  0.00     0.009 A 
HETATM   28  C   UNL     1     -41.879  58.585 -60.067  1.00  0.00     0.003 A 
HETATM   29  C   UNL     1     -41.822  58.072 -58.762  1.00  0.00     0.030 A 
BRANCH  24  30
HETATM   30  C   UNL     1     -47.328  57.737 -59.475  1.00  0.00     0.239 C 
BRANCH  30  31
HETATM   31  C   UNL     1     -46.745  56.996 -60.691  1.00  0.00     0.003 C 
HETATM   32  C   UNL     1     -47.877  56.671 -61.669  1.00  0.00     0.011 C 
HETATM   33  C   UNL     1     -46.008  55.711 -60.312  1.00  0.00     0.011 C 
ENDBRANCH  30  31
ENDBRANCH  24  30
ENDBRANCH   1  20
TORSDOF 7
ENDMDL
