MODEL 1
REMARK VINA RESULT:      -8.8      0.000      0.000
REMARK  8 active torsions:
REMARK  status: ('A' for Active; 'I' for Inactive)
REMARK    1  A    between atoms: C_4  and  N_5 
REMARK       I    between atoms: N_5  and  C_6 
REMARK    2  A    between atoms: C_6  and  C_7 
REMARK    3  A    between atoms: C_7  and  N_8 
REMARK    4  A    between atoms: C_7  and  C_24 
REMARK    5  A    between atoms: N_8  and  C_11 
REMARK    6  A    between atoms: C_11  and  C_12 
REMARK    7  A    between atoms: C_15  and  N_16 
REMARK    8  A    between atoms: C_31  and  O_32 
ROOT
HETATM    1  C   UNL     1     -40.562  53.750 -53.205  1.00  0.00     0.310 C 
ENDROOT
BRANCH   1   2
HETATM    2  C   UNL     1     -40.835  54.305 -54.626  1.00  0.00     0.257 C 
HETATM    3  N   UNL     1     -42.060  54.864 -54.881  1.00  0.00    -0.323 N 
HETATM    4  H   UNL     1     -42.806  54.818 -54.187  1.00  0.00     0.169 HD
HETATM    5  O   UNL     1     -39.854  54.336 -55.379  1.00  0.00    -0.270 OA
BRANCH   3   6
HETATM    6  C   UNL     1     -42.426  55.661 -55.996  1.00  0.00     0.069 A 
HETATM    7  C   UNL     1     -42.899  55.141 -57.205  1.00  0.00     0.039 A 
HETATM    8  C   UNL     1     -43.190  55.991 -58.281  1.00  0.00    -0.060 A 
HETATM    9  C   UNL     1     -43.724  55.437 -59.570  1.00  0.00     0.048 C 
HETATM   10  C   UNL     1     -43.023  57.370 -58.126  1.00  0.00     0.009 A 
HETATM   11  C   UNL     1     -42.562  57.902 -56.919  1.00  0.00     0.039 A 
HETATM   12  C   UNL     1     -42.264  57.054 -55.850  1.00  0.00     0.095 A 
BRANCH  12  13
HETATM   13  O   UNL     1     -41.781  57.461 -54.626  1.00  0.00    -0.354 OA
HETATM   14  C   UNL     1     -41.625  58.864 -54.436  1.00  0.00     0.210 C 
ENDBRANCH  12  13
ENDBRANCH   3   6
ENDBRANCH   1   2
BRANCH   1  15
HETATM   15  N   UNL     1     -41.746  54.179 -52.375  1.00  0.00    -0.054 N 
HETATM   16  H   UNL     1     -42.348  54.712 -53.029  1.00  0.00     0.278 HD
HETATM   17  H   UNL     1     -42.323  53.364 -52.138  1.00  0.00     0.278 HD
BRANCH  15  18
HETATM   18  C   UNL     1     -41.524  55.005 -51.168  1.00  0.00     0.272 C 
BRANCH  18  19
HETATM   19  C   UNL     1     -42.219  56.320 -51.387  1.00  0.00    -0.033 A 
HETATM   20  C   UNL     1     -41.622  57.511 -50.964  1.00  0.00     0.011 A 
HETATM   21  C   UNL     1     -42.355  58.703 -50.942  1.00  0.00     0.030 A 
HETATM   22  C   UNL     1     -43.700  58.744 -51.330  1.00  0.00     0.037 A 
HETATM   23  C   UNL     1     -44.267  57.559 -51.819  1.00  0.00     0.030 A 
HETATM   24  C   UNL     1     -43.542  56.359 -51.841  1.00  0.00     0.011 A 
BRANCH  22  25
HETATM   25  N   UNL     1     -44.479  59.926 -51.208  1.00  0.00    -0.318 N 
HETATM   26  C   UNL     1     -45.573  60.105 -50.342  1.00  0.00     0.224 C 
HETATM   27  O   UNL     1     -46.027  59.334 -49.511  1.00  0.00    -0.273 OA
HETATM   28  C   UNL     1     -46.213  61.434 -50.672  1.00  0.00     0.105 C 
HETATM   29  C   UNL     1     -45.133  62.156 -51.454  1.00  0.00     0.029 C 
HETATM   30  C   UNL     1     -44.381  61.032 -52.132  1.00  0.00     0.133 C 
ENDBRANCH  22  25
ENDBRANCH  18  19
ENDBRANCH  15  18
ENDBRANCH   1  15
BRANCH   1  31
HETATM   31  C   UNL     1     -40.242  52.277 -53.099  1.00  0.00    -0.019 A 
HETATM   32  C   UNL     1     -39.765  51.766 -51.879  1.00  0.00     0.010 A 
HETATM   33  C   UNL     1     -39.438  50.415 -51.751  1.00  0.00     0.001 A 
HETATM   34  C   UNL     1     -39.580  49.558 -52.837  1.00  0.00     0.000 A 
HETATM   35  C   UNL     1     -40.041  50.049 -54.056  1.00  0.00     0.001 A 
HETATM   36  C   UNL     1     -40.368  51.400 -54.192  1.00  0.00     0.010 A 
ENDBRANCH   1  31
TORSDOF 8
ENDMDL
MODEL 2
REMARK VINA RESULT:      -8.8      2.540      5.570
REMARK  8 active torsions:
REMARK  status: ('A' for Active; 'I' for Inactive)
REMARK    1  A    between atoms: C_4  and  N_5 
REMARK       I    between atoms: N_5  and  C_6 
REMARK    2  A    between atoms: C_6  and  C_7 
REMARK    3  A    between atoms: C_7  and  N_8 
REMARK    4  A    between atoms: C_7  and  C_24 
REMARK    5  A    between atoms: N_8  and  C_11 
REMARK    6  A    between atoms: C_11  and  C_12 
REMARK    7  A    between atoms: C_15  and  N_16 
REMARK    8  A    between atoms: C_31  and  O_32 
ROOT
HETATM    1  C   UNL     1     -42.510  56.419 -53.554  1.00  0.00     0.310 C 
ENDROOT
BRANCH   1   2
HETATM    2  C   UNL     1     -42.230  54.895 -53.502  1.00  0.00     0.257 C 
HETATM    3  N   UNL     1     -40.927  54.476 -53.430  1.00  0.00    -0.323 N 
HETATM    4  H   UNL     1     -40.161  55.144 -53.517  1.00  0.00     0.169 HD
HETATM    5  O   UNL     1     -43.230  54.178 -53.373  1.00  0.00    -0.270 OA
BRANCH   3   6
HETATM    6  C   UNL     1     -40.458  53.178 -53.105  1.00  0.00     0.069 A 
HETATM    7  C   UNL     1     -40.275  52.157 -54.043  1.00  0.00     0.039 A 
HETATM    8  C   UNL     1     -39.860  50.881 -53.636  1.00  0.00    -0.060 A 
HETATM    9  C   UNL     1     -39.636  49.792 -54.645  1.00  0.00     0.048 C 
HETATM   10  C   UNL     1     -39.607  50.645 -52.282  1.00  0.00     0.009 A 
HETATM   11  C   UNL     1     -39.776  51.661 -51.337  1.00  0.00     0.039 A 
HETATM   12  C   UNL     1     -40.198  52.929 -51.742  1.00  0.00     0.095 A 
BRANCH  12  13
HETATM   13  O   UNL     1     -40.422  53.996 -50.900  1.00  0.00    -0.354 OA
HETATM   14  C   UNL     1     -39.860  53.908 -49.594  1.00  0.00     0.210 C 
ENDBRANCH  12  13
ENDBRANCH   3   6
ENDBRANCH   1   2
BRANCH   1  15
HETATM   15  N   UNL     1     -43.989  56.561 -53.298  1.00  0.00    -0.054 N 
HETATM   16  H   UNL     1     -44.428  55.806 -53.855  1.00  0.00     0.278 HD
HETATM   17  H   UNL     1     -44.205  56.294 -52.331  1.00  0.00     0.278 HD
BRANCH  15  18
HETATM   18  C   UNL     1     -44.663  57.836 -53.628  1.00  0.00     0.272 C 
BRANCH  18  19
HETATM   19  C   UNL     1     -44.683  58.673 -52.379  1.00  0.00    -0.033 A 
HETATM   20  C   UNL     1     -45.446  58.276 -51.278  1.00  0.00     0.011 A 
HETATM   21  C   UNL     1     -45.665  59.157 -50.213  1.00  0.00     0.030 A 
HETATM   22  C   UNL     1     -45.141  60.455 -50.215  1.00  0.00     0.037 A 
HETATM   23  C   UNL     1     -44.320  60.818 -51.291  1.00  0.00     0.030 A 
HETATM   24  C   UNL     1     -44.098  59.944 -52.365  1.00  0.00     0.011 A 
BRANCH  22  25
HETATM   25  N   UNL     1     -45.449  61.388 -49.188  1.00  0.00    -0.318 N 
HETATM   26  C   UNL     1     -46.305  62.497 -49.314  1.00  0.00     0.224 C 
HETATM   27  O   UNL     1     -46.978  62.842 -50.273  1.00  0.00    -0.273 OA
HETATM   28  C   UNL     1     -46.197  63.312 -48.046  1.00  0.00     0.105 C 
HETATM   29  C   UNL     1     -45.579  62.342 -47.058  1.00  0.00     0.029 C 
HETATM   30  C   UNL     1     -44.734  61.442 -47.934  1.00  0.00     0.133 C 
ENDBRANCH  22  25
ENDBRANCH  18  19
ENDBRANCH  15  18
ENDBRANCH   1  15
BRANCH   1  31
HETATM   31  C   UNL     1     -41.649  57.300 -52.679  1.00  0.00    -0.019 A 
HETATM   32  C   UNL     1     -41.747  57.182 -51.281  1.00  0.00     0.010 A 
HETATM   33  C   UNL     1     -40.984  57.994 -50.441  1.00  0.00     0.001 A 
HETATM   34  C   UNL     1     -40.115  58.935 -50.984  1.00  0.00     0.000 A 
HETATM   35  C   UNL     1     -40.012  59.072 -52.366  1.00  0.00     0.001 A 
HETATM   36  C   UNL     1     -40.775  58.264 -53.212  1.00  0.00     0.010 A 
ENDBRANCH   1  31
TORSDOF 8
ENDMDL
MODEL 3
REMARK VINA RESULT:      -8.5      3.086      7.775
REMARK  8 active torsions:
REMARK  status: ('A' for Active; 'I' for Inactive)
REMARK    1  A    between atoms: C_4  and  N_5 
REMARK       I    between atoms: N_5  and  C_6 
REMARK    2  A    between atoms: C_6  and  C_7 
REMARK    3  A    between atoms: C_7  and  N_8 
REMARK    4  A    between atoms: C_7  and  C_24 
REMARK    5  A    between atoms: N_8  and  C_11 
REMARK    6  A    between atoms: C_11  and  C_12 
REMARK    7  A    between atoms: C_15  and  N_16 
REMARK    8  A    between atoms: C_31  and  O_32 
ROOT
HETATM    1  C   UNL     1     -42.581  56.113 -56.544  1.00  0.00     0.310 C 
ENDROOT
BRANCH   1   2
HETATM    2  C   UNL     1     -42.261  54.782 -55.816  1.00  0.00     0.257 C 
HETATM    3  N   UNL     1     -41.010  54.619 -55.281  1.00  0.00    -0.323 N 
HETATM    4  H   UNL     1     -40.279  55.309 -55.452  1.00  0.00     0.169 HD
HETATM    5  O   UNL     1     -43.227  54.029 -55.642  1.00  0.00    -0.270 OA
BRANCH   3   6
HETATM    6  C   UNL     1     -40.592  53.626 -54.360  1.00  0.00     0.069 A 
HETATM    7  C   UNL     1     -40.256  52.318 -54.720  1.00  0.00     0.039 A 
HETATM    8  C   UNL     1     -39.904  51.377 -53.743  1.00  0.00    -0.060 A 
HETATM    9  C   UNL     1     -39.517  49.979 -54.132  1.00  0.00     0.048 C 
HETATM   10  C   UNL     1     -39.868  51.766 -52.402  1.00  0.00     0.009 A 
HETATM   11  C   UNL     1     -40.191  53.074 -52.030  1.00  0.00     0.039 A 
HETATM   12  C   UNL     1     -40.550  54.009 -53.003  1.00  0.00     0.095 A 
BRANCH  12  13
HETATM   13  O   UNL     1     -40.910  55.315 -52.753  1.00  0.00    -0.354 OA
HETATM   14  C   UNL     1     -41.364  55.611 -51.435  1.00  0.00     0.210 C 
ENDBRANCH  12  13
ENDBRANCH   3   6
ENDBRANCH   1   2
BRANCH   1  15
HETATM   15  N   UNL     1     -43.802  55.825 -57.382  1.00  0.00    -0.054 N 
HETATM   16  H   UNL     1     -44.191  54.949 -56.989  1.00  0.00     0.278 HD
HETATM   17  H   UNL     1     -44.535  56.515 -57.184  1.00  0.00     0.278 HD
BRANCH  15  18
HETATM   18  C   UNL     1     -43.654  55.656 -58.844  1.00  0.00     0.272 C 
BRANCH  18  19
HETATM   19  C   UNL     1     -43.249  56.987 -59.414  1.00  0.00    -0.033 A 
HETATM   20  C   UNL     1     -42.029  57.125 -60.082  1.00  0.00     0.011 A 
HETATM   21  C   UNL     1     -41.535  58.395 -60.400  1.00  0.00     0.030 A 
HETATM   22  C   UNL     1     -42.233  59.560 -60.059  1.00  0.00     0.037 A 
HETATM   23  C   UNL     1     -43.488  59.407 -59.453  1.00  0.00     0.030 A 
HETATM   24  C   UNL     1     -43.989  58.139 -59.126  1.00  0.00     0.011 A 
BRANCH  22  25
HETATM   25  N   UNL     1     -41.687  60.852 -60.283  1.00  0.00    -0.318 N 
HETATM   26  C   UNL     1     -41.014  61.639 -59.330  1.00  0.00     0.224 C 
HETATM   27  O   UNL     1     -40.723  61.363 -58.176  1.00  0.00    -0.273 OA
HETATM   28  C   UNL     1     -40.771  63.000 -59.940  1.00  0.00     0.105 C 
HETATM   29  C   UNL     1     -40.949  62.753 -61.425  1.00  0.00     0.029 C 
HETATM   30  C   UNL     1     -41.955  61.624 -61.475  1.00  0.00     0.133 C 
ENDBRANCH  22  25
ENDBRANCH  18  19
ENDBRANCH  15  18
ENDBRANCH   1  15
BRANCH   1  31
HETATM   31  C   UNL     1     -42.707  57.348 -55.682  1.00  0.00    -0.019 A 
HETATM   32  C   UNL     1     -42.106  58.545 -56.110  1.00  0.00     0.010 A 
HETATM   33  C   UNL     1     -42.182  59.700 -55.329  1.00  0.00     0.001 A 
HETATM   34  C   UNL     1     -42.857  59.675 -54.114  1.00  0.00     0.000 A 
HETATM   35  C   UNL     1     -43.450  58.495 -53.670  1.00  0.00     0.001 A 
HETATM   36  C   UNL     1     -43.375  57.336 -54.445  1.00  0.00     0.010 A 
ENDBRANCH   1  31
TORSDOF 8
ENDMDL
MODEL 4
REMARK VINA RESULT:      -8.4      2.059      5.639
REMARK  8 active torsions:
REMARK  status: ('A' for Active; 'I' for Inactive)
REMARK    1  A    between atoms: C_4  and  N_5 
REMARK       I    between atoms: N_5  and  C_6 
REMARK    2  A    between atoms: C_6  and  C_7 
REMARK    3  A    between atoms: C_7  and  N_8 
REMARK    4  A    between atoms: C_7  and  C_24 
REMARK    5  A    between atoms: N_8  and  C_11 
REMARK    6  A    between atoms: C_11  and  C_12 
REMARK    7  A    between atoms: C_15  and  N_16 
REMARK    8  A    between atoms: C_31  and  O_32 
ROOT
HETATM    1  C   UNL     1     -42.635  56.670 -53.407  1.00  0.00     0.310 C 
ENDROOT
BRANCH   1   2
HETATM    2  C   UNL     1     -42.348  55.149 -53.314  1.00  0.00     0.257 C 
HETATM    3  N   UNL     1     -41.048  54.727 -53.410  1.00  0.00    -0.323 N 
HETATM    4  H   UNL     1     -40.304  55.385 -53.644  1.00  0.00     0.169 HD
HETATM    5  O   UNL     1     -43.317  54.446 -53.003  1.00  0.00    -0.270 OA
BRANCH   3   6
HETATM    6  C   UNL     1     -40.534  53.445 -53.088  1.00  0.00     0.069 A 
HETATM    7  C   UNL     1     -40.393  52.405 -54.012  1.00  0.00     0.039 A 
HETATM    8  C   UNL     1     -39.928  51.147 -53.604  1.00  0.00    -0.060 A 
HETATM    9  C   UNL     1     -39.750  50.039 -54.601  1.00  0.00     0.048 C 
HETATM   10  C   UNL     1     -39.584  50.948 -52.265  1.00  0.00     0.009 A 
HETATM   11  C   UNL     1     -39.710  51.982 -51.334  1.00  0.00     0.039 A 
HETATM   12  C   UNL     1     -40.182  53.233 -51.739  1.00  0.00     0.095 A 
BRANCH  12  13
HETATM   13  O   UNL     1     -40.370  54.315 -50.909  1.00  0.00    -0.354 OA
HETATM   14  C   UNL     1     -39.907  54.181 -49.568  1.00  0.00     0.210 C 
ENDBRANCH  12  13
ENDBRANCH   3   6
ENDBRANCH   1   2
BRANCH   1  15
HETATM   15  N   UNL     1     -41.304  57.342 -53.178  1.00  0.00    -0.054 N 
HETATM   16  H   UNL     1     -41.183  57.341 -52.149  1.00  0.00     0.278 HD
HETATM   17  H   UNL     1     -40.544  56.735 -53.504  1.00  0.00     0.278 HD
BRANCH  15  18
HETATM   18  C   UNL     1     -41.094  58.720 -53.672  1.00  0.00     0.272 C 
BRANCH  18  19
HETATM   19  C   UNL     1     -41.727  59.657 -52.681  1.00  0.00    -0.033 A 
HETATM   20  C   UNL     1     -41.413  59.561 -51.322  1.00  0.00     0.011 A 
HETATM   21  C   UNL     1     -42.168  60.256 -50.370  1.00  0.00     0.030 A 
HETATM   22  C   UNL     1     -43.255  61.056 -50.738  1.00  0.00     0.037 A 
HETATM   23  C   UNL     1     -43.516  61.201 -52.108  1.00  0.00     0.030 A 
HETATM   24  C   UNL     1     -42.769  60.506 -53.069  1.00  0.00     0.011 A 
BRANCH  22  25
HETATM   25  N   UNL     1     -44.090  61.677 -49.770  1.00  0.00    -0.318 N 
HETATM   26  C   UNL     1     -45.250  61.118 -49.203  1.00  0.00     0.224 C 
HETATM   27  O   UNL     1     -45.729  60.009 -49.376  1.00  0.00    -0.273 OA
HETATM   28  C   UNL     1     -45.919  62.186 -48.369  1.00  0.00     0.105 C 
HETATM   29  C   UNL     1     -44.818  63.207 -48.160  1.00  0.00     0.029 C 
HETATM   30  C   UNL     1     -43.973  63.071 -49.407  1.00  0.00     0.133 C 
ENDBRANCH  22  25
ENDBRANCH  18  19
ENDBRANCH  15  18
ENDBRANCH   1  15
BRANCH   1  31
HETATM   31  C   UNL     1     -43.360  57.152 -54.643  1.00  0.00    -0.019 A 
HETATM   32  C   UNL     1     -44.591  57.816 -54.499  1.00  0.00     0.010 A 
HETATM   33  C   UNL     1     -45.299  58.256 -55.618  1.00  0.00     0.001 A 
HETATM   34  C   UNL     1     -44.790  58.037 -56.894  1.00  0.00     0.000 A 
HETATM   35  C   UNL     1     -43.577  57.373 -57.056  1.00  0.00     0.001 A 
HETATM   36  C   UNL     1     -42.864  56.928 -55.940  1.00  0.00     0.010 A 
ENDBRANCH   1  31
TORSDOF 8
ENDMDL
MODEL 5
REMARK VINA RESULT:      -8.2      2.714      6.812
REMARK  8 active torsions:
REMARK  status: ('A' for Active; 'I' for Inactive)
REMARK    1  A    between atoms: C_4  and  N_5 
REMARK       I    between atoms: N_5  and  C_6 
REMARK    2  A    between atoms: C_6  and  C_7 
REMARK    3  A    between atoms: C_7  and  N_8 
REMARK    4  A    between atoms: C_7  and  C_24 
REMARK    5  A    between atoms: N_8  and  C_11 
REMARK    6  A    between atoms: C_11  and  C_12 
REMARK    7  A    between atoms: C_15  and  N_16 
REMARK    8  A    between atoms: C_31  and  O_32 
ROOT
HETATM    1  C   UNL     1     -42.588  56.436 -53.181  1.00  0.00     0.310 C 
ENDROOT
BRANCH   1   2
HETATM    2  C   UNL     1     -42.297  54.914 -53.139  1.00  0.00     0.257 C 
HETATM    3  N   UNL     1     -40.990  54.503 -53.140  1.00  0.00    -0.323 N 
HETATM    4  H   UNL     1     -40.234  55.175 -53.273  1.00  0.00     0.169 HD
HETATM    5  O   UNL     1     -43.284  54.192 -52.950  1.00  0.00    -0.270 OA
BRANCH   3   6
HETATM    6  C   UNL     1     -40.496  53.209 -52.837  1.00  0.00     0.069 A 
HETATM    7  C   UNL     1     -40.235  52.229 -53.799  1.00  0.00     0.039 A 
HETATM    8  C   UNL     1     -39.799  50.952 -53.417  1.00  0.00    -0.060 A 
HETATM    9  C   UNL     1     -39.492  49.908 -54.451  1.00  0.00     0.048 C 
HETATM   10  C   UNL     1     -39.604  50.675 -52.061  1.00  0.00     0.009 A 
HETATM   11  C   UNL     1     -39.851  51.650 -51.091  1.00  0.00     0.039 A 
HETATM   12  C   UNL     1     -40.294  52.919 -51.472  1.00  0.00     0.095 A 
BRANCH  12  13
HETATM   13  O   UNL     1     -40.592  53.947 -50.606  1.00  0.00    -0.354 OA
HETATM   14  C   UNL     1     -39.575  54.319 -49.681  1.00  0.00     0.210 C 
ENDBRANCH  12  13
ENDBRANCH   3   6
ENDBRANCH   1   2
BRANCH   1  15
HETATM   15  N   UNL     1     -44.026  56.579 -52.748  1.00  0.00    -0.054 N 
HETATM   16  H   UNL     1     -44.552  55.934 -53.365  1.00  0.00     0.278 HD
HETATM   17  H   UNL     1     -44.155  56.170 -51.817  1.00  0.00     0.278 HD
BRANCH  15  18
HETATM   18  C   UNL     1     -44.672  57.909 -52.806  1.00  0.00     0.272 C 
BRANCH  18  19
HETATM   19  C   UNL     1     -44.566  58.401 -54.223  1.00  0.00    -0.033 A 
HETATM   20  C   UNL     1     -45.096  57.645 -55.272  1.00  0.00     0.011 A 
HETATM   21  C   UNL     1     -44.796  57.968 -56.600  1.00  0.00     0.030 A 
HETATM   22  C   UNL     1     -43.957  59.041 -56.922  1.00  0.00     0.037 A 
HETATM   23  C   UNL     1     -43.489  59.835 -55.865  1.00  0.00     0.030 A 
HETATM   24  C   UNL     1     -43.781  59.517 -54.532  1.00  0.00     0.011 A 
BRANCH  22  25
HETATM   25  N   UNL     1     -43.562  59.307 -58.261  1.00  0.00    -0.318 N 
HETATM   26  C   UNL     1     -44.385  59.835 -59.273  1.00  0.00     0.224 C 
HETATM   27  O   UNL     1     -45.545  60.211 -59.200  1.00  0.00    -0.273 OA
HETATM   28  C   UNL     1     -43.616  59.779 -60.573  1.00  0.00     0.105 C 
HETATM   29  C   UNL     1     -42.179  59.610 -60.121  1.00  0.00     0.029 C 
HETATM   30  C   UNL     1     -42.308  58.853 -58.817  1.00  0.00     0.133 C 
ENDBRANCH  22  25
ENDBRANCH  18  19
ENDBRANCH  15  18
ENDBRANCH   1  15
BRANCH   1  31
HETATM   31  C   UNL     1     -41.631  57.334 -52.430  1.00  0.00    -0.019 A 
HETATM   32  C   UNL     1     -41.655  57.336 -51.024  1.00  0.00     0.010 A 
HETATM   33  C   UNL     1     -40.801  58.168 -50.298  1.00  0.00     0.001 A 
HETATM   34  C   UNL     1     -39.916  59.009 -50.964  1.00  0.00     0.000 A 
HETATM   35  C   UNL     1     -39.886  59.027 -52.356  1.00  0.00     0.001 A 
HETATM   36  C   UNL     1     -40.739  58.199 -53.089  1.00  0.00     0.010 A 
ENDBRANCH   1  31
TORSDOF 8
ENDMDL
MODEL 6
REMARK VINA RESULT:      -8.2      1.932      2.634
REMARK  8 active torsions:
REMARK  status: ('A' for Active; 'I' for Inactive)
REMARK    1  A    between atoms: C_4  and  N_5 
REMARK       I    between atoms: N_5  and  C_6 
REMARK    2  A    between atoms: C_6  and  C_7 
REMARK    3  A    between atoms: C_7  and  N_8 
REMARK    4  A    between atoms: C_7  and  C_24 
REMARK    5  A    between atoms: N_8  and  C_11 
REMARK    6  A    between atoms: C_11  and  C_12 
REMARK    7  A    between atoms: C_15  and  N_16 
REMARK    8  A    between atoms: C_31  and  O_32 
ROOT
HETATM    1  C   UNL     1     -40.967  56.070 -54.343  1.00  0.00     0.310 C 
ENDROOT
BRANCH   1   2
HETATM    2  C   UNL     1     -42.192  56.293 -55.266  1.00  0.00     0.257 C 
HETATM    3  N   UNL     1     -41.972  56.750 -56.539  1.00  0.00    -0.323 N 
HETATM    4  H   UNL     1     -41.038  57.037 -56.834  1.00  0.00     0.169 HD
HETATM    5  O   UNL     1     -43.272  55.887 -54.819  1.00  0.00    -0.270 OA
BRANCH   3   6
HETATM    6  C   UNL     1     -42.891  56.765 -57.619  1.00  0.00     0.069 A 
HETATM    7  C   UNL     1     -43.322  55.618 -58.292  1.00  0.00     0.039 A 
HETATM    8  C   UNL     1     -44.193  55.719 -59.387  1.00  0.00    -0.060 A 
HETATM    9  C   UNL     1     -44.678  54.486 -60.094  1.00  0.00     0.048 C 
HETATM   10  C   UNL     1     -44.645  56.980 -59.785  1.00  0.00     0.009 A 
HETATM   11  C   UNL     1     -44.230  58.132 -59.112  1.00  0.00     0.039 A 
HETATM   12  C   UNL     1     -43.356  58.032 -58.027  1.00  0.00     0.095 A 
BRANCH  12  13
HETATM   13  O   UNL     1     -42.862  59.096 -57.307  1.00  0.00    -0.354 OA
HETATM   14  C   UNL     1     -43.821  59.949 -56.688  1.00  0.00     0.210 C 
ENDBRANCH  12  13
ENDBRANCH   3   6
ENDBRANCH   1   2
BRANCH   1  15
HETATM   15  N   UNL     1     -41.144  57.041 -53.203  1.00  0.00    -0.054 N 
HETATM   16  H   UNL     1     -42.166  57.209 -53.157  1.00  0.00     0.278 HD
HETATM   17  H   UNL     1     -40.942  56.577 -52.311  1.00  0.00     0.278 HD
BRANCH  15  18
HETATM   18  C   UNL     1     -40.459  58.351 -53.254  1.00  0.00     0.272 C 
BRANCH  18  19
HETATM   19  C   UNL     1     -41.274  59.319 -52.442  1.00  0.00    -0.033 A 
HETATM   20  C   UNL     1     -40.982  59.527 -51.091  1.00  0.00     0.011 A 
HETATM   21  C   UNL     1     -41.872  60.232 -50.273  1.00  0.00     0.030 A 
HETATM   22  C   UNL     1     -43.077  60.742 -50.770  1.00  0.00     0.037 A 
HETATM   23  C   UNL     1     -43.327  60.589 -52.141  1.00  0.00     0.030 A 
HETATM   24  C   UNL     1     -42.443  59.881 -52.968  1.00  0.00     0.011 A 
BRANCH  22  25
HETATM   25  N   UNL     1     -44.033  61.363 -49.922  1.00  0.00    -0.318 N 
HETATM   26  C   UNL     1     -45.257  60.804 -49.512  1.00  0.00     0.224 C 
HETATM   27  O   UNL     1     -45.708  59.693 -49.744  1.00  0.00    -0.273 OA
HETATM   28  C   UNL     1     -46.032  61.873 -48.777  1.00  0.00     0.105 C 
HETATM   29  C   UNL     1     -44.970  62.896 -48.427  1.00  0.00     0.029 C 
HETATM   30  C   UNL     1     -43.967  62.759 -49.551  1.00  0.00     0.133 C 
ENDBRANCH  22  25
ENDBRANCH  18  19
ENDBRANCH  15  18
ENDBRANCH   1  15
BRANCH   1  31
HETATM   31  C   UNL     1     -40.696  54.650 -53.901  1.00  0.00    -0.019 A 
HETATM   32  C   UNL     1     -40.764  54.334 -52.533  1.00  0.00     0.010 A 
HETATM   33  C   UNL     1     -40.499  53.039 -52.086  1.00  0.00     0.001 A 
HETATM   34  C   UNL     1     -40.161  52.044 -52.997  1.00  0.00     0.000 A 
HETATM   35  C   UNL     1     -40.079  52.341 -54.355  1.00  0.00     0.001 A 
HETATM   36  C   UNL     1     -40.341  53.636 -54.809  1.00  0.00     0.010 A 
ENDBRANCH   1  31
TORSDOF 8
ENDMDL
MODEL 7
REMARK VINA RESULT:      -8.2      1.789      5.442
REMARK  8 active torsions:
REMARK  status: ('A' for Active; 'I' for Inactive)
REMARK    1  A    between atoms: C_4  and  N_5 
REMARK       I    between atoms: N_5  and  C_6 
REMARK    2  A    between atoms: C_6  and  C_7 
REMARK    3  A    between atoms: C_7  and  N_8 
REMARK    4  A    between atoms: C_7  and  C_24 
REMARK    5  A    between atoms: N_8  and  C_11 
REMARK    6  A    between atoms: C_11  and  C_12 
REMARK    7  A    between atoms: C_15  and  N_16 
REMARK    8  A    between atoms: C_31  and  O_32 
ROOT
HETATM    1  C   UNL     1     -43.243  56.090 -55.900  1.00  0.00     0.310 C 
ENDROOT
BRANCH   1   2
HETATM    2  C   UNL     1     -42.659  54.743 -55.401  1.00  0.00     0.257 C 
HETATM    3  N   UNL     1     -41.433  54.753 -54.790  1.00  0.00    -0.323 N 
HETATM    4  H   UNL     1     -40.875  55.606 -54.760  1.00  0.00     0.169 HD
HETATM    5  O   UNL     1     -43.431  53.778 -55.462  1.00  0.00    -0.270 OA
BRANCH   3   6
HETATM    6  C   UNL     1     -40.843  53.711 -54.030  1.00  0.00     0.069 A 
HETATM    7  C   UNL     1     -40.469  52.473 -54.562  1.00  0.00     0.039 A 
HETATM    8  C   UNL     1     -39.940  51.473 -53.735  1.00  0.00    -0.060 A 
HETATM    9  C   UNL     1     -39.513  50.153 -54.310  1.00  0.00     0.048 C 
HETATM   10  C   UNL     1     -39.768  51.732 -52.373  1.00  0.00     0.009 A 
HETATM   11  C   UNL     1     -40.128  52.969 -51.832  1.00  0.00     0.039 A 
HETATM   12  C   UNL     1     -40.663  53.964 -52.655  1.00  0.00     0.095 A 
BRANCH  12  13
HETATM   13  O   UNL     1     -41.074  55.207 -52.230  1.00  0.00    -0.354 OA
HETATM   14  C   UNL     1     -41.137  55.413 -50.822  1.00  0.00     0.210 C 
ENDBRANCH  12  13
ENDBRANCH   3   6
ENDBRANCH   1   2
BRANCH   1  15
HETATM   15  N   UNL     1     -42.905  57.093 -54.825  1.00  0.00    -0.054 N 
HETATM   16  H   UNL     1     -41.926  56.879 -54.563  1.00  0.00     0.278 HD
HETATM   17  H   UNL     1     -42.839  58.033 -55.230  1.00  0.00     0.278 HD
BRANCH  15  18
HETATM   18  C   UNL     1     -43.720  57.135 -53.591  1.00  0.00     0.272 C 
BRANCH  18  19
HETATM   19  C   UNL     1     -43.553  58.501 -52.986  1.00  0.00    -0.033 A 
HETATM   20  C   UNL     1     -42.502  58.755 -52.100  1.00  0.00     0.011 A 
HETATM   21  C   UNL     1     -42.476  59.936 -51.350  1.00  0.00     0.030 A 
HETATM   22  C   UNL     1     -43.493  60.892 -51.453  1.00  0.00     0.037 A 
HETATM   23  C   UNL     1     -44.505  60.659 -52.396  1.00  0.00     0.030 A 
HETATM   24  C   UNL     1     -44.542  59.477 -53.148  1.00  0.00     0.011 A 
BRANCH  22  25
HETATM   25  N   UNL     1     -43.529  62.041 -50.617  1.00  0.00    -0.318 N 
HETATM   26  C   UNL     1     -44.127  62.117 -49.347  1.00  0.00     0.224 C 
HETATM   27  O   UNL     1     -44.669  61.233 -48.700  1.00  0.00    -0.273 OA
HETATM   28  C   UNL     1     -44.091  63.561 -48.902  1.00  0.00     0.105 C 
HETATM   29  C   UNL     1     -43.041  64.177 -49.805  1.00  0.00     0.029 C 
HETATM   30  C   UNL     1     -43.143  63.357 -51.072  1.00  0.00     0.133 C 
ENDBRANCH  22  25
ENDBRANCH  18  19
ENDBRANCH  15  18
ENDBRANCH   1  15
BRANCH   1  31
HETATM   31  C   UNL     1     -42.851  56.529 -57.292  1.00  0.00    -0.019 A 
HETATM   32  C   UNL     1     -42.300  57.809 -57.477  1.00  0.00     0.010 A 
HETATM   33  C   UNL     1     -41.947  58.257 -58.750  1.00  0.00     0.001 A 
HETATM   34  C   UNL     1     -42.140  57.435 -59.855  1.00  0.00     0.000 A 
HETATM   35  C   UNL     1     -42.693  56.167 -59.693  1.00  0.00     0.001 A 
HETATM   36  C   UNL     1     -43.051  55.714 -58.421  1.00  0.00     0.010 A 
ENDBRANCH   1  31
TORSDOF 8
ENDMDL
MODEL 8
REMARK VINA RESULT:      -8.1      3.054      7.606
REMARK  8 active torsions:
REMARK  status: ('A' for Active; 'I' for Inactive)
REMARK    1  A    between atoms: C_4  and  N_5 
REMARK       I    between atoms: N_5  and  C_6 
REMARK    2  A    between atoms: C_6  and  C_7 
REMARK    3  A    between atoms: C_7  and  N_8 
REMARK    4  A    between atoms: C_7  and  C_24 
REMARK    5  A    between atoms: N_8  and  C_11 
REMARK    6  A    between atoms: C_11  and  C_12 
REMARK    7  A    between atoms: C_15  and  N_16 
REMARK    8  A    between atoms: C_31  and  O_32 
ROOT
HETATM    1  C   UNL     1     -42.822  56.298 -54.868  1.00  0.00     0.310 C 
ENDROOT
BRANCH   1   2
HETATM    2  C   UNL     1     -42.375  54.844 -54.571  1.00  0.00     0.257 C 
HETATM    3  N   UNL     1     -41.101  54.638 -54.109  1.00  0.00    -0.323 N 
HETATM    4  H   UNL     1     -40.434  55.408 -54.064  1.00  0.00     0.169 HD
HETATM    5  O   UNL     1     -43.270  53.992 -54.631  1.00  0.00    -0.270 OA
BRANCH   3   6
HETATM    6  C   UNL     1     -40.579  53.455 -53.526  1.00  0.00     0.069 A 
HETATM    7  C   UNL     1     -40.261  52.303 -54.251  1.00  0.00     0.039 A 
HETATM    8  C   UNL     1     -39.799  51.153 -53.595  1.00  0.00    -0.060 A 
HETATM    9  C   UNL     1     -39.431  49.924 -54.375  1.00  0.00     0.048 C 
HETATM   10  C   UNL     1     -39.637  51.177 -52.207  1.00  0.00     0.009 A 
HETATM   11  C   UNL     1     -39.941  52.326 -51.474  1.00  0.00     0.039 A 
HETATM   12  C   UNL     1     -40.410  53.469 -52.126  1.00  0.00     0.095 A 
BRANCH  12  13
HETATM   13  O   UNL     1     -40.763  54.647 -51.506  1.00  0.00    -0.354 OA
HETATM   14  C   UNL     1     -40.639  54.684 -50.088  1.00  0.00     0.210 C 
ENDBRANCH  12  13
ENDBRANCH   3   6
ENDBRANCH   1   2
BRANCH   1  15
HETATM   15  N   UNL     1     -43.679  56.207 -56.105  1.00  0.00    -0.054 N 
HETATM   16  H   UNL     1     -44.384  55.481 -55.885  1.00  0.00     0.278 HD
HETATM   17  H   UNL     1     -44.242  57.058 -56.207  1.00  0.00     0.278 HD
BRANCH  15  18
HETATM   18  C   UNL     1     -43.048  55.866 -57.399  1.00  0.00     0.272 C 
BRANCH  18  19
HETATM   19  C   UNL     1     -42.882  57.146 -58.171  1.00  0.00    -0.033 A 
HETATM   20  C   UNL     1     -42.302  57.130 -59.444  1.00  0.00     0.011 A 
HETATM   21  C   UNL     1     -41.924  58.326 -60.064  1.00  0.00     0.030 A 
HETATM   22  C   UNL     1     -42.101  59.565 -59.438  1.00  0.00     0.037 A 
HETATM   23  C   UNL     1     -42.747  59.574 -58.194  1.00  0.00     0.030 A 
HETATM   24  C   UNL     1     -43.127  58.381 -57.562  1.00  0.00     0.011 A 
BRANCH  22  25
HETATM   25  N   UNL     1     -41.622  60.772 -60.016  1.00  0.00    -0.318 N 
HETATM   26  C   UNL     1     -40.851  61.749 -59.361  1.00  0.00     0.224 C 
HETATM   27  O   UNL     1     -40.406  61.739 -58.224  1.00  0.00    -0.273 OA
HETATM   28  C   UNL     1     -40.723  62.937 -60.286  1.00  0.00     0.105 C 
HETATM   29  C   UNL     1     -41.087  62.363 -61.642  1.00  0.00     0.029 C 
HETATM   30  C   UNL     1     -42.062  61.257 -61.304  1.00  0.00     0.133 C 
ENDBRANCH  22  25
ENDBRANCH  18  19
ENDBRANCH  15  18
ENDBRANCH   1  15
BRANCH   1  31
HETATM   31  C   UNL     1     -43.468  57.057 -53.731  1.00  0.00    -0.019 A 
HETATM   32  C   UNL     1     -43.638  56.418 -52.490  1.00  0.00     0.010 A 
HETATM   33  C   UNL     1     -44.249  57.081 -51.425  1.00  0.00     0.001 A 
HETATM   34  C   UNL     1     -44.700  58.387 -51.584  1.00  0.00     0.000 A 
HETATM   35  C   UNL     1     -44.549  59.032 -52.809  1.00  0.00     0.001 A 
HETATM   36  C   UNL     1     -43.940  58.374 -53.880  1.00  0.00     0.010 A 
ENDBRANCH   1  31
TORSDOF 8
ENDMDL
MODEL 9
REMARK VINA RESULT:      -8.0     16.111     19.469
REMARK  8 active torsions:
REMARK  status: ('A' for Active; 'I' for Inactive)
REMARK    1  A    between atoms: C_4  and  N_5 
REMARK       I    between atoms: N_5  and  C_6 
REMARK    2  A    between atoms: C_6  and  C_7 
REMARK    3  A    between atoms: C_7  and  N_8 
REMARK    4  A    between atoms: C_7  and  C_24 
REMARK    5  A    between atoms: N_8  and  C_11 
REMARK    6  A    between atoms: C_11  and  C_12 
REMARK    7  A    between atoms: C_15  and  N_16 
REMARK    8  A    between atoms: C_31  and  O_32 
ROOT
HETATM    1  C   UNL     1     -34.100  40.212 -53.046  1.00  0.00     0.310 C 
ENDROOT
BRANCH   1   2
HETATM    2  C   UNL     1     -33.194  39.849 -51.841  1.00  0.00     0.257 C 
HETATM    3  N   UNL     1     -33.708  39.986 -50.578  1.00  0.00    -0.323 N 
HETATM    4  H   UNL     1     -34.621  40.415 -50.433  1.00  0.00     0.169 HD
HETATM    5  O   UNL     1     -32.118  39.312 -52.131  1.00  0.00    -0.270 OA
BRANCH   3   6
HETATM    6  C   UNL     1     -33.172  39.468 -49.371  1.00  0.00     0.069 A 
HETATM    7  C   UNL     1     -31.944  39.862 -48.830  1.00  0.00     0.039 A 
HETATM    8  C   UNL     1     -31.456  39.263 -47.660  1.00  0.00    -0.060 A 
HETATM    9  C   UNL     1     -30.151  39.705 -47.063  1.00  0.00     0.048 C 
HETATM   10  C   UNL     1     -32.222  38.282 -47.024  1.00  0.00     0.009 A 
HETATM   11  C   UNL     1     -33.455  37.888 -47.550  1.00  0.00     0.039 A 
HETATM   12  C   UNL     1     -33.937  38.478 -48.721  1.00  0.00     0.095 A 
BRANCH  12  13
HETATM   13  O   UNL     1     -35.123  38.154 -49.341  1.00  0.00    -0.354 OA
HETATM   14  C   UNL     1     -36.314  38.353 -48.587  1.00  0.00     0.210 C 
ENDBRANCH  12  13
ENDBRANCH   3   6
ENDBRANCH   1   2
BRANCH   1  15
HETATM   15  N   UNL     1     -34.347  41.695 -52.927  1.00  0.00    -0.054 N 
HETATM   16  H   UNL     1     -34.043  41.936 -51.966  1.00  0.00     0.278 HD
HETATM   17  H   UNL     1     -33.686  42.209 -53.518  1.00  0.00     0.278 HD
BRANCH  15  18
HETATM   18  C   UNL     1     -35.715  42.219 -53.129  1.00  0.00     0.272 C 
BRANCH  18  19
HETATM   19  C   UNL     1     -36.098  41.943 -54.557  1.00  0.00    -0.033 A 
HETATM   20  C   UNL     1     -37.104  41.018 -54.849  1.00  0.00     0.011 A 
HETATM   21  C   UNL     1     -37.301  40.576 -56.162  1.00  0.00     0.030 A 
HETATM   22  C   UNL     1     -36.503  41.034 -57.217  1.00  0.00     0.037 A 
HETATM   23  C   UNL     1     -35.544  42.014 -56.923  1.00  0.00     0.030 A 
HETATM   24  C   UNL     1     -35.336  42.459 -55.610  1.00  0.00     0.011 A 
BRANCH  22  25
HETATM   25  N   UNL     1     -36.627  40.510 -58.532  1.00  0.00    -0.318 N 
HETATM   26  C   UNL     1     -37.135  41.199 -59.648  1.00  0.00     0.224 C 
HETATM   27  O   UNL     1     -37.509  42.359 -59.729  1.00  0.00    -0.273 OA
HETATM   28  C   UNL     1     -37.257  40.212 -60.787  1.00  0.00     0.105 C 
HETATM   29  C   UNL     1     -36.365  39.066 -60.351  1.00  0.00     0.029 C 
HETATM   30  C   UNL     1     -36.451  39.109 -58.841  1.00  0.00     0.133 C 
ENDBRANCH  22  25
ENDBRANCH  18  19
ENDBRANCH  15  18
ENDBRANCH   1  15
BRANCH   1  31
HETATM   31  C   UNL     1     -33.621  39.778 -54.412  1.00  0.00    -0.019 A 
HETATM   32  C   UNL     1     -34.210  38.655 -55.020  1.00  0.00     0.010 A 
HETATM   33  C   UNL     1     -33.779  38.213 -56.271  1.00  0.00     0.001 A 
HETATM   34  C   UNL     1     -32.754  38.882 -56.931  1.00  0.00     0.000 A 
HETATM   35  C   UNL     1     -32.152  39.991 -56.340  1.00  0.00     0.001 A 
HETATM   36  C   UNL     1     -32.578  40.437 -55.087  1.00  0.00     0.010 A 
ENDBRANCH   1  31
TORSDOF 8
ENDMDL
MODEL 10
REMARK VINA RESULT:      -8.0      4.156      8.638
REMARK  8 active torsions:
REMARK  status: ('A' for Active; 'I' for Inactive)
REMARK    1  A    between atoms: C_4  and  N_5 
REMARK       I    between atoms: N_5  and  C_6 
REMARK    2  A    between atoms: C_6  and  C_7 
REMARK    3  A    between atoms: C_7  and  N_8 
REMARK    4  A    between atoms: C_7  and  C_24 
REMARK    5  A    between atoms: N_8  and  C_11 
REMARK    6  A    between atoms: C_11  and  C_12 
REMARK    7  A    between atoms: C_15  and  N_16 
REMARK    8  A    between atoms: C_31  and  O_32 
ROOT
HETATM    1  C   UNL     1     -42.723  56.192 -56.819  1.00  0.00     0.310 C 
ENDROOT
BRANCH   1   2
HETATM    2  C   UNL     1     -42.354  54.927 -56.002  1.00  0.00     0.257 C 
HETATM    3  N   UNL     1     -41.146  54.900 -55.357  1.00  0.00    -0.323 N 
HETATM    4  H   UNL     1     -40.464  55.645 -55.499  1.00  0.00     0.169 HD
HETATM    5  O   UNL     1     -43.264  54.098 -55.872  1.00  0.00    -0.270 OA
BRANCH   3   6
HETATM    6  C   UNL     1     -40.726  53.988 -54.355  1.00  0.00     0.069 A 
HETATM    7  C   UNL     1     -40.327  52.673 -54.615  1.00  0.00     0.039 A 
HETATM    8  C   UNL     1     -39.977  51.814 -53.564  1.00  0.00    -0.060 A 
HETATM    9  C   UNL     1     -39.523  50.410 -53.843  1.00  0.00     0.048 C 
HETATM   10  C   UNL     1     -40.008  52.293 -52.251  1.00  0.00     0.009 A 
HETATM   11  C   UNL     1     -40.395  53.608 -51.981  1.00  0.00     0.039 A 
HETATM   12  C   UNL     1     -40.752  54.461 -53.027  1.00  0.00     0.095 A 
BRANCH  12  13
HETATM   13  O   UNL     1     -41.170  55.765 -52.879  1.00  0.00    -0.354 OA
HETATM   14  C   UNL     1     -41.980  56.050 -51.743  1.00  0.00     0.210 C 
ENDBRANCH  12  13
ENDBRANCH   3   6
ENDBRANCH   1   2
BRANCH   1  15
HETATM   15  N   UNL     1     -43.648  55.708 -57.907  1.00  0.00    -0.054 N 
HETATM   16  H   UNL     1     -43.490  54.685 -57.952  1.00  0.00     0.278 HD
HETATM   17  H   UNL     1     -44.623  55.780 -57.597  1.00  0.00     0.278 HD
BRANCH  15  18
HETATM   18  C   UNL     1     -43.514  56.261 -59.272  1.00  0.00     0.272 C 
BRANCH  18  19
HETATM   19  C   UNL     1     -44.868  56.766 -59.690  1.00  0.00    -0.033 A 
HETATM   20  C   UNL     1     -45.868  55.866 -60.068  1.00  0.00     0.011 A 
HETATM   21  C   UNL     1     -47.038  56.325 -60.684  1.00  0.00     0.030 A 
HETATM   22  C   UNL     1     -47.243  57.684 -60.948  1.00  0.00     0.037 A 
HETATM   23  C   UNL     1     -46.265  58.583 -60.501  1.00  0.00     0.030 A 
HETATM   24  C   UNL     1     -45.088  58.133 -59.887  1.00  0.00     0.011 A 
BRANCH  22  25
HETATM   25  N   UNL     1     -48.378  58.144 -61.669  1.00  0.00    -0.318 N 
HETATM   26  C   UNL     1     -48.992  57.482 -62.748  1.00  0.00     0.224 C 
HETATM   27  O   UNL     1     -48.722  56.395 -63.234  1.00  0.00    -0.273 OA
HETATM   28  C   UNL     1     -50.038  58.408 -63.326  1.00  0.00     0.105 C 
HETATM   29  C   UNL     1     -50.259  59.419 -62.218  1.00  0.00     0.029 C 
HETATM   30  C   UNL     1     -48.915  59.477 -61.524  1.00  0.00     0.133 C 
ENDBRANCH  22  25
ENDBRANCH  18  19
ENDBRANCH  15  18
ENDBRANCH   1  15
BRANCH   1  31
HETATM   31  C   UNL     1     -43.256  57.374 -56.042  1.00  0.00    -0.019 A 
HETATM   32  C   UNL     1     -44.262  57.164 -55.081  1.00  0.00     0.010 A 
HETATM   33  C   UNL     1     -44.794  58.234 -54.360  1.00  0.00     0.001 A 
HETATM   34  C   UNL     1     -44.332  59.525 -54.589  1.00  0.00     0.000 A 
HETATM   35  C   UNL     1     -43.344  59.753 -55.544  1.00  0.00     0.001 A 
HETATM   36  C   UNL     1     -42.809  58.687 -56.271  1.00  0.00     0.010 A 
ENDBRANCH   1  31
TORSDOF 8
ENDMDL
