MODEL 1
REMARK VINA RESULT:      -8.6      0.000      0.000
REMARK  9 active torsions:
REMARK  status: ('A' for Active; 'I' for Inactive)
REMARK    1  A    between atoms: C_4  and  C_5 
REMARK    2  A    between atoms: C_8  and  C_9 
REMARK       I    between atoms: C_9  and  N_10 
REMARK    3  A    between atoms: N_10  and  C_11 
REMARK    4  A    between atoms: N_10  and  C_26 
REMARK    5  A    between atoms: C_11  and  C_12 
REMARK    6  A    between atoms: C_11  and  C_21 
REMARK       I    between atoms: C_12  and  N_13 
REMARK    7  A    between atoms: N_13  and  C_14 
REMARK    8  A    between atoms: C_14  and  C_15 
REMARK    9  A    between atoms: C_26  and  C_27 
ROOT
HETATM    1  C   UNL     1     -41.133  56.595 -50.444  1.00  0.00     0.271 C 
HETATM    2  N   UNL     1     -41.797  57.121 -51.557  1.00  0.00    -0.324 N 
HETATM    3  O   UNL     1     -40.814  57.318 -49.498  1.00  0.00    -0.266 OA
ENDROOT
BRANCH   2   4
HETATM    4  C   UNL     1     -41.887  58.593 -51.728  1.00  0.00     0.220 C 
BRANCH   4   5
HETATM    5  C   UNL     1     -41.446  59.123 -53.129  1.00  0.00     0.245 C 
HETATM    6  N   UNL     1     -42.456  59.482 -53.993  1.00  0.00    -0.357 N 
HETATM    7  H   UNL     1     -43.366  59.662 -53.567  1.00  0.00     0.162 HD
HETATM    8  O   UNL     1     -40.260  59.307 -53.406  1.00  0.00    -0.271 OA
BRANCH   6   9
HETATM    9  C   UNL     1     -42.214  60.099 -55.284  1.00  0.00     0.154 C 
BRANCH   9  10
HETATM   10  C   UNL     1     -42.957  59.429 -56.443  1.00  0.00     0.139 C 
HETATM   11  O   UNL     1     -42.038  58.851 -57.393  1.00  0.00    -0.384 OA
HETATM   12  C   UNL     1     -42.654  57.681 -57.954  1.00  0.00     0.168 C 
HETATM   13  C   UNL     1     -43.995  57.498 -57.270  1.00  0.00     0.029 C 
HETATM   14  C   UNL     1     -43.821  58.267 -55.985  1.00  0.00     0.035 C 
ENDBRANCH   9  10
ENDBRANCH   6   9
ENDBRANCH   4   5
BRANCH   4  15
HETATM   15  C   UNL     1     -43.226  59.196 -51.313  1.00  0.00     0.014 A 
HETATM   16  S   UNL     1     -43.334  60.796 -50.676  1.00  0.00    -0.104 SA
HETATM   17  C   UNL     1     -45.032  60.719 -50.542  1.00  0.00     0.050 A 
HETATM   18  C   UNL     1     -45.531  59.525 -51.005  1.00  0.00     0.008 A 
HETATM   19  C   UNL     1     -44.497  58.654 -51.452  1.00  0.00     0.017 A 
ENDBRANCH   4  15
ENDBRANCH   2   4
BRANCH   2  20
HETATM   20  C   UNL     1     -42.892  56.361 -52.167  1.00  0.00     0.173 C 
BRANCH  20  21
HETATM   21  C   UNL     1     -42.506  55.778 -53.501  1.00  0.00     0.000 A 
HETATM   22  S   UNL     1     -43.644  54.771 -54.309  1.00  0.00    -0.105 SA
HETATM   23  C   UNL     1     -42.591  54.511 -55.627  1.00  0.00     0.050 A 
HETATM   24  C   UNL     1     -41.399  55.179 -55.473  1.00  0.00     0.008 A 
HETATM   25  C   UNL     1     -41.354  55.915 -54.254  1.00  0.00     0.017 A 
ENDBRANCH  20  21
ENDBRANCH   2  20
BRANCH   1  26
HETATM   26  C   UNL     1     -40.865  55.172 -50.415  1.00  0.00     0.101 A 
HETATM   27  N   UNL     1     -40.641  54.368 -51.510  1.00  0.00    -0.351 N 
HETATM   28  C   UNL     1     -40.390  53.066 -51.131  1.00  0.00     0.043 A 
HETATM   29  H   UNL     1     -40.625  54.697 -52.466  1.00  0.00     0.166 HD
HETATM   30  C   UNL     1     -40.416  53.056 -49.747  1.00  0.00     0.033 A 
HETATM   31  C   UNL     1     -40.692  54.368 -49.302  1.00  0.00     0.037 A 
BRANCH  28  32
HETATM   32  C   UNL     1     -40.112  51.987 -52.086  1.00  0.00    -0.009 A 
HETATM   33  C   UNL     1     -39.688  50.730 -51.630  1.00  0.00     0.013 A 
HETATM   34  C   UNL     1     -39.425  49.693 -52.527  1.00  0.00     0.001 A 
HETATM   35  C   UNL     1     -39.583  49.897 -53.896  1.00  0.00     0.000 A 
HETATM   36  C   UNL     1     -40.005  51.139 -54.365  1.00  0.00     0.001 A 
HETATM   37  C   UNL     1     -40.268  52.176 -53.466  1.00  0.00     0.013 A 
ENDBRANCH  28  32
ENDBRANCH   1  26
TORSDOF 9
ENDMDL
MODEL 2
REMARK VINA RESULT:      -8.3      1.572      2.932
REMARK  9 active torsions:
REMARK  status: ('A' for Active; 'I' for Inactive)
REMARK    1  A    between atoms: C_4  and  C_5 
REMARK    2  A    between atoms: C_8  and  C_9 
REMARK       I    between atoms: C_9  and  N_10 
REMARK    3  A    between atoms: N_10  and  C_11 
REMARK    4  A    between atoms: N_10  and  C_26 
REMARK    5  A    between atoms: C_11  and  C_12 
REMARK    6  A    between atoms: C_11  and  C_21 
REMARK       I    between atoms: C_12  and  N_13 
REMARK    7  A    between atoms: N_13  and  C_14 
REMARK    8  A    between atoms: C_14  and  C_15 
REMARK    9  A    between atoms: C_26  and  C_27 
ROOT
HETATM    1  C   UNL     1     -41.112  57.198 -53.637  1.00  0.00     0.271 C 
HETATM    2  N   UNL     1     -42.364  57.697 -53.258  1.00  0.00    -0.324 N 
HETATM    3  O   UNL     1     -40.102  57.899 -53.556  1.00  0.00    -0.266 OA
ENDROOT
BRANCH   2   4
HETATM    4  C   UNL     1     -42.528  59.151 -53.008  1.00  0.00     0.220 C 
BRANCH   4   5
HETATM    5  C   UNL     1     -42.367  60.059 -54.268  1.00  0.00     0.245 C 
HETATM    6  N   UNL     1     -42.220  59.413 -55.474  1.00  0.00    -0.357 N 
HETATM    7  H   UNL     1     -42.525  58.439 -55.499  1.00  0.00     0.162 HD
HETATM    8  O   UNL     1     -42.468  61.285 -54.197  1.00  0.00    -0.271 OA
BRANCH   6   9
HETATM    9  C   UNL     1     -42.174  60.109 -56.747  1.00  0.00     0.154 C 
BRANCH   9  10
HETATM   10  C   UNL     1     -42.710  59.290 -57.924  1.00  0.00     0.139 C 
HETATM   11  O   UNL     1     -41.937  59.521 -59.120  1.00  0.00    -0.384 OA
HETATM   12  C   UNL     1     -41.927  58.306 -59.886  1.00  0.00     0.168 C 
HETATM   13  C   UNL     1     -42.683  57.258 -59.091  1.00  0.00     0.029 C 
HETATM   14  C   UNL     1     -42.612  57.794 -57.684  1.00  0.00     0.035 C 
ENDBRANCH   9  10
ENDBRANCH   6   9
ENDBRANCH   4   5
BRANCH   4  15
HETATM   15  C   UNL     1     -43.787  59.519 -52.228  1.00  0.00     0.014 A 
HETATM   16  S   UNL     1     -45.314  59.689 -53.011  1.00  0.00    -0.104 SA
HETATM   17  C   UNL     1     -46.124  60.018 -51.546  1.00  0.00     0.050 A 
HETATM   18  C   UNL     1     -45.275  59.965 -50.467  1.00  0.00     0.008 A 
HETATM   19  C   UNL     1     -43.937  59.673 -50.856  1.00  0.00     0.017 A 
ENDBRANCH   4  15
ENDBRANCH   2   4
BRANCH   2  20
HETATM   20  C   UNL     1     -43.285  56.834 -52.511  1.00  0.00     0.173 C 
BRANCH  20  21
HETATM   21  C   UNL     1     -42.618  56.176 -51.332  1.00  0.00     0.000 A 
HETATM   22  S   UNL     1     -43.051  54.554 -50.954  1.00  0.00    -0.105 SA
HETATM   23  C   UNL     1     -41.984  54.501 -49.622  1.00  0.00     0.050 A 
HETATM   24  C   UNL     1     -41.299  55.683 -49.464  1.00  0.00     0.008 A 
HETATM   25  C   UNL     1     -41.657  56.643 -50.454  1.00  0.00     0.017 A 
ENDBRANCH  20  21
ENDBRANCH   2  20
BRANCH   1  26
HETATM   26  C   UNL     1     -41.030  55.825 -54.088  1.00  0.00     0.101 A 
HETATM   27  N   UNL     1     -40.584  54.753 -53.346  1.00  0.00    -0.351 N 
HETATM   28  C   UNL     1     -40.662  53.580 -54.066  1.00  0.00     0.043 A 
HETATM   29  H   UNL     1     -40.276  54.814 -52.385  1.00  0.00     0.166 HD
HETATM   30  C   UNL     1     -41.213  53.915 -55.291  1.00  0.00     0.033 A 
HETATM   31  C   UNL     1     -41.460  55.307 -55.297  1.00  0.00     0.037 A 
BRANCH  28  32
HETATM   32  C   UNL     1     -40.258  52.275 -53.529  1.00  0.00    -0.009 A 
HETATM   33  C   UNL     1     -39.910  52.145 -52.177  1.00  0.00     0.013 A 
HETATM   34  C   UNL     1     -39.528  50.908 -51.652  1.00  0.00     0.001 A 
HETATM   35  C   UNL     1     -39.490  49.783 -52.472  1.00  0.00     0.000 A 
HETATM   36  C   UNL     1     -39.836  49.896 -53.816  1.00  0.00     0.001 A 
HETATM   37  C   UNL     1     -40.217  51.134 -54.341  1.00  0.00     0.013 A 
ENDBRANCH  28  32
ENDBRANCH   1  26
TORSDOF 9
ENDMDL
MODEL 3
REMARK VINA RESULT:      -8.0      2.582      4.043
REMARK  9 active torsions:
REMARK  status: ('A' for Active; 'I' for Inactive)
REMARK    1  A    between atoms: C_4  and  C_5 
REMARK    2  A    between atoms: C_8  and  C_9 
REMARK       I    between atoms: C_9  and  N_10 
REMARK    3  A    between atoms: N_10  and  C_11 
REMARK    4  A    between atoms: N_10  and  C_26 
REMARK    5  A    between atoms: C_11  and  C_12 
REMARK    6  A    between atoms: C_11  and  C_21 
REMARK       I    between atoms: C_12  and  N_13 
REMARK    7  A    between atoms: N_13  and  C_14 
REMARK    8  A    between atoms: C_14  and  C_15 
REMARK    9  A    between atoms: C_26  and  C_27 
ROOT
HETATM    1  C   UNL     1     -43.889  57.477 -54.081  1.00  0.00     0.271 C 
HETATM    2  N   UNL     1     -43.273  58.733 -54.114  1.00  0.00    -0.324 N 
HETATM    3  O   UNL     1     -44.897  57.249 -54.753  1.00  0.00    -0.266 OA
ENDROOT
BRANCH   2   4
HETATM    4  C   UNL     1     -43.975  59.877 -54.748  1.00  0.00     0.220 C 
BRANCH   4   5
HETATM    5  C   UNL     1     -44.573  59.585 -56.160  1.00  0.00     0.245 C 
HETATM    6  N   UNL     1     -43.709  59.058 -57.093  1.00  0.00    -0.357 N 
HETATM    7  H   UNL     1     -42.861  58.626 -56.723  1.00  0.00     0.162 HD
HETATM    8  O   UNL     1     -45.775  59.722 -56.394  1.00  0.00    -0.271 OA
BRANCH   6   9
HETATM    9  C   UNL     1     -44.133  58.625 -58.412  1.00  0.00     0.154 C 
BRANCH   9  10
HETATM   10  C   UNL     1     -44.387  57.120 -58.522  1.00  0.00     0.139 C 
HETATM   11  O   UNL     1     -45.569  56.842 -59.302  1.00  0.00    -0.384 OA
HETATM   12  C   UNL     1     -45.363  55.601 -59.996  1.00  0.00     0.168 C 
HETATM   13  C   UNL     1     -43.960  55.124 -59.673  1.00  0.00     0.029 C 
HETATM   14  C   UNL     1     -43.267  56.393 -59.246  1.00  0.00     0.035 C 
ENDBRANCH   9  10
ENDBRANCH   6   9
ENDBRANCH   4   5
BRANCH   4  15
HETATM   15  C   UNL     1     -45.003  60.562 -53.852  1.00  0.00     0.014 A 
HETATM   16  S   UNL     1     -45.416  62.224 -54.063  1.00  0.00    -0.104 SA
HETATM   17  C   UNL     1     -46.574  62.182 -52.812  1.00  0.00     0.050 A 
HETATM   18  C   UNL     1     -46.689  60.930 -52.259  1.00  0.00     0.008 A 
HETATM   19  C   UNL     1     -45.793  59.999 -52.858  1.00  0.00     0.017 A 
ENDBRANCH   4  15
ENDBRANCH   2   4
BRANCH   2  20
HETATM   20  C   UNL     1     -41.810  58.815 -54.143  1.00  0.00     0.173 C 
BRANCH  20  21
HETATM   21  C   UNL     1     -41.229  59.096 -52.781  1.00  0.00     0.000 A 
HETATM   22  S   UNL     1     -42.188  59.975 -51.654  1.00  0.00    -0.105 SA
HETATM   23  C   UNL     1     -40.973  59.909 -50.456  1.00  0.00     0.050 A 
HETATM   24  C   UNL     1     -39.860  59.227 -50.889  1.00  0.00     0.008 A 
HETATM   25  C   UNL     1     -40.012  58.752 -52.223  1.00  0.00     0.017 A 
ENDBRANCH  20  21
ENDBRANCH   2  20
BRANCH   1  26
HETATM   26  C   UNL     1     -43.288  56.440 -53.268  1.00  0.00     0.101 A 
HETATM   27  N   UNL     1     -42.484  55.418 -53.723  1.00  0.00    -0.351 N 
HETATM   28  C   UNL     1     -42.055  54.620 -52.683  1.00  0.00     0.043 A 
HETATM   29  H   UNL     1     -42.214  55.292 -54.689  1.00  0.00     0.166 HD
HETATM   30  C   UNL     1     -42.571  55.182 -51.528  1.00  0.00     0.033 A 
HETATM   31  C   UNL     1     -43.321  56.324 -51.890  1.00  0.00     0.037 A 
BRANCH  28  32
HETATM   32  C   UNL     1     -41.182  53.455 -52.867  1.00  0.00    -0.009 A 
HETATM   33  C   UNL     1     -41.104  52.821 -54.115  1.00  0.00     0.013 A 
HETATM   34  C   UNL     1     -40.274  51.713 -54.306  1.00  0.00     0.001 A 
HETATM   35  C   UNL     1     -39.509  51.225 -53.250  1.00  0.00     0.000 A 
HETATM   36  C   UNL     1     -39.573  51.845 -52.005  1.00  0.00     0.001 A 
HETATM   37  C   UNL     1     -40.404  52.953 -51.815  1.00  0.00     0.013 A 
ENDBRANCH  28  32
ENDBRANCH   1  26
TORSDOF 9
ENDMDL
MODEL 4
REMARK VINA RESULT:      -7.9      3.499      8.315
REMARK  9 active torsions:
REMARK  status: ('A' for Active; 'I' for Inactive)
REMARK    1  A    between atoms: C_4  and  C_5 
REMARK    2  A    between atoms: C_8  and  C_9 
REMARK       I    between atoms: C_9  and  N_10 
REMARK    3  A    between atoms: N_10  and  C_11 
REMARK    4  A    between atoms: N_10  and  C_26 
REMARK    5  A    between atoms: C_11  and  C_12 
REMARK    6  A    between atoms: C_11  and  C_21 
REMARK       I    between atoms: C_12  and  N_13 
REMARK    7  A    between atoms: N_13  and  C_14 
REMARK    8  A    between atoms: C_14  and  C_15 
REMARK    9  A    between atoms: C_26  and  C_27 
ROOT
HETATM    1  C   UNL     1     -44.739  57.874 -55.367  1.00  0.00     0.271 C 
HETATM    2  N   UNL     1     -43.542  57.154 -55.454  1.00  0.00    -0.324 N 
HETATM    3  O   UNL     1     -45.303  58.034 -54.284  1.00  0.00    -0.266 OA
ENDROOT
BRANCH   2   4
HETATM    4  C   UNL     1     -43.083  56.354 -54.290  1.00  0.00     0.220 C 
BRANCH   4   5
HETATM    5  C   UNL     1     -42.410  54.992 -54.650  1.00  0.00     0.245 C 
HETATM    6  N   UNL     1     -41.101  54.835 -54.257  1.00  0.00    -0.357 N 
HETATM    7  H   UNL     1     -40.776  55.464 -53.522  1.00  0.00     0.162 HD
HETATM    8  O   UNL     1     -43.048  54.072 -55.165  1.00  0.00    -0.271 OA
BRANCH   6   9
HETATM    9  C   UNL     1     -40.370  53.590 -54.412  1.00  0.00     0.154 C 
BRANCH   9  10
HETATM   10  C   UNL     1     -40.546  52.614 -53.246  1.00  0.00     0.139 C 
HETATM   11  O   UNL     1     -39.485  51.637 -53.212  1.00  0.00    -0.384 OA
HETATM   12  C   UNL     1     -39.237  51.295 -51.839  1.00  0.00     0.168 C 
HETATM   13  C   UNL     1     -40.151  52.150 -50.983  1.00  0.00     0.029 C 
HETATM   14  C   UNL     1     -40.477  53.305 -51.895  1.00  0.00     0.035 C 
ENDBRANCH   9  10
ENDBRANCH   6   9
ENDBRANCH   4   5
BRANCH   4  15
HETATM   15  C   UNL     1     -42.240  57.131 -53.283  1.00  0.00     0.014 A 
HETATM   16  S   UNL     1     -42.475  56.951 -51.584  1.00  0.00    -0.104 SA
HETATM   17  C   UNL     1     -41.201  58.021 -51.209  1.00  0.00     0.050 A 
HETATM   18  C   UNL     1     -40.571  58.486 -52.338  1.00  0.00     0.008 A 
HETATM   19  C   UNL     1     -41.162  57.971 -53.527  1.00  0.00     0.017 A 
ENDBRANCH   4  15
ENDBRANCH   2   4
BRANCH   2  20
HETATM   20  C   UNL     1     -42.472  57.640 -56.329  1.00  0.00     0.173 C 
BRANCH  20  21
HETATM   21  C   UNL     1     -42.628  57.150 -57.745  1.00  0.00     0.000 A 
HETATM   22  S   UNL     1     -42.331  58.259 -59.027  1.00  0.00    -0.105 SA
HETATM   23  C   UNL     1     -42.679  57.088 -60.220  1.00  0.00     0.050 A 
HETATM   24  C   UNL     1     -43.006  55.872 -59.667  1.00  0.00     0.008 A 
HETATM   25  C   UNL     1     -42.967  55.906 -58.243  1.00  0.00     0.017 A 
ENDBRANCH  20  21
ENDBRANCH   2  20
BRANCH   1  26
HETATM   26  C   UNL     1     -45.275  58.460 -56.579  1.00  0.00     0.101 A 
HETATM   27  N   UNL     1     -45.893  57.778 -57.603  1.00  0.00    -0.351 N 
HETATM   28  C   UNL     1     -46.311  58.639 -58.596  1.00  0.00     0.043 A 
HETATM   29  H   UNL     1     -46.053  56.780 -57.609  1.00  0.00     0.166 HD
HETATM   30  C   UNL     1     -45.982  59.913 -58.164  1.00  0.00     0.033 A 
HETATM   31  C   UNL     1     -45.355  59.803 -56.902  1.00  0.00     0.037 A 
BRANCH  28  32
HETATM   32  C   UNL     1     -47.005  58.195 -59.810  1.00  0.00    -0.009 A 
HETATM   33  C   UNL     1     -47.723  59.113 -60.590  1.00  0.00     0.013 A 
HETATM   34  C   UNL     1     -48.384  58.704 -61.751  1.00  0.00     0.001 A 
HETATM   35  C   UNL     1     -48.335  57.371 -62.149  1.00  0.00     0.000 A 
HETATM   36  C   UNL     1     -47.624  56.447 -61.386  1.00  0.00     0.001 A 
HETATM   37  C   UNL     1     -46.964  56.857 -60.225  1.00  0.00     0.013 A 
ENDBRANCH  28  32
ENDBRANCH   1  26
TORSDOF 9
ENDMDL
MODEL 5
REMARK VINA RESULT:      -7.7      2.194      4.137
REMARK  9 active torsions:
REMARK  status: ('A' for Active; 'I' for Inactive)
REMARK    1  A    between atoms: C_4  and  C_5 
REMARK    2  A    between atoms: C_8  and  C_9 
REMARK       I    between atoms: C_9  and  N_10 
REMARK    3  A    between atoms: N_10  and  C_11 
REMARK    4  A    between atoms: N_10  and  C_26 
REMARK    5  A    between atoms: C_11  and  C_12 
REMARK    6  A    between atoms: C_11  and  C_21 
REMARK       I    between atoms: C_12  and  N_13 
REMARK    7  A    between atoms: N_13  and  C_14 
REMARK    8  A    between atoms: C_14  and  C_15 
REMARK    9  A    between atoms: C_26  and  C_27 
ROOT
HETATM    1  C   UNL     1     -41.467  58.466 -53.853  1.00  0.00     0.271 C 
HETATM    2  N   UNL     1     -42.631  58.698 -54.595  1.00  0.00    -0.324 N 
HETATM    3  O   UNL     1     -40.564  59.303 -53.816  1.00  0.00    -0.266 OA
ENDROOT
BRANCH   2   4
HETATM    4  C   UNL     1     -42.676  59.831 -55.552  1.00  0.00     0.220 C 
BRANCH   4   5
HETATM    5  C   UNL     1     -41.975  59.567 -56.922  1.00  0.00     0.245 C 
HETATM    6  N   UNL     1     -42.306  58.394 -57.562  1.00  0.00    -0.357 N 
HETATM    7  H   UNL     1     -43.175  57.952 -57.262  1.00  0.00     0.162 HD
HETATM    8  O   UNL     1     -41.246  60.410 -57.448  1.00  0.00    -0.271 OA
BRANCH   6   9
HETATM    9  C   UNL     1     -41.832  58.055 -58.891  1.00  0.00     0.154 C 
BRANCH   9  10
HETATM   10  C   UNL     1     -42.900  57.430 -59.793  1.00  0.00     0.139 C 
HETATM   11  O   UNL     1     -42.665  56.019 -59.985  1.00  0.00    -0.384 OA
HETATM   12  C   UNL     1     -43.939  55.370 -60.124  1.00  0.00     0.168 C 
HETATM   13  C   UNL     1     -45.013  56.427 -59.947  1.00  0.00     0.029 C 
HETATM   14  C   UNL     1     -44.291  57.510 -59.187  1.00  0.00     0.035 C 
ENDBRANCH   9  10
ENDBRANCH   6   9
ENDBRANCH   4   5
BRANCH   4  15
HETATM   15  C   UNL     1     -44.064  60.431 -55.756  1.00  0.00     0.014 A 
HETATM   16  S   UNL     1     -44.462  62.002 -55.163  1.00  0.00    -0.104 SA
HETATM   17  C   UNL     1     -46.038  61.940 -55.810  1.00  0.00     0.050 A 
HETATM   18  C   UNL     1     -46.264  60.774 -56.502  1.00  0.00     0.008 A 
HETATM   19  C   UNL     1     -45.131  59.912 -56.476  1.00  0.00     0.017 A 
ENDBRANCH   4  15
ENDBRANCH   2   4
BRANCH   2  20
HETATM   20  C   UNL     1     -43.929  58.312 -54.034  1.00  0.00     0.173 C 
BRANCH  20  21
HETATM   21  C   UNL     1     -44.194  58.972 -52.707  1.00  0.00     0.000 A 
HETATM   22  S   UNL     1     -45.222  58.164 -51.587  1.00  0.00    -0.105 SA
HETATM   23  C   UNL     1     -45.063  59.409 -50.429  1.00  0.00     0.050 A 
HETATM   24  C   UNL     1     -44.239  60.419 -50.868  1.00  0.00     0.008 A 
HETATM   25  C   UNL     1     -43.732  60.162 -52.175  1.00  0.00     0.017 A 
ENDBRANCH  20  21
ENDBRANCH   2  20
BRANCH   1  26
HETATM   26  C   UNL     1     -41.370  57.233 -53.099  1.00  0.00     0.101 A 
HETATM   27  N   UNL     1     -40.954  56.015 -53.589  1.00  0.00    -0.351 N 
HETATM   28  C   UNL     1     -40.951  55.054 -52.600  1.00  0.00     0.043 A 
HETATM   29  H   UNL     1     -40.653  55.856 -54.542  1.00  0.00     0.166 HD
HETATM   30  C   UNL     1     -41.339  55.696 -51.437  1.00  0.00     0.033 A 
HETATM   31  C   UNL     1     -41.580  57.055 -51.743  1.00  0.00     0.037 A 
BRANCH  28  32
HETATM   32  C   UNL     1     -40.550  53.661 -52.830  1.00  0.00    -0.009 A 
HETATM   33  C   UNL     1     -40.750  53.066 -54.084  1.00  0.00     0.013 A 
HETATM   34  C   UNL     1     -40.369  51.742 -54.318  1.00  0.00     0.001 A 
HETATM   35  C   UNL     1     -39.780  50.995 -53.301  1.00  0.00     0.000 A 
HETATM   36  C   UNL     1     -39.572  51.573 -52.051  1.00  0.00     0.001 A 
HETATM   37  C   UNL     1     -39.954  52.897 -51.817  1.00  0.00     0.013 A 
ENDBRANCH  28  32
ENDBRANCH   1  26
TORSDOF 9
ENDMDL
MODEL 6
REMARK VINA RESULT:      -7.7      2.489      6.867
REMARK  9 active torsions:
REMARK  status: ('A' for Active; 'I' for Inactive)
REMARK    1  A    between atoms: C_4  and  C_5 
REMARK    2  A    between atoms: C_8  and  C_9 
REMARK       I    between atoms: C_9  and  N_10 
REMARK    3  A    between atoms: N_10  and  C_11 
REMARK    4  A    between atoms: N_10  and  C_26 
REMARK    5  A    between atoms: C_11  and  C_12 
REMARK    6  A    between atoms: C_11  and  C_21 
REMARK       I    between atoms: C_12  and  N_13 
REMARK    7  A    between atoms: N_13  and  C_14 
REMARK    8  A    between atoms: C_14  and  C_15 
REMARK    9  A    between atoms: C_26  and  C_27 
ROOT
HETATM    1  C   UNL     1     -44.604  58.983 -54.271  1.00  0.00     0.271 C 
HETATM    2  N   UNL     1     -43.558  58.327 -53.613  1.00  0.00    -0.324 N 
HETATM    3  O   UNL     1     -45.424  59.655 -53.642  1.00  0.00    -0.266 OA
ENDROOT
BRANCH   2   4
HETATM    4  C   UNL     1     -43.578  58.216 -52.133  1.00  0.00     0.220 C 
BRANCH   4   5
HETATM    5  C   UNL     1     -44.060  56.838 -51.580  1.00  0.00     0.245 C 
HETATM    6  N   UNL     1     -43.254  55.755 -51.848  1.00  0.00    -0.357 N 
HETATM    7  H   UNL     1     -42.290  55.969 -52.107  1.00  0.00     0.162 HD
HETATM    8  O   UNL     1     -45.054  56.743 -50.858  1.00  0.00    -0.271 OA
BRANCH   6   9
HETATM    9  C   UNL     1     -43.500  54.430 -51.310  1.00  0.00     0.154 C 
BRANCH   9  10
HETATM   10  C   UNL     1     -42.256  53.751 -50.733  1.00  0.00     0.139 C 
HETATM   11  O   UNL     1     -41.280  53.478 -51.761  1.00  0.00    -0.384 OA
HETATM   12  C   UNL     1     -39.973  53.588 -51.176  1.00  0.00     0.168 C 
HETATM   13  C   UNL     1     -40.153  54.007 -49.729  1.00  0.00     0.029 C 
HETATM   14  C   UNL     1     -41.526  54.630 -49.732  1.00  0.00     0.035 C 
ENDBRANCH   9  10
ENDBRANCH   6   9
ENDBRANCH   4   5
BRANCH   4  15
HETATM   15  C   UNL     1     -42.287  58.657 -51.448  1.00  0.00     0.014 A 
HETATM   16  S   UNL     1     -42.069  60.276 -50.896  1.00  0.00    -0.104 SA
HETATM   17  C   UNL     1     -40.525  59.939 -50.254  1.00  0.00     0.050 A 
HETATM   18  C   UNL     1     -40.181  58.618 -50.410  1.00  0.00     0.008 A 
HETATM   19  C   UNL     1     -41.193  57.881 -51.090  1.00  0.00     0.017 A 
ENDBRANCH   4  15
ENDBRANCH   2   4
BRANCH   2  20
HETATM   20  C   UNL     1     -42.221  58.325 -54.213  1.00  0.00     0.173 C 
BRANCH  20  21
HETATM   21  C   UNL     1     -41.735  56.931 -54.514  1.00  0.00     0.000 A 
HETATM   22  S   UNL     1     -42.814  55.845 -55.299  1.00  0.00    -0.105 SA
HETATM   23  C   UNL     1     -41.662  54.584 -55.299  1.00  0.00     0.050 A 
HETATM   24  C   UNL     1     -40.474  54.971 -54.725  1.00  0.00     0.008 A 
HETATM   25  C   UNL     1     -40.513  56.325 -54.282  1.00  0.00     0.017 A 
ENDBRANCH  20  21
ENDBRANCH   2  20
BRANCH   1  26
HETATM   26  C   UNL     1     -44.676  58.884 -55.714  1.00  0.00     0.101 A 
HETATM   27  N   UNL     1     -44.802  57.720 -56.440  1.00  0.00    -0.351 N 
HETATM   28  C   UNL     1     -44.869  57.981 -57.793  1.00  0.00     0.043 A 
HETATM   29  H   UNL     1     -44.874  56.798 -56.032  1.00  0.00     0.166 HD
HETATM   30  C   UNL     1     -44.825  59.359 -57.922  1.00  0.00     0.033 A 
HETATM   31  C   UNL     1     -44.724  59.920 -56.629  1.00  0.00     0.037 A 
BRANCH  28  32
HETATM   32  C   UNL     1     -45.009  56.933 -58.810  1.00  0.00    -0.009 A 
HETATM   33  C   UNL     1     -44.004  55.969 -58.976  1.00  0.00     0.013 A 
HETATM   34  C   UNL     1     -44.126  54.963 -59.938  1.00  0.00     0.001 A 
HETATM   35  C   UNL     1     -45.257  54.906 -60.747  1.00  0.00     0.000 A 
HETATM   36  C   UNL     1     -46.266  55.855 -60.594  1.00  0.00     0.001 A 
HETATM   37  C   UNL     1     -46.142  56.861 -59.631  1.00  0.00     0.013 A 
ENDBRANCH  28  32
ENDBRANCH   1  26
TORSDOF 9
ENDMDL
MODEL 7
REMARK VINA RESULT:      -7.4      2.552      4.598
REMARK  9 active torsions:
REMARK  status: ('A' for Active; 'I' for Inactive)
REMARK    1  A    between atoms: C_4  and  C_5 
REMARK    2  A    between atoms: C_8  and  C_9 
REMARK       I    between atoms: C_9  and  N_10 
REMARK    3  A    between atoms: N_10  and  C_11 
REMARK    4  A    between atoms: N_10  and  C_26 
REMARK    5  A    between atoms: C_11  and  C_12 
REMARK    6  A    between atoms: C_11  and  C_21 
REMARK       I    between atoms: C_12  and  N_13 
REMARK    7  A    between atoms: N_13  and  C_14 
REMARK    8  A    between atoms: C_14  and  C_15 
REMARK    9  A    between atoms: C_26  and  C_27 
ROOT
HETATM    1  C   UNL     1     -41.936  58.222 -54.291  1.00  0.00     0.271 C 
HETATM    2  N   UNL     1     -43.098  58.155 -55.066  1.00  0.00    -0.324 N 
HETATM    3  O   UNL     1     -41.221  59.226 -54.310  1.00  0.00    -0.266 OA
ENDROOT
BRANCH   2   4
HETATM    4  C   UNL     1     -43.340  59.178 -56.114  1.00  0.00     0.220 C 
BRANCH   4   5
HETATM    5  C   UNL     1     -42.300  59.190 -57.278  1.00  0.00     0.245 C 
HETATM    6  N   UNL     1     -42.432  58.202 -58.227  1.00  0.00    -0.357 N 
HETATM    7  H   UNL     1     -43.342  57.743 -58.270  1.00  0.00     0.162 HD
HETATM    8  O   UNL     1     -41.471  60.095 -57.394  1.00  0.00    -0.271 OA
BRANCH   6   9
HETATM    9  C   UNL     1     -41.619  58.142 -59.428  1.00  0.00     0.154 C 
BRANCH   9  10
HETATM   10  C   UNL     1     -42.294  58.737 -60.667  1.00  0.00     0.139 C 
HETATM   11  O   UNL     1     -43.725  58.818 -60.498  1.00  0.00    -0.384 OA
HETATM   12  C   UNL     1     -44.194  59.970 -61.216  1.00  0.00     0.168 C 
HETATM   13  C   UNL     1     -42.983  60.666 -61.806  1.00  0.00     0.029 C 
HETATM   14  C   UNL     1     -41.856  60.166 -60.937  1.00  0.00     0.035 C 
ENDBRANCH   9  10
ENDBRANCH   6   9
ENDBRANCH   4   5
BRANCH   4  15
HETATM   15  C   UNL     1     -44.766  59.201 -56.657  1.00  0.00     0.014 A 
HETATM   16  S   UNL     1     -45.607  60.685 -56.916  1.00  0.00    -0.104 SA
HETATM   17  C   UNL     1     -46.984  59.895 -57.539  1.00  0.00     0.050 A 
HETATM   18  C   UNL     1     -46.813  58.533 -57.595  1.00  0.00     0.008 A 
HETATM   19  C   UNL     1     -45.540  58.135 -57.095  1.00  0.00     0.017 A 
ENDBRANCH   4  15
ENDBRANCH   2   4
BRANCH   2  20
HETATM   20  C   UNL     1     -44.310  57.559 -54.495  1.00  0.00     0.173 C 
BRANCH  20  21
HETATM   21  C   UNL     1     -44.698  58.201 -53.189  1.00  0.00     0.000 A 
HETATM   22  S   UNL     1     -45.059  59.884 -53.185  1.00  0.00    -0.105 SA
HETATM   23  C   UNL     1     -45.379  59.887 -51.508  1.00  0.00     0.050 A 
HETATM   24  C   UNL     1     -45.228  58.638 -50.952  1.00  0.00     0.008 A 
HETATM   25  C   UNL     1     -44.845  57.667 -51.922  1.00  0.00     0.017 A 
ENDBRANCH  20  21
ENDBRANCH   2  20
BRANCH   1  26
HETATM   26  C   UNL     1     -41.616  57.097 -53.437  1.00  0.00     0.101 A 
HETATM   27  N   UNL     1     -41.250  55.839 -53.858  1.00  0.00    -0.351 N 
HETATM   28  C   UNL     1     -40.987  55.010 -52.788  1.00  0.00     0.043 A 
HETATM   29  H   UNL     1     -41.150  55.568 -54.828  1.00  0.00     0.166 HD
HETATM   30  C   UNL     1     -41.153  55.784 -51.652  1.00  0.00     0.033 A 
HETATM   31  C   UNL     1     -41.525  57.086 -52.056  1.00  0.00     0.037 A 
BRANCH  28  32
HETATM   32  C   UNL     1     -40.571  53.610 -52.934  1.00  0.00    -0.009 A 
HETATM   33  C   UNL     1     -40.702  52.959 -54.169  1.00  0.00     0.013 A 
HETATM   34  C   UNL     1     -40.306  51.628 -54.323  1.00  0.00     0.001 A 
HETATM   35  C   UNL     1     -39.773  50.929 -53.243  1.00  0.00     0.000 A 
HETATM   36  C   UNL     1     -39.634  51.563 -52.010  1.00  0.00     0.001 A 
HETATM   37  C   UNL     1     -40.031  52.894 -51.857  1.00  0.00     0.013 A 
ENDBRANCH  28  32
ENDBRANCH   1  26
TORSDOF 9
ENDMDL
MODEL 8
REMARK VINA RESULT:      -7.3      2.721      8.122
REMARK  9 active torsions:
REMARK  status: ('A' for Active; 'I' for Inactive)
REMARK    1  A    between atoms: C_4  and  C_5 
REMARK    2  A    between atoms: C_8  and  C_9 
REMARK       I    between atoms: C_9  and  N_10 
REMARK    3  A    between atoms: N_10  and  C_11 
REMARK    4  A    between atoms: N_10  and  C_26 
REMARK    5  A    between atoms: C_11  and  C_12 
REMARK    6  A    between atoms: C_11  and  C_21 
REMARK       I    between atoms: C_12  and  N_13 
REMARK    7  A    between atoms: N_13  and  C_14 
REMARK    8  A    between atoms: C_14  and  C_15 
REMARK    9  A    between atoms: C_26  and  C_27 
ROOT
HETATM    1  C   UNL     1     -44.466  58.465 -52.334  1.00  0.00     0.271 C 
HETATM    2  N   UNL     1     -43.629  58.867 -53.381  1.00  0.00    -0.324 N 
HETATM    3  O   UNL     1     -44.635  57.270 -52.083  1.00  0.00    -0.266 OA
ENDROOT
BRANCH   2   4
HETATM    4  C   UNL     1     -43.149  57.862 -54.362  1.00  0.00     0.220 C 
BRANCH   4   5
HETATM    5  C   UNL     1     -43.045  56.403 -53.816  1.00  0.00     0.245 C 
HETATM    6  N   UNL     1     -42.062  56.168 -52.881  1.00  0.00    -0.357 N 
HETATM    7  H   UNL     1     -41.694  56.992 -52.405  1.00  0.00     0.162 HD
HETATM    8  O   UNL     1     -43.863  55.536 -54.129  1.00  0.00    -0.271 OA
BRANCH   6   9
HETATM    9  C   UNL     1     -41.908  54.899 -52.193  1.00  0.00     0.154 C 
BRANCH   9  10
HETATM   10  C   UNL     1     -40.760  54.038 -52.726  1.00  0.00     0.139 C 
HETATM   11  O   UNL     1     -40.239  53.165 -51.701  1.00  0.00    -0.384 OA
HETATM   12  C   UNL     1     -39.793  51.954 -52.332  1.00  0.00     0.168 C 
HETATM   13  C   UNL     1     -40.112  52.064 -53.811  1.00  0.00     0.029 C 
HETATM   14  C   UNL     1     -41.203  53.104 -53.839  1.00  0.00     0.035 C 
ENDBRANCH   9  10
ENDBRANCH   6   9
ENDBRANCH   4   5
BRANCH   4  15
HETATM   15  C   UNL     1     -43.876  57.891 -55.704  1.00  0.00     0.014 A 
HETATM   16  S   UNL     1     -43.127  57.313 -57.146  1.00  0.00    -0.104 SA
HETATM   17  C   UNL     1     -44.514  57.617 -58.090  1.00  0.00     0.050 A 
HETATM   18  C   UNL     1     -45.551  58.111 -57.335  1.00  0.00     0.008 A 
HETATM   19  C   UNL     1     -45.188  58.262 -55.967  1.00  0.00     0.017 A 
ENDBRANCH   4  15
ENDBRANCH   2   4
BRANCH   2  20
HETATM   20  C   UNL     1     -42.740  60.016 -53.189  1.00  0.00     0.173 C 
BRANCH  20  21
HETATM   21  C   UNL     1     -41.651  59.731 -52.188  1.00  0.00     0.000 A 
HETATM   22  S   UNL     1     -40.203  58.991 -52.750  1.00  0.00    -0.105 SA
HETATM   23  C   UNL     1     -39.512  58.985 -51.188  1.00  0.00     0.050 A 
HETATM   24  C   UNL     1     -40.352  59.541 -50.252  1.00  0.00     0.008 A 
HETATM   25  C   UNL     1     -41.578  59.979 -50.830  1.00  0.00     0.017 A 
ENDBRANCH  20  21
ENDBRANCH   2  20
BRANCH   1  26
HETATM   26  C   UNL     1     -45.096  59.490 -51.529  1.00  0.00     0.101 A 
HETATM   27  N   UNL     1     -44.807  59.779 -50.214  1.00  0.00    -0.351 N 
HETATM   28  C   UNL     1     -45.570  60.832 -49.754  1.00  0.00     0.043 A 
HETATM   29  H   UNL     1     -44.099  59.306 -49.668  1.00  0.00     0.166 HD
HETATM   30  C   UNL     1     -46.339  61.248 -50.828  1.00  0.00     0.033 A 
HETATM   31  C   UNL     1     -46.030  60.427 -51.936  1.00  0.00     0.037 A 
BRANCH  28  32
HETATM   32  C   UNL     1     -45.474  61.363 -48.390  1.00  0.00    -0.009 A 
HETATM   33  C   UNL     1     -45.688  60.523 -47.288  1.00  0.00     0.013 A 
HETATM   34  C   UNL     1     -45.595  61.014 -45.983  1.00  0.00     0.001 A 
HETATM   35  C   UNL     1     -45.286  62.354 -45.762  1.00  0.00     0.000 A 
HETATM   36  C   UNL     1     -45.069  63.201 -46.846  1.00  0.00     0.001 A 
HETATM   37  C   UNL     1     -45.163  62.709 -48.151  1.00  0.00     0.013 A 
ENDBRANCH  28  32
ENDBRANCH   1  26
TORSDOF 9
ENDMDL
MODEL 9
REMARK VINA RESULT:      -7.2      2.356      4.666
REMARK  9 active torsions:
REMARK  status: ('A' for Active; 'I' for Inactive)
REMARK    1  A    between atoms: C_4  and  C_5 
REMARK    2  A    between atoms: C_8  and  C_9 
REMARK       I    between atoms: C_9  and  N_10 
REMARK    3  A    between atoms: N_10  and  C_11 
REMARK    4  A    between atoms: N_10  and  C_26 
REMARK    5  A    between atoms: C_11  and  C_12 
REMARK    6  A    between atoms: C_11  and  C_21 
REMARK       I    between atoms: C_12  and  N_13 
REMARK    7  A    between atoms: N_13  and  C_14 
REMARK    8  A    between atoms: C_14  and  C_15 
REMARK    9  A    between atoms: C_26  and  C_27 
ROOT
HETATM    1  C   UNL     1     -41.991  56.949 -54.417  1.00  0.00     0.271 C 
HETATM    2  N   UNL     1     -43.369  57.168 -54.529  1.00  0.00    -0.324 N 
HETATM    3  O   UNL     1     -41.187  57.664 -55.016  1.00  0.00    -0.266 OA
ENDROOT
BRANCH   2   4
HETATM    4  C   UNL     1     -43.881  58.090 -55.573  1.00  0.00     0.220 C 
BRANCH   4   5
HETATM    5  C   UNL     1     -43.110  59.442 -55.697  1.00  0.00     0.245 C 
HETATM    6  N   UNL     1     -42.438  59.657 -56.879  1.00  0.00    -0.357 N 
HETATM    7  H   UNL     1     -42.734  59.085 -57.671  1.00  0.00     0.162 HD
HETATM    8  O   UNL     1     -43.184  60.310 -54.825  1.00  0.00    -0.271 OA
BRANCH   6   9
HETATM    9  C   UNL     1     -41.770  60.906 -57.196  1.00  0.00     0.154 C 
BRANCH   9  10
HETATM   10  C   UNL     1     -41.153  60.945 -58.596  1.00  0.00     0.139 C 
HETATM   11  O   UNL     1     -41.949  60.200 -59.542  1.00  0.00    -0.384 OA
HETATM   12  C   UNL     1     -41.832  60.839 -60.823  1.00  0.00     0.168 C 
HETATM   13  C   UNL     1     -40.969  62.073 -60.642  1.00  0.00     0.029 C 
HETATM   14  C   UNL     1     -41.094  62.352 -59.166  1.00  0.00     0.035 C 
ENDBRANCH   9  10
ENDBRANCH   6   9
ENDBRANCH   4   5
BRANCH   4  15
HETATM   15  C   UNL     1     -44.078  57.447 -56.943  1.00  0.00     0.014 A 
HETATM   16  S   UNL     1     -45.280  58.017 -58.041  1.00  0.00    -0.104 SA
HETATM   17  C   UNL     1     -44.831  56.899 -59.247  1.00  0.00     0.050 A 
HETATM   18  C   UNL     1     -43.764  56.125 -58.859  1.00  0.00     0.008 A 
HETATM   19  C   UNL     1     -43.328  56.443 -57.540  1.00  0.00     0.017 A 
ENDBRANCH   4  15
ENDBRANCH   2   4
BRANCH   2  20
HETATM   20  C   UNL     1     -44.214  57.055 -53.337  1.00  0.00     0.173 C 
BRANCH  20  21
HETATM   21  C   UNL     1     -44.171  58.300 -52.490  1.00  0.00     0.000 A 
HETATM   22  S   UNL     1     -45.542  59.340 -52.502  1.00  0.00    -0.105 SA
HETATM   23  C   UNL     1     -44.816  60.433 -51.409  1.00  0.00     0.050 A 
HETATM   24  C   UNL     1     -43.560  60.021 -51.027  1.00  0.00     0.008 A 
HETATM   25  C   UNL     1     -43.194  58.789 -51.642  1.00  0.00     0.017 A 
ENDBRANCH  20  21
ENDBRANCH   2  20
BRANCH   1  26
HETATM   26  C   UNL     1     -41.535  55.884 -53.548  1.00  0.00     0.101 A 
HETATM   27  N   UNL     1     -41.220  54.601 -53.935  1.00  0.00    -0.351 N 
HETATM   28  C   UNL     1     -40.792  53.846 -52.864  1.00  0.00     0.043 A 
HETATM   29  H   UNL     1     -41.260  54.267 -54.889  1.00  0.00     0.166 HD
HETATM   30  C   UNL     1     -40.799  54.693 -51.769  1.00  0.00     0.033 A 
HETATM   31  C   UNL     1     -41.243  55.964 -52.197  1.00  0.00     0.037 A 
BRANCH  28  32
HETATM   32  C   UNL     1     -40.385  52.441 -52.978  1.00  0.00    -0.009 A 
HETATM   33  C   UNL     1     -40.536  51.757 -54.192  1.00  0.00     0.013 A 
HETATM   34  C   UNL     1     -40.149  50.420 -54.316  1.00  0.00     0.001 A 
HETATM   35  C   UNL     1     -39.602  49.748 -53.226  1.00  0.00     0.000 A 
HETATM   36  C   UNL     1     -39.443  50.414 -52.013  1.00  0.00     0.001 A 
HETATM   37  C   UNL     1     -39.832  51.751 -51.890  1.00  0.00     0.013 A 
ENDBRANCH  28  32
ENDBRANCH   1  26
TORSDOF 9
ENDMDL
MODEL 10
REMARK VINA RESULT:      -7.2      2.511      8.305
REMARK  9 active torsions:
REMARK  status: ('A' for Active; 'I' for Inactive)
REMARK    1  A    between atoms: C_4  and  C_5 
REMARK    2  A    between atoms: C_8  and  C_9 
REMARK       I    between atoms: C_9  and  N_10 
REMARK    3  A    between atoms: N_10  and  C_11 
REMARK    4  A    between atoms: N_10  and  C_26 
REMARK    5  A    between atoms: C_11  and  C_12 
REMARK    6  A    between atoms: C_11  and  C_21 
REMARK       I    between atoms: C_12  and  N_13 
REMARK    7  A    between atoms: N_13  and  C_14 
REMARK    8  A    between atoms: C_14  and  C_15 
REMARK    9  A    between atoms: C_26  and  C_27 
ROOT
HETATM    1  C   UNL     1     -41.972  59.342 -51.519  1.00  0.00     0.271 C 
HETATM    2  N   UNL     1     -42.616  58.120 -51.745  1.00  0.00    -0.324 N 
HETATM    3  O   UNL     1     -40.815  59.527 -51.901  1.00  0.00    -0.266 OA
ENDROOT
BRANCH   2   4
HETATM    4  C   UNL     1     -41.827  56.951 -52.208  1.00  0.00     0.220 C 
BRANCH   4   5
HETATM    5  C   UNL     1     -41.442  55.930 -51.092  1.00  0.00     0.245 C 
HETATM    6  N   UNL     1     -41.107  54.663 -51.512  1.00  0.00    -0.357 N 
HETATM    7  H   UNL     1     -40.844  54.572 -52.494  1.00  0.00     0.162 HD
HETATM    8  O   UNL     1     -41.345  56.269 -49.911  1.00  0.00    -0.271 OA
BRANCH   6   9
HETATM    9  C   UNL     1     -40.617  53.633 -50.613  1.00  0.00     0.154 C 
BRANCH   9  10
HETATM   10  C   UNL     1     -39.724  52.590 -51.289  1.00  0.00     0.139 C 
HETATM   11  O   UNL     1     -39.860  51.297 -50.664  1.00  0.00    -0.384 OA
HETATM   12  C   UNL     1     -39.682  50.292 -51.675  1.00  0.00     0.168 C 
HETATM   13  C   UNL     1     -39.486  51.005 -52.999  1.00  0.00     0.029 C 
HETATM   14  C   UNL     1     -40.101  52.357 -52.742  1.00  0.00     0.035 C 
ENDBRANCH   9  10
ENDBRANCH   6   9
ENDBRANCH   4   5
BRANCH   4  15
HETATM   15  C   UNL     1     -42.410  56.237 -53.424  1.00  0.00     0.014 A 
HETATM   16  S   UNL     1     -41.728  56.432 -54.996  1.00  0.00    -0.104 SA
HETATM   17  C   UNL     1     -42.833  55.343 -55.704  1.00  0.00     0.050 A 
HETATM   18  C   UNL     1     -43.686  54.800 -54.774  1.00  0.00     0.008 A 
HETATM   19  C   UNL     1     -43.440  55.307 -53.466  1.00  0.00     0.017 A 
ENDBRANCH   4  15
ENDBRANCH   2   4
BRANCH   2  20
HETATM   20  C   UNL     1     -44.024  58.114 -52.152  1.00  0.00     0.173 C 
BRANCH  20  21
HETATM   21  C   UNL     1     -44.319  59.159 -53.196  1.00  0.00     0.000 A 
HETATM   22  S   UNL     1     -45.642  60.226 -52.927  1.00  0.00    -0.105 SA
HETATM   23  C   UNL     1     -45.377  61.046 -54.401  1.00  0.00     0.050 A 
HETATM   24  C   UNL     1     -44.301  60.535 -55.088  1.00  0.00     0.008 A 
HETATM   25  C   UNL     1     -43.687  59.455 -54.389  1.00  0.00     0.017 A 
ENDBRANCH  20  21
ENDBRANCH   2  20
BRANCH   1  26
HETATM   26  C   UNL     1     -42.715  60.396 -50.860  1.00  0.00     0.101 A 
HETATM   27  N   UNL     1     -43.561  60.240 -49.784  1.00  0.00    -0.351 N 
HETATM   28  C   UNL     1     -44.087  61.449 -49.382  1.00  0.00     0.043 A 
HETATM   29  H   UNL     1     -43.743  59.357 -49.325  1.00  0.00     0.166 HD
HETATM   30  C   UNL     1     -43.522  62.408 -50.206  1.00  0.00     0.033 A 
HETATM   31  C   UNL     1     -42.654  61.755 -51.111  1.00  0.00     0.037 A 
BRANCH  28  32
HETATM   32  C   UNL     1     -45.018  61.590 -48.257  1.00  0.00    -0.009 A 
HETATM   33  C   UNL     1     -46.224  62.287 -48.420  1.00  0.00     0.013 A 
HETATM   34  C   UNL     1     -47.121  62.425 -47.358  1.00  0.00     0.001 A 
HETATM   35  C   UNL     1     -46.825  61.867 -46.117  1.00  0.00     0.000 A 
HETATM   36  C   UNL     1     -45.632  61.170 -45.940  1.00  0.00     0.001 A 
HETATM   37  C   UNL     1     -44.735  61.033 -47.002  1.00  0.00     0.013 A 
ENDBRANCH  28  32
ENDBRANCH   1  26
TORSDOF 9
ENDMDL
