MODEL 1
REMARK VINA RESULT:      -8.3      0.000      0.000
REMARK  8 active torsions:
REMARK  status: ('A' for Active; 'I' for Inactive)
REMARK    1  A    between atoms: C_2  and  C_3 
REMARK    2  A    between atoms: C_3  and  N_4 
REMARK       I    between atoms: N_4  and  C_5 
REMARK    3  A    between atoms: N_4  and  C_20 
REMARK    4  A    between atoms: C_5  and  C_6 
REMARK    5  A    between atoms: C_10  and  C_11 
REMARK    6  A    between atoms: C_12  and  O_13 
REMARK    7  A    between atoms: C_20  and  C_21 
REMARK    8  A    between atoms: C_21  and  C_22 
ROOT
HETATM    1  C   UNL     1     -42.516  56.875 -53.481  1.00  0.00     0.120 A 
HETATM    2  N   UNL     1     -43.839  56.983 -53.815  1.00  0.00    -0.272 N 
HETATM    3  H   UNL     1     -44.618  57.047 -53.165  1.00  0.00     0.189 HD
HETATM    4  N   UNL     1     -44.084  56.998 -55.135  1.00  0.00    -0.174 NA
HETATM    5  C   UNL     1     -42.866  56.950 -55.703  1.00  0.00     0.092 A 
HETATM    6  C   UNL     1     -41.860  56.912 -54.696  1.00  0.00     0.071 A 
ENDROOT
BRANCH   1   7
HETATM    7  C   UNL     1     -42.121  56.850 -52.091  1.00  0.00     0.271 C 
HETATM    8  N   UNL     1     -41.683  55.659 -51.485  1.00  0.00    -0.346 N 
HETATM    9  O   UNL     1     -42.187  57.896 -51.444  1.00  0.00    -0.266 OA
BRANCH   8  10
HETATM   10  C   UNL     1     -40.974  55.791 -50.204  1.00  0.00     0.126 C 
BRANCH  10  11
HETATM   11  C   UNL     1     -41.342  54.700 -49.195  1.00  0.00     0.015 C 
HETATM   12  C   UNL     1     -40.128  53.977 -48.635  1.00  0.00     0.006 C 
ENDBRANCH  10  11
ENDBRANCH   8  10
BRANCH   8  13
HETATM   13  C   UNL     1     -41.755  54.332 -52.122  1.00  0.00     0.130 C 
BRANCH  13  14
HETATM   14  C   UNL     1     -40.508  53.892 -52.912  1.00  0.00     0.058 C 
BRANCH  14  15
HETATM   15  C   UNL     1     -40.204  52.408 -52.879  1.00  0.00    -0.057 A 
HETATM   16  C   UNL     1     -40.249  51.682 -54.081  1.00  0.00     0.007 A 
HETATM   17  C   UNL     1     -39.939  50.321 -54.111  1.00  0.00     0.001 A 
HETATM   18  C   UNL     1     -39.571  49.665 -52.941  1.00  0.00     0.000 A 
HETATM   19  C   UNL     1     -39.502  50.372 -51.744  1.00  0.00     0.001 A 
HETATM   20  C   UNL     1     -39.807  51.737 -51.713  1.00  0.00     0.007 A 
ENDBRANCH  14  15
ENDBRANCH  13  14
ENDBRANCH   8  13
ENDBRANCH   1   7
BRANCH   5  21
HETATM   21  C   UNL     1     -42.710  56.963 -57.166  1.00  0.00     0.028 A 
HETATM   22  C   UNL     1     -43.133  55.885 -57.966  1.00  0.00     0.078 A 
HETATM   23  C   UNL     1     -42.986  55.906 -59.352  1.00  0.00     0.037 A 
HETATM   24  C   UNL     1     -42.401  57.008 -59.971  1.00  0.00     0.003 A 
HETATM   25  C   UNL     1     -41.965  58.084 -59.201  1.00  0.00     0.001 A 
HETATM   26  C   UNL     1     -42.118  58.063 -57.810  1.00  0.00     0.017 A 
BRANCH  22  27
HETATM   27  O   UNL     1     -43.708  54.755 -57.442  1.00  0.00    -0.360 OA
HETATM   28  H   UNL     1     -44.229  54.351 -58.175  1.00  0.00     0.217 HD
ENDBRANCH  22  27
ENDBRANCH   5  21
TORSDOF 8
ENDMDL
MODEL 2
REMARK VINA RESULT:      -8.0      1.826      2.458
REMARK  8 active torsions:
REMARK  status: ('A' for Active; 'I' for Inactive)
REMARK    1  A    between atoms: C_2  and  C_3 
REMARK    2  A    between atoms: C_3  and  N_4 
REMARK       I    between atoms: N_4  and  C_5 
REMARK    3  A    between atoms: N_4  and  C_20 
REMARK    4  A    between atoms: C_5  and  C_6 
REMARK    5  A    between atoms: C_10  and  C_11 
REMARK    6  A    between atoms: C_12  and  O_13 
REMARK    7  A    between atoms: C_20  and  C_21 
REMARK    8  A    between atoms: C_21  and  C_22 
ROOT
HETATM    1  C   UNL     1     -42.988  55.917 -55.719  1.00  0.00     0.120 A 
HETATM    2  N   UNL     1     -43.194  55.128 -56.818  1.00  0.00    -0.272 N 
HETATM    3  H   UNL     1     -43.459  54.146 -56.810  1.00  0.00     0.189 HD
HETATM    4  N   UNL     1     -43.016  55.749 -57.995  1.00  0.00    -0.174 NA
HETATM    5  C   UNL     1     -42.728  57.020 -57.663  1.00  0.00     0.092 A 
HETATM    6  C   UNL     1     -42.741  57.170 -56.247  1.00  0.00     0.071 A 
ENDROOT
BRANCH   1   7
HETATM    7  C   UNL     1     -43.150  55.366 -54.393  1.00  0.00     0.271 C 
HETATM    8  N   UNL     1     -42.044  54.893 -53.665  1.00  0.00    -0.346 N 
HETATM    9  O   UNL     1     -44.285  55.310 -53.917  1.00  0.00    -0.266 OA
BRANCH   8  10
HETATM   10  C   UNL     1     -42.239  54.690 -52.223  1.00  0.00     0.126 C 
BRANCH  10  11
HETATM   11  C   UNL     1     -41.482  55.705 -51.363  1.00  0.00     0.015 C 
HETATM   12  C   UNL     1     -40.940  55.104 -50.076  1.00  0.00     0.006 C 
ENDBRANCH  10  11
ENDBRANCH   8  10
BRANCH   8  13
HETATM   13  C   UNL     1     -40.689  54.743 -54.225  1.00  0.00     0.130 C 
BRANCH  13  14
HETATM   14  C   UNL     1     -40.385  53.400 -54.914  1.00  0.00     0.058 C 
BRANCH  14  15
HETATM   15  C   UNL     1     -40.123  52.233 -53.983  1.00  0.00    -0.057 A 
HETATM   16  C   UNL     1     -40.121  50.933 -54.515  1.00  0.00     0.007 A 
HETATM   17  C   UNL     1     -39.847  49.826 -53.708  1.00  0.00     0.001 A 
HETATM   18  C   UNL     1     -39.562  50.003 -52.357  1.00  0.00     0.000 A 
HETATM   19  C   UNL     1     -39.541  51.287 -51.817  1.00  0.00     0.001 A 
HETATM   20  C   UNL     1     -39.810  52.395 -52.626  1.00  0.00     0.007 A 
ENDBRANCH  14  15
ENDBRANCH  13  14
ENDBRANCH   8  13
ENDBRANCH   1   7
BRANCH   5  21
HETATM   21  C   UNL     1     -42.475  58.036 -58.697  1.00  0.00     0.028 A 
HETATM   22  C   UNL     1     -41.913  57.701 -59.944  1.00  0.00     0.078 A 
HETATM   23  C   UNL     1     -41.682  58.668 -60.921  1.00  0.00     0.037 A 
HETATM   24  C   UNL     1     -41.999  60.000 -60.668  1.00  0.00     0.003 A 
HETATM   25  C   UNL     1     -42.548  60.359 -59.439  1.00  0.00     0.001 A 
HETATM   26  C   UNL     1     -42.785  59.386 -58.461  1.00  0.00     0.017 A 
BRANCH  22  27
HETATM   27  O   UNL     1     -41.559  56.418 -60.276  1.00  0.00    -0.360 OA
HETATM   28  H   UNL     1     -40.617  56.462 -60.563  1.00  0.00     0.217 HD
ENDBRANCH  22  27
ENDBRANCH   5  21
TORSDOF 8
ENDMDL
MODEL 3
REMARK VINA RESULT:      -8.0      2.093      6.866
REMARK  8 active torsions:
REMARK  status: ('A' for Active; 'I' for Inactive)
REMARK    1  A    between atoms: C_2  and  C_3 
REMARK    2  A    between atoms: C_3  and  N_4 
REMARK       I    between atoms: N_4  and  C_5 
REMARK    3  A    between atoms: N_4  and  C_20 
REMARK    4  A    between atoms: C_5  and  C_6 
REMARK    5  A    between atoms: C_10  and  C_11 
REMARK    6  A    between atoms: C_12  and  O_13 
REMARK    7  A    between atoms: C_20  and  C_21 
REMARK    8  A    between atoms: C_21  and  C_22 
ROOT
HETATM    1  C   UNL     1     -41.752  54.523 -55.368  1.00  0.00     0.120 A 
HETATM    2  N   UNL     1     -40.406  54.507 -55.616  1.00  0.00    -0.272 N 
HETATM    3  H   UNL     1     -39.913  55.092 -56.286  1.00  0.00     0.189 HD
HETATM    4  N   UNL     1     -39.712  53.620 -54.886  1.00  0.00    -0.174 NA
HETATM    5  C   UNL     1     -40.630  53.057 -54.081  1.00  0.00     0.092 A 
HETATM    6  C   UNL     1     -41.912  53.627 -54.328  1.00  0.00     0.071 A 
ENDROOT
BRANCH   1   7
HETATM    7  C   UNL     1     -42.609  55.437 -56.089  1.00  0.00     0.271 C 
HETATM    8  N   UNL     1     -42.830  56.744 -55.620  1.00  0.00    -0.346 N 
HETATM    9  O   UNL     1     -43.151  55.040 -57.121  1.00  0.00    -0.266 OA
BRANCH   8  10
HETATM   10  C   UNL     1     -43.406  57.700 -56.576  1.00  0.00     0.126 C 
BRANCH  10  11
HETATM   11  C   UNL     1     -42.366  58.645 -57.184  1.00  0.00     0.015 C 
HETATM   12  C   UNL     1     -41.946  58.238 -58.588  1.00  0.00     0.006 C 
ENDBRANCH  10  11
ENDBRANCH   8  10
BRANCH   8  13
HETATM   13  C   UNL     1     -42.382  57.237 -54.305  1.00  0.00     0.130 C 
BRANCH  13  14
HETATM   14  C   UNL     1     -43.343  56.995 -53.127  1.00  0.00     0.058 C 
BRANCH  14  15
HETATM   15  C   UNL     1     -42.732  56.328 -51.912  1.00  0.00    -0.057 A 
HETATM   16  C   UNL     1     -43.373  55.203 -51.365  1.00  0.00     0.007 A 
HETATM   17  C   UNL     1     -42.830  54.528 -50.270  1.00  0.00     0.001 A 
HETATM   18  C   UNL     1     -41.634  54.962 -49.707  1.00  0.00     0.000 A 
HETATM   19  C   UNL     1     -40.975  56.064 -50.248  1.00  0.00     0.001 A 
HETATM   20  C   UNL     1     -41.515  56.737 -51.348  1.00  0.00     0.007 A 
ENDBRANCH  14  15
ENDBRANCH  13  14
ENDBRANCH   8  13
ENDBRANCH   1   7
BRANCH   5  21
HETATM   21  C   UNL     1     -40.252  52.024 -53.103  1.00  0.00     0.028 A 
HETATM   22  C   UNL     1     -39.907  50.719 -53.501  1.00  0.00     0.078 A 
HETATM   23  C   UNL     1     -39.545  49.746 -52.569  1.00  0.00     0.037 A 
HETATM   24  C   UNL     1     -39.529  50.058 -51.212  1.00  0.00     0.003 A 
HETATM   25  C   UNL     1     -39.875  51.340 -50.792  1.00  0.00     0.001 A 
HETATM   26  C   UNL     1     -40.234  52.316 -51.729  1.00  0.00     0.017 A 
BRANCH  22  27
HETATM   27  O   UNL     1     -39.906  50.320 -54.813  1.00  0.00    -0.360 OA
HETATM   28  H   UNL     1     -39.058  50.644 -55.196  1.00  0.00     0.217 HD
ENDBRANCH  22  27
ENDBRANCH   5  21
TORSDOF 8
ENDMDL
MODEL 4
REMARK VINA RESULT:      -7.7      2.021      6.745
REMARK  8 active torsions:
REMARK  status: ('A' for Active; 'I' for Inactive)
REMARK    1  A    between atoms: C_2  and  C_3 
REMARK    2  A    between atoms: C_3  and  N_4 
REMARK       I    between atoms: N_4  and  C_5 
REMARK    3  A    between atoms: N_4  and  C_20 
REMARK    4  A    between atoms: C_5  and  C_6 
REMARK    5  A    between atoms: C_10  and  C_11 
REMARK    6  A    between atoms: C_12  and  O_13 
REMARK    7  A    between atoms: C_20  and  C_21 
REMARK    8  A    between atoms: C_21  and  C_22 
ROOT
HETATM    1  C   UNL     1     -41.948  54.784 -55.598  1.00  0.00     0.120 A 
HETATM    2  N   UNL     1     -40.625  55.108 -55.475  1.00  0.00    -0.272 N 
HETATM    3  H   UNL     1     -40.180  55.954 -55.822  1.00  0.00     0.189 HD
HETATM    4  N   UNL     1     -39.881  54.194 -54.832  1.00  0.00    -0.174 NA
HETATM    5  C   UNL     1     -40.760  53.244 -54.467  1.00  0.00     0.092 A 
HETATM    6  C   UNL     1     -42.070  53.601 -54.896  1.00  0.00     0.071 A 
ENDROOT
BRANCH   1   7
HETATM    7  C   UNL     1     -42.854  55.689 -56.269  1.00  0.00     0.271 C 
HETATM    8  N   UNL     1     -43.708  56.533 -55.537  1.00  0.00    -0.346 N 
HETATM    9  O   UNL     1     -42.870  55.695 -57.501  1.00  0.00    -0.266 OA
BRANCH   8  10
HETATM   10  C   UNL     1     -44.319  57.650 -56.270  1.00  0.00     0.126 C 
BRANCH  10  11
HETATM   11  C   UNL     1     -43.421  58.888 -56.342  1.00  0.00     0.015 C 
HETATM   12  C   UNL     1     -43.475  59.582 -57.694  1.00  0.00     0.006 C 
ENDBRANCH  10  11
ENDBRANCH   8  10
BRANCH   8  13
HETATM   13  C   UNL     1     -43.895  56.456 -54.077  1.00  0.00     0.130 C 
BRANCH  13  14
HETATM   14  C   UNL     1     -42.746  57.015 -53.217  1.00  0.00     0.058 C 
BRANCH  14  15
HETATM   15  C   UNL     1     -42.431  56.231 -51.958  1.00  0.00    -0.057 A 
HETATM   16  C   UNL     1     -41.458  56.732 -51.078  1.00  0.00     0.007 A 
HETATM   17  C   UNL     1     -41.158  56.069 -49.886  1.00  0.00     0.001 A 
HETATM   18  C   UNL     1     -41.833  54.899 -49.551  1.00  0.00     0.000 A 
HETATM   19  C   UNL     1     -42.815  54.399 -50.403  1.00  0.00     0.001 A 
HETATM   20  C   UNL     1     -43.120  55.065 -51.594  1.00  0.00     0.007 A 
ENDBRANCH  14  15
ENDBRANCH  13  14
ENDBRANCH   8  13
ENDBRANCH   1   7
BRANCH   5  21
HETATM   21  C   UNL     1     -40.326  52.057 -53.714  1.00  0.00     0.028 A 
HETATM   22  C   UNL     1     -39.892  52.145 -52.377  1.00  0.00     0.078 A 
HETATM   23  C   UNL     1     -39.487  51.015 -51.668  1.00  0.00     0.037 A 
HETATM   24  C   UNL     1     -39.497  49.767 -52.286  1.00  0.00     0.003 A 
HETATM   25  C   UNL     1     -39.913  49.654 -53.611  1.00  0.00     0.001 A 
HETATM   26  C   UNL     1     -40.324  50.789 -54.319  1.00  0.00     0.017 A 
BRANCH  22  27
HETATM   27  O   UNL     1     -39.838  53.332 -51.693  1.00  0.00    -0.360 OA
HETATM   28  H   UNL     1     -40.208  53.148 -50.798  1.00  0.00     0.217 HD
ENDBRANCH  22  27
ENDBRANCH   5  21
TORSDOF 8
ENDMDL
MODEL 5
REMARK VINA RESULT:      -7.5      2.572      6.395
REMARK  8 active torsions:
REMARK  status: ('A' for Active; 'I' for Inactive)
REMARK    1  A    between atoms: C_2  and  C_3 
REMARK    2  A    between atoms: C_3  and  N_4 
REMARK       I    between atoms: N_4  and  C_5 
REMARK    3  A    between atoms: N_4  and  C_20 
REMARK    4  A    between atoms: C_5  and  C_6 
REMARK    5  A    between atoms: C_10  and  C_11 
REMARK    6  A    between atoms: C_12  and  O_13 
REMARK    7  A    between atoms: C_20  and  C_21 
REMARK    8  A    between atoms: C_21  and  C_22 
ROOT
HETATM    1  C   UNL     1     -41.927  56.883 -51.244  1.00  0.00     0.120 A 
HETATM    2  N   UNL     1     -42.407  56.023 -50.293  1.00  0.00    -0.272 N 
HETATM    3  H   UNL     1     -43.010  56.269 -49.512  1.00  0.00     0.189 HD
HETATM    4  N   UNL     1     -42.016  54.747 -50.443  1.00  0.00    -0.174 NA
HETATM    5  C   UNL     1     -41.287  54.751 -51.573  1.00  0.00     0.092 A 
HETATM    6  C   UNL     1     -41.243  56.064 -52.121  1.00  0.00     0.071 A 
ENDROOT
BRANCH   1   7
HETATM    7  C   UNL     1     -42.278  58.284 -51.193  1.00  0.00     0.271 C 
HETATM    8  N   UNL     1     -43.538  58.731 -51.629  1.00  0.00    -0.346 N 
HETATM    9  O   UNL     1     -41.442  59.082 -50.768  1.00  0.00    -0.266 OA
BRANCH   8  10
HETATM   10  C   UNL     1     -43.938  60.084 -51.217  1.00  0.00     0.126 C 
BRANCH  10  11
HETATM   11  C   UNL     1     -45.287  60.119 -50.493  1.00  0.00     0.015 C 
HETATM   12  C   UNL     1     -46.300  61.028 -51.171  1.00  0.00     0.006 C 
ENDBRANCH  10  11
ENDBRANCH   8  10
BRANCH   8  13
HETATM   13  C   UNL     1     -44.520  57.882 -52.326  1.00  0.00     0.130 C 
BRANCH  13  14
HETATM   14  C   UNL     1     -44.566  58.017 -53.860  1.00  0.00     0.058 C 
BRANCH  14  15
HETATM   15  C   UNL     1     -43.921  56.886 -54.635  1.00  0.00    -0.057 A 
HETATM   16  C   UNL     1     -44.058  55.573 -54.152  1.00  0.00     0.007 A 
HETATM   17  C   UNL     1     -43.518  54.491 -54.850  1.00  0.00     0.001 A 
HETATM   18  C   UNL     1     -42.838  54.703 -56.045  1.00  0.00     0.000 A 
HETATM   19  C   UNL     1     -42.709  55.995 -56.548  1.00  0.00     0.001 A 
HETATM   20  C   UNL     1     -43.255  57.079 -55.853  1.00  0.00     0.007 A 
ENDBRANCH  14  15
ENDBRANCH  13  14
ENDBRANCH   8  13
ENDBRANCH   1   7
BRANCH   5  21
HETATM   21  C   UNL     1     -40.684  53.513 -52.091  1.00  0.00     0.028 A 
HETATM   22  C   UNL     1     -40.206  52.505 -51.232  1.00  0.00     0.078 A 
HETATM   23  C   UNL     1     -39.641  51.332 -51.730  1.00  0.00     0.037 A 
HETATM   24  C   UNL     1     -39.530  51.145 -53.105  1.00  0.00     0.003 A 
HETATM   25  C   UNL     1     -39.987  52.131 -53.977  1.00  0.00     0.001 A 
HETATM   26  C   UNL     1     -40.559  53.305 -53.475  1.00  0.00     0.017 A 
BRANCH  22  27
HETATM   27  O   UNL     1     -40.263  52.609 -49.865  1.00  0.00    -0.360 OA
HETATM   28  H   UNL     1     -41.023  53.205 -49.668  1.00  0.00     0.217 HD
ENDBRANCH  22  27
ENDBRANCH   5  21
TORSDOF 8
ENDMDL
MODEL 6
REMARK VINA RESULT:      -7.4      3.577      6.801
REMARK  8 active torsions:
REMARK  status: ('A' for Active; 'I' for Inactive)
REMARK    1  A    between atoms: C_2  and  C_3 
REMARK    2  A    between atoms: C_3  and  N_4 
REMARK       I    between atoms: N_4  and  C_5 
REMARK    3  A    between atoms: N_4  and  C_20 
REMARK    4  A    between atoms: C_5  and  C_6 
REMARK    5  A    between atoms: C_10  and  C_11 
REMARK    6  A    between atoms: C_12  and  O_13 
REMARK    7  A    between atoms: C_20  and  C_21 
REMARK    8  A    between atoms: C_21  and  C_22 
ROOT
HETATM    1  C   UNL     1     -44.416  57.750 -51.614  1.00  0.00     0.120 A 
HETATM    2  N   UNL     1     -43.683  57.248 -50.573  1.00  0.00    -0.272 N 
HETATM    3  H   UNL     1     -43.795  57.487 -49.590  1.00  0.00     0.189 HD
HETATM    4  N   UNL     1     -42.738  56.363 -50.927  1.00  0.00    -0.174 NA
HETATM    5  C   UNL     1     -42.883  56.234 -52.258  1.00  0.00     0.092 A 
HETATM    6  C   UNL     1     -43.951  57.058 -52.715  1.00  0.00     0.071 A 
ENDROOT
BRANCH   1   7
HETATM    7  C   UNL     1     -45.466  58.711 -51.361  1.00  0.00     0.271 C 
HETATM    8  N   UNL     1     -45.533  59.916 -52.084  1.00  0.00    -0.346 N 
HETATM    9  O   UNL     1     -46.297  58.455 -50.489  1.00  0.00    -0.266 OA
BRANCH   8  10
HETATM   10  C   UNL     1     -46.804  60.652 -52.024  1.00  0.00     0.126 C 
BRANCH  10  11
HETATM   11  C   UNL     1     -46.663  62.048 -51.411  1.00  0.00     0.015 C 
HETATM   12  C   UNL     1     -46.238  62.014 -49.951  1.00  0.00     0.006 C 
ENDBRANCH  10  11
ENDBRANCH   8  10
BRANCH   8  13
HETATM   13  C   UNL     1     -44.482  60.389 -53.001  1.00  0.00     0.130 C 
BRANCH  13  14
HETATM   14  C   UNL     1     -43.329  61.183 -52.359  1.00  0.00     0.058 C 
BRANCH  14  15
HETATM   15  C   UNL     1     -42.141  60.360 -51.905  1.00  0.00    -0.057 A 
HETATM   16  C   UNL     1     -41.856  60.288 -50.531  1.00  0.00     0.007 A 
HETATM   17  C   UNL     1     -40.796  59.511 -50.057  1.00  0.00     0.001 A 
HETATM   18  C   UNL     1     -40.010  58.787 -50.948  1.00  0.00     0.000 A 
HETATM   19  C   UNL     1     -40.291  58.832 -52.312  1.00  0.00     0.001 A 
HETATM   20  C   UNL     1     -41.355  59.604 -52.787  1.00  0.00     0.007 A 
ENDBRANCH  14  15
ENDBRANCH  13  14
ENDBRANCH   8  13
ENDBRANCH   1   7
BRANCH   5  21
HETATM   21  C   UNL     1     -42.023  55.324 -53.031  1.00  0.00     0.028 A 
HETATM   22  C   UNL     1     -41.812  53.989 -52.635  1.00  0.00     0.078 A 
HETATM   23  C   UNL     1     -40.999  53.131 -53.375  1.00  0.00     0.037 A 
HETATM   24  C   UNL     1     -40.369  53.594 -54.527  1.00  0.00     0.003 A 
HETATM   25  C   UNL     1     -40.554  54.913 -54.935  1.00  0.00     0.001 A 
HETATM   26  C   UNL     1     -41.374  55.771 -54.194  1.00  0.00     0.017 A 
BRANCH  22  27
HETATM   27  O   UNL     1     -42.382  53.451 -51.509  1.00  0.00    -0.360 OA
HETATM   28  H   UNL     1     -41.785  53.689 -50.762  1.00  0.00     0.217 HD
ENDBRANCH  22  27
ENDBRANCH   5  21
TORSDOF 8
ENDMDL
MODEL 7
REMARK VINA RESULT:      -7.4      2.175      7.445
REMARK  8 active torsions:
REMARK  status: ('A' for Active; 'I' for Inactive)
REMARK    1  A    between atoms: C_2  and  C_3 
REMARK    2  A    between atoms: C_3  and  N_4 
REMARK       I    between atoms: N_4  and  C_5 
REMARK    3  A    between atoms: N_4  and  C_20 
REMARK    4  A    between atoms: C_5  and  C_6 
REMARK    5  A    between atoms: C_10  and  C_11 
REMARK    6  A    between atoms: C_12  and  O_13 
REMARK    7  A    between atoms: C_20  and  C_21 
REMARK    8  A    between atoms: C_21  and  C_22 
ROOT
HETATM    1  C   UNL     1     -41.367  55.928 -53.860  1.00  0.00     0.120 A 
HETATM    2  N   UNL     1     -42.319  55.392 -53.036  1.00  0.00    -0.272 N 
HETATM    3  H   UNL     1     -43.135  55.876 -52.667  1.00  0.00     0.189 HD
HETATM    4  N   UNL     1     -42.117  54.106 -52.708  1.00  0.00    -0.174 NA
HETATM    5  C   UNL     1     -41.009  53.758 -53.385  1.00  0.00     0.092 A 
HETATM    6  C   UNL     1     -40.535  54.864 -54.148  1.00  0.00     0.071 A 
ENDROOT
BRANCH   1   7
HETATM    7  C   UNL     1     -41.473  57.305 -54.286  1.00  0.00     0.271 C 
HETATM    8  N   UNL     1     -42.094  57.640 -55.503  1.00  0.00    -0.346 N 
HETATM    9  O   UNL     1     -40.997  58.181 -53.563  1.00  0.00    -0.266 OA
BRANCH   8  10
HETATM   10  C   UNL     1     -42.474  59.048 -55.685  1.00  0.00     0.126 C 
BRANCH  10  11
HETATM   11  C   UNL     1     -43.695  59.455 -54.855  1.00  0.00     0.015 C 
HETATM   12  C   UNL     1     -44.976  58.774 -55.313  1.00  0.00     0.006 C 
ENDBRANCH  10  11
ENDBRANCH   8  10
BRANCH   8  13
HETATM   13  C   UNL     1     -42.517  56.655 -56.514  1.00  0.00     0.130 C 
BRANCH  13  14
HETATM   14  C   UNL     1     -42.652  57.178 -57.955  1.00  0.00     0.058 C 
BRANCH  14  15
HETATM   15  C   UNL     1     -43.769  56.561 -58.773  1.00  0.00    -0.057 A 
HETATM   16  C   UNL     1     -45.005  57.225 -58.836  1.00  0.00     0.007 A 
HETATM   17  C   UNL     1     -46.054  56.719 -59.607  1.00  0.00     0.001 A 
HETATM   18  C   UNL     1     -45.881  55.545 -60.333  1.00  0.00     0.000 A 
HETATM   19  C   UNL     1     -44.656  54.884 -60.298  1.00  0.00     0.001 A 
HETATM   20  C   UNL     1     -43.603  55.393 -59.531  1.00  0.00     0.007 A 
ENDBRANCH  14  15
ENDBRANCH  13  14
ENDBRANCH   8  13
ENDBRANCH   1   7
BRANCH   5  21
HETATM   21  C   UNL     1     -40.462  52.395 -53.297  1.00  0.00     0.028 A 
HETATM   22  C   UNL     1     -39.936  51.884 -52.095  1.00  0.00     0.078 A 
HETATM   23  C   UNL     1     -39.424  50.589 -52.017  1.00  0.00     0.037 A 
HETATM   24  C   UNL     1     -39.417  49.777 -53.148  1.00  0.00     0.003 A 
HETATM   25  C   UNL     1     -39.923  50.262 -54.352  1.00  0.00     0.001 A 
HETATM   26  C   UNL     1     -40.442  51.560 -54.427  1.00  0.00     0.017 A 
BRANCH  22  27
HETATM   27  O   UNL     1     -39.891  52.616 -50.936  1.00  0.00    -0.360 OA
HETATM   28  H   UNL     1     -39.229  52.169 -50.358  1.00  0.00     0.217 HD
ENDBRANCH  22  27
ENDBRANCH   5  21
TORSDOF 8
ENDMDL
MODEL 8
REMARK VINA RESULT:      -7.3      1.832      2.204
REMARK  8 active torsions:
REMARK  status: ('A' for Active; 'I' for Inactive)
REMARK    1  A    between atoms: C_2  and  C_3 
REMARK    2  A    between atoms: C_3  and  N_4 
REMARK       I    between atoms: N_4  and  C_5 
REMARK    3  A    between atoms: N_4  and  C_20 
REMARK    4  A    between atoms: C_5  and  C_6 
REMARK    5  A    between atoms: C_10  and  C_11 
REMARK    6  A    between atoms: C_12  and  O_13 
REMARK    7  A    between atoms: C_20  and  C_21 
REMARK    8  A    between atoms: C_21  and  C_22 
ROOT
HETATM    1  C   UNL     1     -42.432  57.370 -53.149  1.00  0.00     0.120 A 
HETATM    2  N   UNL     1     -41.512  58.382 -53.157  1.00  0.00    -0.272 N 
HETATM    3  H   UNL     1     -40.976  58.712 -52.358  1.00  0.00     0.189 HD
HETATM    4  N   UNL     1     -41.336  58.970 -54.351  1.00  0.00    -0.174 NA
HETATM    5  C   UNL     1     -42.137  58.283 -55.184  1.00  0.00     0.092 A 
HETATM    6  C   UNL     1     -42.809  57.248 -54.473  1.00  0.00     0.071 A 
ENDROOT
BRANCH   1   7
HETATM    7  C   UNL     1     -42.711  56.656 -51.923  1.00  0.00     0.271 C 
HETATM    8  N   UNL     1     -41.879  55.609 -51.490  1.00  0.00    -0.346 N 
HETATM    9  O   UNL     1     -43.703  56.980 -51.269  1.00  0.00    -0.266 OA
BRANCH   8  10
HETATM   10  C   UNL     1     -42.020  55.189 -50.089  1.00  0.00     0.126 C 
BRANCH  10  11
HETATM   11  C   UNL     1     -40.676  54.988 -49.382  1.00  0.00     0.015 C 
HETATM   12  C   UNL     1     -40.541  53.613 -48.747  1.00  0.00     0.006 C 
ENDBRANCH  10  11
ENDBRANCH   8  10
BRANCH   8  13
HETATM   13  C   UNL     1     -40.790  55.030 -52.299  1.00  0.00     0.130 C 
BRANCH  13  14
HETATM   14  C   UNL     1     -41.213  54.014 -53.376  1.00  0.00     0.058 C 
BRANCH  14  15
HETATM   15  C   UNL     1     -40.637  52.621 -53.223  1.00  0.00    -0.057 A 
HETATM   16  C   UNL     1     -40.672  51.751 -54.326  1.00  0.00     0.007 A 
HETATM   17  C   UNL     1     -40.120  50.471 -54.249  1.00  0.00     0.001 A 
HETATM   18  C   UNL     1     -39.517  50.042 -53.071  1.00  0.00     0.000 A 
HETATM   19  C   UNL     1     -39.456  50.898 -51.974  1.00  0.00     0.001 A 
HETATM   20  C   UNL     1     -40.004  52.182 -52.051  1.00  0.00     0.007 A 
ENDBRANCH  14  15
ENDBRANCH  13  14
ENDBRANCH   8  13
ENDBRANCH   1   7
BRANCH   5  21
HETATM   21  C   UNL     1     -42.215  58.622 -56.614  1.00  0.00     0.028 A 
HETATM   22  C   UNL     1     -41.989  59.932 -57.078  1.00  0.00     0.078 A 
HETATM   23  C   UNL     1     -42.059  60.245 -58.436  1.00  0.00     0.037 A 
HETATM   24  C   UNL     1     -42.369  59.252 -59.361  1.00  0.00     0.003 A 
HETATM   25  C   UNL     1     -42.606  57.949 -58.926  1.00  0.00     0.001 A 
HETATM   26  C   UNL     1     -42.529  57.636 -57.564  1.00  0.00     0.017 A 
BRANCH  22  27
HETATM   27  O   UNL     1     -41.690  60.975 -56.238  1.00  0.00    -0.360 OA
HETATM   28  H   UNL     1     -41.684  60.597 -55.328  1.00  0.00     0.217 HD
ENDBRANCH  22  27
ENDBRANCH   5  21
TORSDOF 8
ENDMDL
MODEL 9
REMARK VINA RESULT:      -7.3      1.603      2.010
REMARK  8 active torsions:
REMARK  status: ('A' for Active; 'I' for Inactive)
REMARK    1  A    between atoms: C_2  and  C_3 
REMARK    2  A    between atoms: C_3  and  N_4 
REMARK       I    between atoms: N_4  and  C_5 
REMARK    3  A    between atoms: N_4  and  C_20 
REMARK    4  A    between atoms: C_5  and  C_6 
REMARK    5  A    between atoms: C_10  and  C_11 
REMARK    6  A    between atoms: C_12  and  O_13 
REMARK    7  A    between atoms: C_20  and  C_21 
REMARK    8  A    between atoms: C_21  and  C_22 
ROOT
HETATM    1  C   UNL     1     -42.939  57.195 -54.406  1.00  0.00     0.120 A 
HETATM    2  N   UNL     1     -41.988  57.792 -55.187  1.00  0.00    -0.272 N 
HETATM    3  H   UNL     1     -41.090  58.150 -54.871  1.00  0.00     0.189 HD
HETATM    4  N   UNL     1     -42.314  57.897 -56.485  1.00  0.00    -0.174 NA
HETATM    5  C   UNL     1     -43.514  57.297 -56.579  1.00  0.00     0.092 A 
HETATM    6  C   UNL     1     -43.917  56.811 -55.302  1.00  0.00     0.071 A 
ENDROOT
BRANCH   1   7
HETATM    7  C   UNL     1     -42.706  57.022 -52.990  1.00  0.00     0.271 C 
HETATM    8  N   UNL     1     -42.187  55.817 -52.484  1.00  0.00    -0.346 N 
HETATM    9  O   UNL     1     -42.983  57.953 -52.232  1.00  0.00    -0.266 OA
BRANCH   8  10
HETATM   10  C   UNL     1     -41.653  55.850 -51.116  1.00  0.00     0.126 C 
BRANCH  10  11
HETATM   11  C   UNL     1     -42.210  54.737 -50.223  1.00  0.00     0.015 C 
HETATM   12  C   UNL     1     -41.196  54.225 -49.213  1.00  0.00     0.006 C 
ENDBRANCH  10  11
ENDBRANCH   8  10
BRANCH   8  13
HETATM   13  C   UNL     1     -42.010  54.592 -53.286  1.00  0.00     0.130 C 
BRANCH  13  14
HETATM   14  C   UNL     1     -40.556  54.191 -53.597  1.00  0.00     0.058 C 
BRANCH  14  15
HETATM   15  C   UNL     1     -40.221  52.729 -53.381  1.00  0.00    -0.057 A 
HETATM   16  C   UNL     1     -39.873  52.300 -52.090  1.00  0.00     0.007 A 
HETATM   17  C   UNL     1     -39.593  50.957 -51.830  1.00  0.00     0.001 A 
HETATM   18  C   UNL     1     -39.665  50.019 -52.856  1.00  0.00     0.000 A 
HETATM   19  C   UNL     1     -40.027  50.424 -54.138  1.00  0.00     0.001 A 
HETATM   20  C   UNL     1     -40.313  51.768 -54.398  1.00  0.00     0.007 A 
ENDBRANCH  14  15
ENDBRANCH  13  14
ENDBRANCH   8  13
ENDBRANCH   1   7
BRANCH   5  21
HETATM   21  C   UNL     1     -44.213  57.192 -57.870  1.00  0.00     0.028 A 
HETATM   22  C   UNL     1     -43.644  56.518 -58.967  1.00  0.00     0.078 A 
HETATM   23  C   UNL     1     -44.314  56.418 -60.186  1.00  0.00     0.037 A 
HETATM   24  C   UNL     1     -45.568  57.002 -60.338  1.00  0.00     0.003 A 
HETATM   25  C   UNL     1     -46.149  57.684 -59.270  1.00  0.00     0.001 A 
HETATM   26  C   UNL     1     -45.477  57.778 -58.046  1.00  0.00     0.017 A 
BRANCH  22  27
HETATM   27  O   UNL     1     -42.409  55.923 -58.912  1.00  0.00    -0.360 OA
HETATM   28  H   UNL     1     -41.871  56.469 -58.293  1.00  0.00     0.217 HD
ENDBRANCH  22  27
ENDBRANCH   5  21
TORSDOF 8
ENDMDL
MODEL 10
REMARK VINA RESULT:      -7.3      2.236      7.332
REMARK  8 active torsions:
REMARK  status: ('A' for Active; 'I' for Inactive)
REMARK    1  A    between atoms: C_2  and  C_3 
REMARK    2  A    between atoms: C_3  and  N_4 
REMARK       I    between atoms: N_4  and  C_5 
REMARK    3  A    between atoms: N_4  and  C_20 
REMARK    4  A    between atoms: C_5  and  C_6 
REMARK    5  A    between atoms: C_10  and  C_11 
REMARK    6  A    between atoms: C_12  and  O_13 
REMARK    7  A    between atoms: C_20  and  C_21 
REMARK    8  A    between atoms: C_21  and  C_22 
ROOT
HETATM    1  C   UNL     1     -42.764  55.918 -55.693  1.00  0.00     0.120 A 
HETATM    2  N   UNL     1     -43.732  55.291 -54.958  1.00  0.00    -0.272 N 
HETATM    3  H   UNL     1     -44.731  55.478 -54.997  1.00  0.00     0.189 HD
HETATM    4  N   UNL     1     -43.275  54.349 -54.116  1.00  0.00    -0.174 NA
HETATM    5  C   UNL     1     -41.950  54.315 -54.340  1.00  0.00     0.092 A 
HETATM    6  C   UNL     1     -41.600  55.257 -55.350  1.00  0.00     0.071 A 
ENDROOT
BRANCH   1   7
HETATM    7  C   UNL     1     -43.128  56.951 -56.637  1.00  0.00     0.271 C 
HETATM    8  N   UNL     1     -43.158  58.303 -56.254  1.00  0.00    -0.346 N 
HETATM    9  O   UNL     1     -43.423  56.617 -57.785  1.00  0.00    -0.266 OA
BRANCH   8  10
HETATM   10  C   UNL     1     -43.183  59.296 -57.337  1.00  0.00     0.126 C 
BRANCH  10  11
HETATM   11  C   UNL     1     -41.805  59.553 -57.952  1.00  0.00     0.015 C 
HETATM   12  C   UNL     1     -41.451  61.031 -58.016  1.00  0.00     0.006 C 
ENDBRANCH  10  11
ENDBRANCH   8  10
BRANCH   8  13
HETATM   13  C   UNL     1     -43.009  58.773 -54.865  1.00  0.00     0.130 C 
BRANCH  13  14
HETATM   14  C   UNL     1     -41.591  59.199 -54.442  1.00  0.00     0.058 C 
BRANCH  14  15
HETATM   15  C   UNL     1     -41.375  59.365 -52.951  1.00  0.00    -0.057 A 
HETATM   16  C   UNL     1     -40.201  58.849 -52.378  1.00  0.00     0.007 A 
HETATM   17  C   UNL     1     -39.936  59.009 -51.016  1.00  0.00     0.001 A 
HETATM   18  C   UNL     1     -40.837  59.694 -50.207  1.00  0.00     0.000 A 
HETATM   19  C   UNL     1     -41.997  60.229 -50.762  1.00  0.00     0.001 A 
HETATM   20  C   UNL     1     -42.260  60.074 -52.127  1.00  0.00     0.007 A 
ENDBRANCH  14  15
ENDBRANCH  13  14
ENDBRANCH   8  13
ENDBRANCH   1   7
BRANCH   5  21
HETATM   21  C   UNL     1     -41.080  53.381 -53.607  1.00  0.00     0.028 A 
HETATM   22  C   UNL     1     -40.838  53.523 -52.228  1.00  0.00     0.078 A 
HETATM   23  C   UNL     1     -40.016  52.631 -51.538  1.00  0.00     0.037 A 
HETATM   24  C   UNL     1     -39.408  51.580 -52.218  1.00  0.00     0.003 A 
HETATM   25  C   UNL     1     -39.625  51.423 -53.586  1.00  0.00     0.001 A 
HETATM   26  C   UNL     1     -40.453  52.316 -54.275  1.00  0.00     0.017 A 
BRANCH  22  27
HETATM   27  O   UNL     1     -41.384  54.535 -51.479  1.00  0.00    -0.360 OA
HETATM   28  H   UNL     1     -40.623  55.040 -51.108  1.00  0.00     0.217 HD
ENDBRANCH  22  27
ENDBRANCH   5  21
TORSDOF 8
ENDMDL
