MODEL 1
REMARK VINA RESULT:      -8.7      0.000      0.000
REMARK  9 active torsions:
REMARK  status: ('A' for Active; 'I' for Inactive)
REMARK    1  A    between atoms: C_2  and  O_3 
REMARK    2  A    between atoms: O_3  and  C_4 
REMARK    3  A    between atoms: C_7  and  C_8 
REMARK    4  A    between atoms: C_9  and  C_10 
REMARK       I    between atoms: C_10  and  N_11 
REMARK    5  A    between atoms: N_11  and  C_12 
REMARK    6  A    between atoms: C_22  and  S_23 
REMARK    7  A    between atoms: S_23  and  C_24 
REMARK    8  A    between atoms: C_24  and  C_25 
REMARK       I    between atoms: C_25  and  N_26 
REMARK    9  A    between atoms: N_26  and  C_27 
ROOT
HETATM    1  C   UNL     1     -43.717  57.552 -54.296  1.00  0.00     0.106 C 
HETATM    2  C   UNL     1     -43.169  58.416 -55.420  1.00  0.00     0.046 C 
HETATM    3  C   UNL     1     -42.687  59.654 -55.174  1.00  0.00     0.019 C 
HETATM    4  C   UNL     1     -42.219  60.624 -56.229  1.00  0.00     0.069 C 
HETATM    5  N   UNL     1     -42.656  60.119 -53.868  1.00  0.00    -0.353 N 
HETATM    6  C   UNL     1     -43.317  59.530 -52.800  1.00  0.00     0.088 C 
HETATM    7  C   UNL     1     -43.909  58.321 -52.980  1.00  0.00     0.069 C 
HETATM    8  C   UNL     1     -44.674  57.665 -51.966  1.00  0.00     0.099 C 
HETATM    9  N   UNL     1     -45.314  57.122 -51.165  1.00  0.00    -0.192 NA
HETATM   10  H   UNL     1     -42.243  61.030 -53.707  1.00  0.00     0.166 HD
ENDROOT
BRANCH   1  11
HETATM   11  C   UNL     1     -42.813  56.343 -54.009  1.00  0.00    -0.044 A 
HETATM   12  C   UNL     1     -43.329  55.033 -54.027  1.00  0.00     0.011 A 
HETATM   13  C   UNL     1     -42.477  53.928 -53.999  1.00  0.00     0.037 A 
HETATM   14  C   UNL     1     -41.096  54.118 -53.966  1.00  0.00     0.068 A 
HETATM   15  C   UNL     1     -40.577  55.407 -53.856  1.00  0.00     0.037 A 
HETATM   16  C   UNL     1     -41.427  56.516 -53.884  1.00  0.00     0.011 A 
BRANCH  14  17
HETATM   17  O   UNL     1     -40.183  53.101 -54.037  1.00  0.00    -0.352 OA
BRANCH  17  18
HETATM   18  C   UNL     1     -40.766  51.812 -54.256  1.00  0.00     0.171 C 
HETATM   19  C   UNL     1     -39.731  50.754 -53.918  1.00  0.00     0.034 C 
ENDBRANCH  17  18
ENDBRANCH  14  17
ENDBRANCH   1  11
BRANCH   6  20
HETATM   20  S   UNL     1     -43.277  60.228 -51.191  1.00  0.00    -0.102 SA
BRANCH  20  21
HETATM   21  C   UNL     1     -41.539  60.075 -50.682  1.00  0.00     0.184 C 
BRANCH  21  22
HETATM   22  C   UNL     1     -40.986  58.670 -50.942  1.00  0.00     0.231 C 
HETATM   23  N   UNL     1     -41.605  57.674 -50.207  1.00  0.00    -0.327 N 
HETATM   24  H   UNL     1     -42.257  58.004 -49.502  1.00  0.00     0.169 HD
HETATM   25  O   UNL     1     -40.133  58.501 -51.811  1.00  0.00    -0.272 OA
BRANCH  23  26
HETATM   26  C   UNL     1     -41.390  56.285 -50.242  1.00  0.00     0.034 A 
HETATM   27  C   UNL     1     -42.393  55.342 -50.449  1.00  0.00     0.030 A 
HETATM   28  C   UNL     1     -42.086  53.976 -50.467  1.00  0.00     0.009 A 
HETATM   29  C   UNL     1     -40.773  53.535 -50.263  1.00  0.00    -0.062 A 
HETATM   30  C   UNL     1     -40.436  52.074 -50.311  1.00  0.00     0.048 C 
HETATM   31  C   UNL     1     -39.766  54.482 -50.067  1.00  0.00     0.009 A 
HETATM   32  C   UNL     1     -40.073  55.845 -50.055  1.00  0.00     0.030 A 
ENDBRANCH  23  26
ENDBRANCH  21  22
ENDBRANCH  20  21
ENDBRANCH   6  20
BRANCH   2  33
HETATM   33  C   UNL     1     -43.303  57.845 -56.788  1.00  0.00     0.255 C 
HETATM   34  N   UNL     1     -44.614  57.764 -57.207  1.00  0.00    -0.323 N 
HETATM   35  H   UNL     1     -45.313  58.159 -56.594  1.00  0.00     0.169 HD
HETATM   36  O   UNL     1     -42.293  57.536 -57.405  1.00  0.00    -0.268 OA
BRANCH  34  37
HETATM   37  C   UNL     1     -45.098  57.168 -58.390  1.00  0.00     0.035 A 
HETATM   38  C   UNL     1     -44.380  56.245 -59.151  1.00  0.00     0.029 A 
HETATM   39  C   UNL     1     -44.947  55.677 -60.297  1.00  0.00     0.002 A 
HETATM   40  C   UNL     1     -46.237  56.025 -60.689  1.00  0.00     0.000 A 
HETATM   41  C   UNL     1     -46.961  56.946 -59.939  1.00  0.00     0.002 A 
HETATM   42  C   UNL     1     -46.394  57.518 -58.797  1.00  0.00     0.029 A 
ENDBRANCH  34  37
ENDBRANCH   2  33
TORSDOF 9
ENDMDL
MODEL 2
REMARK VINA RESULT:      -8.2      2.211      8.275
REMARK  9 active torsions:
REMARK  status: ('A' for Active; 'I' for Inactive)
REMARK    1  A    between atoms: C_2  and  O_3 
REMARK    2  A    between atoms: O_3  and  C_4 
REMARK    3  A    between atoms: C_7  and  C_8 
REMARK    4  A    between atoms: C_9  and  C_10 
REMARK       I    between atoms: C_10  and  N_11 
REMARK    5  A    between atoms: N_11  and  C_12 
REMARK    6  A    between atoms: C_22  and  S_23 
REMARK    7  A    between atoms: S_23  and  C_24 
REMARK    8  A    between atoms: C_24  and  C_25 
REMARK       I    between atoms: C_25  and  N_26 
REMARK    9  A    between atoms: N_26  and  C_27 
ROOT
HETATM    1  C   UNL     1     -43.404  56.594 -52.802  1.00  0.00     0.106 C 
HETATM    2  C   UNL     1     -43.106  55.406 -53.701  1.00  0.00     0.046 C 
HETATM    3  C   UNL     1     -43.421  55.432 -55.015  1.00  0.00     0.019 C 
HETATM    4  C   UNL     1     -43.260  54.271 -55.964  1.00  0.00     0.069 C 
HETATM    5  N   UNL     1     -43.985  56.579 -55.552  1.00  0.00    -0.353 N 
HETATM    6  C   UNL     1     -44.502  57.631 -54.809  1.00  0.00     0.088 C 
HETATM    7  C   UNL     1     -44.310  57.644 -53.465  1.00  0.00     0.069 C 
HETATM    8  C   UNL     1     -44.862  58.642 -52.604  1.00  0.00     0.099 C 
HETATM    9  N   UNL     1     -45.315  59.431 -51.884  1.00  0.00    -0.192 NA
HETATM   10  H   UNL     1     -44.164  56.589 -56.549  1.00  0.00     0.166 HD
ENDROOT
BRANCH   1  11
HETATM   11  C   UNL     1     -42.119  57.302 -52.342  1.00  0.00    -0.044 A 
HETATM   12  C   UNL     1     -41.278  57.947 -53.269  1.00  0.00     0.011 A 
HETATM   13  C   UNL     1     -40.247  58.782 -52.837  1.00  0.00     0.037 A 
HETATM   14  C   UNL     1     -40.051  58.995 -51.473  1.00  0.00     0.068 A 
HETATM   15  C   UNL     1     -40.818  58.291 -50.546  1.00  0.00     0.037 A 
HETATM   16  C   UNL     1     -41.852  57.454 -50.974  1.00  0.00     0.011 A 
BRANCH  14  17
HETATM   17  O   UNL     1     -39.133  59.871 -50.960  1.00  0.00    -0.352 OA
BRANCH  17  18
HETATM   18  C   UNL     1     -37.919  59.249 -50.522  1.00  0.00     0.171 C 
HETATM   19  C   UNL     1     -37.390  60.021 -49.326  1.00  0.00     0.034 C 
ENDBRANCH  17  18
ENDBRANCH  14  17
ENDBRANCH   1  11
BRANCH   6  20
HETATM   20  S   UNL     1     -45.260  59.015 -55.575  1.00  0.00    -0.102 SA
BRANCH  20  21
HETATM   21  C   UNL     1     -44.059  59.544 -56.831  1.00  0.00     0.184 C 
BRANCH  21  22
HETATM   22  C   UNL     1     -44.513  59.178 -58.248  1.00  0.00     0.231 C 
HETATM   23  N   UNL     1     -45.765  58.592 -58.307  1.00  0.00    -0.327 N 
HETATM   24  H   UNL     1     -46.174  58.364 -57.406  1.00  0.00     0.169 HD
HETATM   25  O   UNL     1     -43.818  59.493 -59.212  1.00  0.00    -0.272 OA
BRANCH  23  26
HETATM   26  C   UNL     1     -46.503  58.191 -59.434  1.00  0.00     0.034 A 
HETATM   27  C   UNL     1     -47.179  59.066 -60.279  1.00  0.00     0.030 A 
HETATM   28  C   UNL     1     -47.891  58.576 -61.382  1.00  0.00     0.009 A 
HETATM   29  C   UNL     1     -47.947  57.203 -61.645  1.00  0.00    -0.062 A 
HETATM   30  C   UNL     1     -48.683  56.678 -62.840  1.00  0.00     0.048 C 
HETATM   31  C   UNL     1     -47.257  56.327 -60.804  1.00  0.00     0.009 A 
HETATM   32  C   UNL     1     -46.543  56.817 -59.707  1.00  0.00     0.030 A 
ENDBRANCH  23  26
ENDBRANCH  21  22
ENDBRANCH  20  21
ENDBRANCH   6  20
BRANCH   2  33
HETATM   33  C   UNL     1     -42.554  54.207 -53.014  1.00  0.00     0.255 C 
HETATM   34  N   UNL     1     -41.406  53.730 -53.610  1.00  0.00    -0.323 N 
HETATM   35  H   UNL     1     -41.031  54.273 -54.376  1.00  0.00     0.169 HD
HETATM   36  O   UNL     1     -43.119  53.782 -52.015  1.00  0.00    -0.268 OA
BRANCH  34  37
HETATM   37  C   UNL     1     -40.701  52.552 -53.289  1.00  0.00     0.035 A 
HETATM   38  C   UNL     1     -40.103  52.312 -52.051  1.00  0.00     0.029 A 
HETATM   39  C   UNL     1     -39.448  51.102 -51.803  1.00  0.00     0.002 A 
HETATM   40  C   UNL     1     -39.388  50.119 -52.789  1.00  0.00     0.000 A 
HETATM   41  C   UNL     1     -39.980  50.348 -54.027  1.00  0.00     0.002 A 
HETATM   42  C   UNL     1     -40.631  51.560 -54.277  1.00  0.00     0.029 A 
ENDBRANCH  34  37
ENDBRANCH   2  33
TORSDOF 9
ENDMDL
MODEL 3
REMARK VINA RESULT:      -8.2      3.161      7.230
REMARK  9 active torsions:
REMARK  status: ('A' for Active; 'I' for Inactive)
REMARK    1  A    between atoms: C_2  and  O_3 
REMARK    2  A    between atoms: O_3  and  C_4 
REMARK    3  A    between atoms: C_7  and  C_8 
REMARK    4  A    between atoms: C_9  and  C_10 
REMARK       I    between atoms: C_10  and  N_11 
REMARK    5  A    between atoms: N_11  and  C_12 
REMARK    6  A    between atoms: C_22  and  S_23 
REMARK    7  A    between atoms: S_23  and  C_24 
REMARK    8  A    between atoms: C_24  and  C_25 
REMARK       I    between atoms: C_25  and  N_26 
REMARK    9  A    between atoms: N_26  and  C_27 
ROOT
HETATM    1  C   UNL     1     -43.526  59.607 -51.651  1.00  0.00     0.106 C 
HETATM    2  C   UNL     1     -44.953  60.046 -51.366  1.00  0.00     0.046 C 
HETATM    3  C   UNL     1     -45.803  60.346 -52.373  1.00  0.00     0.019 C 
HETATM    4  C   UNL     1     -47.198  60.887 -52.193  1.00  0.00     0.069 C 
HETATM    5  N   UNL     1     -45.372  60.207 -53.684  1.00  0.00    -0.353 N 
HETATM    6  C   UNL     1     -44.051  60.032 -54.071  1.00  0.00     0.088 C 
HETATM    7  C   UNL     1     -43.110  59.811 -53.116  1.00  0.00     0.069 C 
HETATM    8  C   UNL     1     -41.715  59.690 -53.404  1.00  0.00     0.099 C 
HETATM    9  N   UNL     1     -40.577  59.606 -53.611  1.00  0.00    -0.192 NA
HETATM   10  H   UNL     1     -46.046  60.390 -54.419  1.00  0.00     0.166 HD
ENDROOT
BRANCH   1  11
HETATM   11  C   UNL     1     -43.300  58.128 -51.299  1.00  0.00    -0.044 A 
HETATM   12  C   UNL     1     -44.216  57.139 -51.706  1.00  0.00     0.011 A 
HETATM   13  C   UNL     1     -43.902  55.784 -51.594  1.00  0.00     0.037 A 
HETATM   14  C   UNL     1     -42.663  55.399 -51.086  1.00  0.00     0.068 A 
HETATM   15  C   UNL     1     -41.786  56.364 -50.595  1.00  0.00     0.037 A 
HETATM   16  C   UNL     1     -42.096  57.723 -50.705  1.00  0.00     0.011 A 
BRANCH  14  17
HETATM   17  O   UNL     1     -42.228  54.102 -51.031  1.00  0.00    -0.352 OA
BRANCH  17  18
HETATM   18  C   UNL     1     -41.012  53.927 -50.295  1.00  0.00     0.171 C 
HETATM   19  C   UNL     1     -40.515  52.511 -50.519  1.00  0.00     0.034 C 
ENDBRANCH  17  18
ENDBRANCH  14  17
ENDBRANCH   1  11
BRANCH   6  20
HETATM   20  S   UNL     1     -43.589  59.933 -55.760  1.00  0.00    -0.102 SA
BRANCH  20  21
HETATM   21  C   UNL     1     -44.458  58.460 -56.375  1.00  0.00     0.184 C 
BRANCH  21  22
HETATM   22  C   UNL     1     -43.536  57.239 -56.450  1.00  0.00     0.231 C 
HETATM   23  N   UNL     1     -43.114  56.774 -55.217  1.00  0.00    -0.327 N 
HETATM   24  H   UNL     1     -43.361  57.363 -54.428  1.00  0.00     0.169 HD
HETATM   25  O   UNL     1     -43.308  56.712 -57.537  1.00  0.00    -0.272 OA
BRANCH  23  26
HETATM   26  C   UNL     1     -42.319  55.653 -54.920  1.00  0.00     0.034 A 
HETATM   27  C   UNL     1     -40.952  55.707 -54.661  1.00  0.00     0.030 A 
HETATM   28  C   UNL     1     -40.239  54.536 -54.374  1.00  0.00     0.009 A 
HETATM   29  C   UNL     1     -40.883  53.293 -54.356  1.00  0.00    -0.062 A 
HETATM   30  C   UNL     1     -40.129  52.041 -54.020  1.00  0.00     0.048 C 
HETATM   31  C   UNL     1     -42.256  53.241 -54.604  1.00  0.00     0.009 A 
HETATM   32  C   UNL     1     -42.967  54.411 -54.885  1.00  0.00     0.030 A 
ENDBRANCH  23  26
ENDBRANCH  21  22
ENDBRANCH  20  21
ENDBRANCH   6  20
BRANCH   2  33
HETATM   33  C   UNL     1     -45.294  60.218 -49.928  1.00  0.00     0.255 C 
HETATM   34  N   UNL     1     -44.870  61.427 -49.419  1.00  0.00    -0.323 N 
HETATM   35  H   UNL     1     -44.457  62.077 -50.074  1.00  0.00     0.169 HD
HETATM   36  O   UNL     1     -45.911  59.332 -49.353  1.00  0.00    -0.268 OA
BRANCH  34  37
HETATM   37  C   UNL     1     -44.924  61.857 -48.077  1.00  0.00     0.035 A 
HETATM   38  C   UNL     1     -45.162  63.176 -47.688  1.00  0.00     0.029 A 
HETATM   39  C   UNL     1     -45.231  63.513 -46.332  1.00  0.00     0.002 A 
HETATM   40  C   UNL     1     -45.066  62.535 -45.355  1.00  0.00     0.000 A 
HETATM   41  C   UNL     1     -44.826  61.217 -45.731  1.00  0.00     0.002 A 
HETATM   42  C   UNL     1     -44.752  60.879 -47.086  1.00  0.00     0.029 A 
ENDBRANCH  34  37
ENDBRANCH   2  33
TORSDOF 9
ENDMDL
MODEL 4
REMARK VINA RESULT:      -8.1      2.936      8.225
REMARK  9 active torsions:
REMARK  status: ('A' for Active; 'I' for Inactive)
REMARK    1  A    between atoms: C_2  and  O_3 
REMARK    2  A    between atoms: O_3  and  C_4 
REMARK    3  A    between atoms: C_7  and  C_8 
REMARK    4  A    between atoms: C_9  and  C_10 
REMARK       I    between atoms: C_10  and  N_11 
REMARK    5  A    between atoms: N_11  and  C_12 
REMARK    6  A    between atoms: C_22  and  S_23 
REMARK    7  A    between atoms: S_23  and  C_24 
REMARK    8  A    between atoms: C_24  and  C_25 
REMARK       I    between atoms: C_25  and  N_26 
REMARK    9  A    between atoms: N_26  and  C_27 
ROOT
HETATM    1  C   UNL     1     -43.681  57.217 -53.455  1.00  0.00     0.106 C 
HETATM    2  C   UNL     1     -43.237  55.969 -54.201  1.00  0.00     0.046 C 
HETATM    3  C   UNL     1     -43.354  55.883 -55.545  1.00  0.00     0.019 C 
HETATM    4  C   UNL     1     -43.040  54.657 -56.362  1.00  0.00     0.069 C 
HETATM    5  N   UNL     1     -43.848  56.970 -56.250  1.00  0.00    -0.353 N 
HETATM    6  C   UNL     1     -44.483  58.065 -55.680  1.00  0.00     0.088 C 
HETATM    7  C   UNL     1     -44.492  58.188 -54.327  1.00  0.00     0.069 C 
HETATM    8  C   UNL     1     -45.179  59.237 -53.641  1.00  0.00     0.099 C 
HETATM    9  N   UNL     1     -45.744  60.068 -53.061  1.00  0.00    -0.192 NA
HETATM   10  H   UNL     1     -43.876  56.897 -57.261  1.00  0.00     0.166 HD
ENDROOT
BRANCH   1  11
HETATM   11  C   UNL     1     -42.488  57.990 -52.871  1.00  0.00    -0.044 A 
HETATM   12  C   UNL     1     -42.351  58.166 -51.481  1.00  0.00     0.011 A 
HETATM   13  C   UNL     1     -41.164  58.658 -50.937  1.00  0.00     0.037 A 
HETATM   14  C   UNL     1     -40.093  58.969 -51.774  1.00  0.00     0.068 A 
HETATM   15  C   UNL     1     -40.249  58.886 -53.156  1.00  0.00     0.037 A 
HETATM   16  C   UNL     1     -41.436  58.393 -53.705  1.00  0.00     0.011 A 
BRANCH  14  17
HETATM   17  O   UNL     1     -38.861  59.361 -51.325  1.00  0.00    -0.352 OA
BRANCH  17  18
HETATM   18  C   UNL     1     -38.889  60.016 -50.052  1.00  0.00     0.171 C 
HETATM   19  C   UNL     1     -37.500  59.939 -49.443  1.00  0.00     0.034 C 
ENDBRANCH  17  18
ENDBRANCH  14  17
ENDBRANCH   1  11
BRANCH   6  20
HETATM   20  S   UNL     1     -45.136  59.365 -56.658  1.00  0.00    -0.102 SA
BRANCH  20  21
HETATM   21  C   UNL     1     -44.633  58.946 -58.353  1.00  0.00     0.184 C 
BRANCH  21  22
HETATM   22  C   UNL     1     -43.210  59.420 -58.663  1.00  0.00     0.231 C 
HETATM   23  N   UNL     1     -43.137  60.725 -59.119  1.00  0.00    -0.327 N 
HETATM   24  H   UNL     1     -44.032  61.164 -59.308  1.00  0.00     0.169 HD
HETATM   25  O   UNL     1     -42.255  58.688 -58.416  1.00  0.00    -0.272 OA
BRANCH  23  26
HETATM   26  C   UNL     1     -42.000  61.489 -59.437  1.00  0.00     0.034 A 
HETATM   27  C   UNL     1     -41.085  61.960 -58.499  1.00  0.00     0.030 A 
HETATM   28  C   UNL     1     -39.979  62.716 -58.908  1.00  0.00     0.009 A 
HETATM   29  C   UNL     1     -39.782  63.022 -60.259  1.00  0.00    -0.062 A 
HETATM   30  C   UNL     1     -38.583  63.806 -60.704  1.00  0.00     0.048 C 
HETATM   31  C   UNL     1     -40.693  62.538 -61.200  1.00  0.00     0.009 A 
HETATM   32  C   UNL     1     -41.793  61.780 -60.792  1.00  0.00     0.030 A 
ENDBRANCH  23  26
ENDBRANCH  21  22
ENDBRANCH  20  21
ENDBRANCH   6  20
BRANCH   2  33
HETATM   33  C   UNL     1     -42.778  54.842 -53.345  1.00  0.00     0.255 C 
HETATM   34  N   UNL     1     -41.447  54.536 -53.532  1.00  0.00    -0.323 N 
HETATM   35  H   UNL     1     -40.924  55.141 -54.151  1.00  0.00     0.169 HD
HETATM   36  O   UNL     1     -43.570  54.324 -52.569  1.00  0.00    -0.268 OA
BRANCH  34  37
HETATM   37  C   UNL     1     -40.730  53.458 -52.974  1.00  0.00     0.035 A 
HETATM   38  C   UNL     1     -40.407  53.351 -51.621  1.00  0.00     0.029 A 
HETATM   39  C   UNL     1     -39.719  52.231 -51.143  1.00  0.00     0.002 A 
HETATM   40  C   UNL     1     -39.352  51.207 -52.013  1.00  0.00     0.000 A 
HETATM   41  C   UNL     1     -39.667  51.304 -53.364  1.00  0.00     0.002 A 
HETATM   42  C   UNL     1     -40.351  52.425 -53.844  1.00  0.00     0.029 A 
ENDBRANCH  34  37
ENDBRANCH   2  33
TORSDOF 9
ENDMDL
MODEL 5
REMARK VINA RESULT:      -7.9      2.178      4.309
REMARK  9 active torsions:
REMARK  status: ('A' for Active; 'I' for Inactive)
REMARK    1  A    between atoms: C_2  and  O_3 
REMARK    2  A    between atoms: O_3  and  C_4 
REMARK    3  A    between atoms: C_7  and  C_8 
REMARK    4  A    between atoms: C_9  and  C_10 
REMARK       I    between atoms: C_10  and  N_11 
REMARK    5  A    between atoms: N_11  and  C_12 
REMARK    6  A    between atoms: C_22  and  S_23 
REMARK    7  A    between atoms: S_23  and  C_24 
REMARK    8  A    between atoms: C_24  and  C_25 
REMARK       I    between atoms: C_25  and  N_26 
REMARK    9  A    between atoms: N_26  and  C_27 
ROOT
HETATM    1  C   UNL     1     -42.619  56.750 -53.610  1.00  0.00     0.106 C 
HETATM    2  C   UNL     1     -42.708  57.791 -54.714  1.00  0.00     0.046 C 
HETATM    3  C   UNL     1     -41.988  58.933 -54.654  1.00  0.00     0.019 C 
HETATM    4  C   UNL     1     -42.083  60.067 -55.642  1.00  0.00     0.069 C 
HETATM    5  N   UNL     1     -41.126  59.131 -53.586  1.00  0.00    -0.353 N 
HETATM    6  C   UNL     1     -41.116  58.375 -52.422  1.00  0.00     0.088 C 
HETATM    7  C   UNL     1     -41.880  57.254 -52.361  1.00  0.00     0.069 C 
HETATM    8  C   UNL     1     -41.996  56.449 -51.185  1.00  0.00     0.099 C 
HETATM    9  N   UNL     1     -42.120  55.790 -50.238  1.00  0.00    -0.192 NA
HETATM   10  H   UNL     1     -40.560  59.972 -53.592  1.00  0.00     0.166 HD
ENDROOT
BRANCH   1  11
HETATM   11  C   UNL     1     -41.920  55.467 -54.086  1.00  0.00    -0.044 A 
HETATM   12  C   UNL     1     -40.650  55.518 -54.693  1.00  0.00     0.011 A 
HETATM   13  C   UNL     1     -39.916  54.352 -54.912  1.00  0.00     0.037 A 
HETATM   14  C   UNL     1     -40.434  53.120 -54.515  1.00  0.00     0.068 A 
HETATM   15  C   UNL     1     -41.726  53.048 -53.998  1.00  0.00     0.037 A 
HETATM   16  C   UNL     1     -42.465  54.213 -53.776  1.00  0.00     0.011 A 
BRANCH  14  17
HETATM   17  O   UNL     1     -39.747  51.939 -54.598  1.00  0.00    -0.352 OA
BRANCH  17  18
HETATM   18  C   UNL     1     -39.702  51.207 -53.368  1.00  0.00     0.171 C 
HETATM   19  C   UNL     1     -39.632  49.726 -53.695  1.00  0.00     0.034 C 
ENDBRANCH  17  18
ENDBRANCH  14  17
ENDBRANCH   1  11
BRANCH   6  20
HETATM   20  S   UNL     1     -40.032  58.742 -51.093  1.00  0.00    -0.102 SA
BRANCH  20  21
HETATM   21  C   UNL     1     -41.112  59.466 -49.823  1.00  0.00     0.184 C 
BRANCH  21  22
HETATM   22  C   UNL     1     -42.163  60.401 -50.428  1.00  0.00     0.231 C 
HETATM   23  N   UNL     1     -43.404  59.816 -50.606  1.00  0.00    -0.327 N 
HETATM   24  H   UNL     1     -43.436  58.816 -50.433  1.00  0.00     0.169 HD
HETATM   25  O   UNL     1     -41.888  61.582 -50.626  1.00  0.00    -0.272 OA
BRANCH  23  26
HETATM   26  C   UNL     1     -44.596  60.394 -51.076  1.00  0.00     0.034 A 
HETATM   27  C   UNL     1     -45.445  61.179 -50.301  1.00  0.00     0.030 A 
HETATM   28  C   UNL     1     -46.615  61.715 -50.854  1.00  0.00     0.009 A 
HETATM   29  C   UNL     1     -46.958  61.461 -52.187  1.00  0.00    -0.062 A 
HETATM   30  C   UNL     1     -48.194  62.057 -52.791  1.00  0.00     0.048 C 
HETATM   31  C   UNL     1     -46.099  60.684 -52.968  1.00  0.00     0.009 A 
HETATM   32  C   UNL     1     -44.930  60.154 -52.416  1.00  0.00     0.030 A 
ENDBRANCH  23  26
ENDBRANCH  21  22
ENDBRANCH  20  21
ENDBRANCH   6  20
BRANCH   2  33
HETATM   33  C   UNL     1     -43.705  57.506 -55.782  1.00  0.00     0.255 C 
HETATM   34  N   UNL     1     -43.133  56.979 -56.920  1.00  0.00    -0.323 N 
HETATM   35  H   UNL     1     -42.144  56.775 -56.880  1.00  0.00     0.169 HD
HETATM   36  O   UNL     1     -44.888  57.728 -55.564  1.00  0.00    -0.268 OA
BRANCH  34  37
HETATM   37  C   UNL     1     -43.768  56.709 -58.150  1.00  0.00     0.035 A 
HETATM   38  C   UNL     1     -44.478  57.658 -58.888  1.00  0.00     0.029 A 
HETATM   39  C   UNL     1     -45.053  57.316 -60.116  1.00  0.00     0.002 A 
HETATM   40  C   UNL     1     -44.919  56.024 -60.619  1.00  0.00     0.000 A 
HETATM   41  C   UNL     1     -44.215  55.070 -59.892  1.00  0.00     0.002 A 
HETATM   42  C   UNL     1     -43.645  55.410 -58.662  1.00  0.00     0.029 A 
ENDBRANCH  34  37
ENDBRANCH   2  33
TORSDOF 9
ENDMDL
MODEL 6
REMARK VINA RESULT:      -7.8      2.234      7.189
REMARK  9 active torsions:
REMARK  status: ('A' for Active; 'I' for Inactive)
REMARK    1  A    between atoms: C_2  and  O_3 
REMARK    2  A    between atoms: O_3  and  C_4 
REMARK    3  A    between atoms: C_7  and  C_8 
REMARK    4  A    between atoms: C_9  and  C_10 
REMARK       I    between atoms: C_10  and  N_11 
REMARK    5  A    between atoms: N_11  and  C_12 
REMARK    6  A    between atoms: C_22  and  S_23 
REMARK    7  A    between atoms: S_23  and  C_24 
REMARK    8  A    between atoms: C_24  and  C_25 
REMARK       I    between atoms: C_25  and  N_26 
REMARK    9  A    between atoms: N_26  and  C_27 
ROOT
HETATM    1  C   UNL     1     -41.487  56.331 -52.516  1.00  0.00     0.106 C 
HETATM    2  C   UNL     1     -42.436  55.479 -51.690  1.00  0.00     0.046 C 
HETATM    3  C   UNL     1     -43.335  56.047 -50.856  1.00  0.00     0.019 C 
HETATM    4  C   UNL     1     -44.246  55.290 -49.923  1.00  0.00     0.069 C 
HETATM    5  N   UNL     1     -43.415  57.429 -50.791  1.00  0.00    -0.353 N 
HETATM    6  C   UNL     1     -42.474  58.305 -51.316  1.00  0.00     0.088 C 
HETATM    7  C   UNL     1     -41.480  57.809 -52.097  1.00  0.00     0.069 C 
HETATM    8  C   UNL     1     -40.424  58.615 -52.625  1.00  0.00     0.099 C 
HETATM    9  N   UNL     1     -39.547  59.246 -53.050  1.00  0.00    -0.192 NA
HETATM   10  H   UNL     1     -44.132  57.828 -50.196  1.00  0.00     0.166 HD
ENDROOT
BRANCH   1  11
HETATM   11  C   UNL     1     -41.817  56.268 -54.016  1.00  0.00    -0.044 A 
HETATM   12  C   UNL     1     -41.029  55.504 -54.898  1.00  0.00     0.011 A 
HETATM   13  C   UNL     1     -41.454  55.256 -56.204  1.00  0.00     0.037 A 
HETATM   14  C   UNL     1     -42.680  55.757 -56.642  1.00  0.00     0.068 A 
HETATM   15  C   UNL     1     -43.424  56.589 -55.808  1.00  0.00     0.037 A 
HETATM   16  C   UNL     1     -43.002  56.840 -54.500  1.00  0.00     0.011 A 
BRANCH  14  17
HETATM   17  O   UNL     1     -43.224  55.483 -57.867  1.00  0.00    -0.352 OA
BRANCH  17  18
HETATM   18  C   UNL     1     -43.504  56.649 -58.652  1.00  0.00     0.171 C 
HETATM   19  C   UNL     1     -42.619  56.620 -59.885  1.00  0.00     0.034 C 
ENDBRANCH  17  18
ENDBRANCH  14  17
ENDBRANCH   1  11
BRANCH   6  20
HETATM   20  S   UNL     1     -42.624  60.042 -51.127  1.00  0.00    -0.102 SA
BRANCH  20  21
HETATM   21  C   UNL     1     -44.264  60.426 -51.807  1.00  0.00     0.184 C 
BRANCH  21  22
HETATM   22  C   UNL     1     -44.353  60.112 -53.304  1.00  0.00     0.231 C 
HETATM   23  N   UNL     1     -43.349  60.690 -54.062  1.00  0.00    -0.327 N 
HETATM   24  H   UNL     1     -42.755  61.343 -53.561  1.00  0.00     0.169 HD
HETATM   25  O   UNL     1     -45.209  59.332 -53.715  1.00  0.00    -0.272 OA
BRANCH  23  26
HETATM   26  C   UNL     1     -43.096  60.564 -55.439  1.00  0.00     0.034 A 
HETATM   27  C   UNL     1     -42.021  59.863 -55.978  1.00  0.00     0.030 A 
HETATM   28  C   UNL     1     -41.847  59.791 -57.366  1.00  0.00     0.009 A 
HETATM   29  C   UNL     1     -42.740  60.431 -58.233  1.00  0.00    -0.062 A 
HETATM   30  C   UNL     1     -42.574  60.332 -59.720  1.00  0.00     0.048 C 
HETATM   31  C   UNL     1     -43.826  61.123 -57.692  1.00  0.00     0.009 A 
HETATM   32  C   UNL     1     -44.001  61.190 -56.307  1.00  0.00     0.030 A 
ENDBRANCH  23  26
ENDBRANCH  21  22
ENDBRANCH  20  21
ENDBRANCH   6  20
BRANCH   2  33
HETATM   33  C   UNL     1     -42.227  54.009 -51.791  1.00  0.00     0.255 C 
HETATM   34  N   UNL     1     -40.903  53.668 -51.967  1.00  0.00    -0.323 N 
HETATM   35  H   UNL     1     -40.230  54.422 -51.931  1.00  0.00     0.169 HD
HETATM   36  O   UNL     1     -43.192  53.263 -51.690  1.00  0.00    -0.268 OA
BRANCH  34  37
HETATM   37  C   UNL     1     -40.376  52.384 -52.216  1.00  0.00     0.035 A 
HETATM   38  C   UNL     1     -39.963  51.501 -51.217  1.00  0.00     0.029 A 
HETATM   39  C   UNL     1     -39.480  50.232 -51.548  1.00  0.00     0.002 A 
HETATM   40  C   UNL     1     -39.408  49.832 -52.881  1.00  0.00     0.000 A 
HETATM   41  C   UNL     1     -39.814  50.705 -53.885  1.00  0.00     0.002 A 
HETATM   42  C   UNL     1     -40.293  51.976 -53.555  1.00  0.00     0.029 A 
ENDBRANCH  34  37
ENDBRANCH   2  33
TORSDOF 9
ENDMDL
MODEL 7
REMARK VINA RESULT:      -7.7      4.130      8.249
REMARK  9 active torsions:
REMARK  status: ('A' for Active; 'I' for Inactive)
REMARK    1  A    between atoms: C_2  and  O_3 
REMARK    2  A    between atoms: O_3  and  C_4 
REMARK    3  A    between atoms: C_7  and  C_8 
REMARK    4  A    between atoms: C_9  and  C_10 
REMARK       I    between atoms: C_10  and  N_11 
REMARK    5  A    between atoms: N_11  and  C_12 
REMARK    6  A    between atoms: C_22  and  S_23 
REMARK    7  A    between atoms: S_23  and  C_24 
REMARK    8  A    between atoms: C_24  and  C_25 
REMARK       I    between atoms: C_25  and  N_26 
REMARK    9  A    between atoms: N_26  and  C_27 
ROOT
HETATM    1  C   UNL     1     -42.884  57.746 -55.210  1.00  0.00     0.106 C 
HETATM    2  C   UNL     1     -43.441  57.031 -53.990  1.00  0.00     0.046 C 
HETATM    3  C   UNL     1     -44.133  57.704 -53.044  1.00  0.00     0.019 C 
HETATM    4  C   UNL     1     -44.636  57.109 -51.754  1.00  0.00     0.069 C 
HETATM    5  N   UNL     1     -44.371  59.059 -53.218  1.00  0.00    -0.353 N 
HETATM    6  C   UNL     1     -43.740  59.861 -54.159  1.00  0.00     0.088 C 
HETATM    7  C   UNL     1     -42.951  59.277 -55.097  1.00  0.00     0.069 C 
HETATM    8  C   UNL     1     -42.203  60.019 -56.063  1.00  0.00     0.099 C 
HETATM    9  N   UNL     1     -41.572  60.600 -56.845  1.00  0.00    -0.192 NA
HETATM   10  H   UNL     1     -44.936  59.528 -52.519  1.00  0.00     0.166 HD
ENDROOT
BRANCH   1  11
HETATM   11  C   UNL     1     -43.614  57.335 -56.499  1.00  0.00    -0.044 A 
HETATM   12  C   UNL     1     -44.829  57.944 -56.867  1.00  0.00     0.011 A 
HETATM   13  C   UNL     1     -45.371  57.746 -58.138  1.00  0.00     0.037 A 
HETATM   14  C   UNL     1     -44.699  56.947 -59.062  1.00  0.00     0.068 A 
HETATM   15  C   UNL     1     -43.545  56.267 -58.678  1.00  0.00     0.037 A 
HETATM   16  C   UNL     1     -42.999  56.462 -57.407  1.00  0.00     0.011 A 
BRANCH  14  17
HETATM   17  O   UNL     1     -45.101  56.776 -60.359  1.00  0.00    -0.352 OA
BRANCH  17  18
HETATM   18  C   UNL     1     -46.131  55.794 -60.523  1.00  0.00     0.171 C 
HETATM   19  C   UNL     1     -47.366  56.483 -61.075  1.00  0.00     0.034 C 
ENDBRANCH  17  18
ENDBRANCH  14  17
ENDBRANCH   1  11
BRANCH   6  20
HETATM   20  S   UNL     1     -44.054  61.584 -54.262  1.00  0.00    -0.102 SA
BRANCH  20  21
HETATM   21  C   UNL     1     -45.760  61.690 -54.879  1.00  0.00     0.184 C 
BRANCH  21  22
HETATM   22  C   UNL     1     -46.775  61.825 -53.740  1.00  0.00     0.231 C 
HETATM   23  N   UNL     1     -48.001  62.333 -54.133  1.00  0.00    -0.327 N 
HETATM   24  H   UNL     1     -48.040  62.666 -55.091  1.00  0.00     0.169 HD
HETATM   25  O   UNL     1     -46.492  61.412 -52.617  1.00  0.00    -0.272 OA
BRANCH  23  26
HETATM   26  C   UNL     1     -49.164  62.531 -53.368  1.00  0.00     0.034 A 
HETATM   27  C   UNL     1     -49.216  63.297 -52.206  1.00  0.00     0.030 A 
HETATM   28  C   UNL     1     -50.421  63.438 -51.506  1.00  0.00     0.009 A 
HETATM   29  C   UNL     1     -51.586  62.803 -51.952  1.00  0.00    -0.062 A 
HETATM   30  C   UNL     1     -52.884  62.976 -51.221  1.00  0.00     0.048 C 
HETATM   31  C   UNL     1     -51.535  62.045 -53.124  1.00  0.00     0.009 A 
HETATM   32  C   UNL     1     -50.333  61.909 -53.824  1.00  0.00     0.030 A 
ENDBRANCH  23  26
ENDBRANCH  21  22
ENDBRANCH  20  21
ENDBRANCH   6  20
BRANCH   2  33
HETATM   33  C   UNL     1     -43.080  55.592 -53.872  1.00  0.00     0.255 C 
HETATM   34  N   UNL     1     -41.807  55.399 -53.380  1.00  0.00    -0.323 N 
HETATM   35  H   UNL     1     -41.302  56.225 -53.088  1.00  0.00     0.169 HD
HETATM   36  O   UNL     1     -43.907  54.744 -54.180  1.00  0.00    -0.268 OA
BRANCH  34  37
HETATM   37  C   UNL     1     -41.113  54.178 -53.257  1.00  0.00     0.035 A 
HETATM   38  C   UNL     1     -40.808  53.341 -54.331  1.00  0.00     0.029 A 
HETATM   39  C   UNL     1     -40.088  52.159 -54.127  1.00  0.00     0.002 A 
HETATM   40  C   UNL     1     -39.663  51.807 -52.848  1.00  0.00     0.000 A 
HETATM   41  C   UNL     1     -39.963  52.633 -51.769  1.00  0.00     0.002 A 
HETATM   42  C   UNL     1     -40.687  53.812 -51.972  1.00  0.00     0.029 A 
ENDBRANCH  34  37
ENDBRANCH   2  33
TORSDOF 9
ENDMDL
MODEL 8
REMARK VINA RESULT:      -7.7      3.500      7.380
REMARK  9 active torsions:
REMARK  status: ('A' for Active; 'I' for Inactive)
REMARK    1  A    between atoms: C_2  and  O_3 
REMARK    2  A    between atoms: O_3  and  C_4 
REMARK    3  A    between atoms: C_7  and  C_8 
REMARK    4  A    between atoms: C_9  and  C_10 
REMARK       I    between atoms: C_10  and  N_11 
REMARK    5  A    between atoms: N_11  and  C_12 
REMARK    6  A    between atoms: C_22  and  S_23 
REMARK    7  A    between atoms: S_23  and  C_24 
REMARK    8  A    between atoms: C_24  and  C_25 
REMARK       I    between atoms: C_25  and  N_26 
REMARK    9  A    between atoms: N_26  and  C_27 
ROOT
HETATM    1  C   UNL     1     -42.186  56.628 -53.450  1.00  0.00     0.106 C 
HETATM    2  C   UNL     1     -42.712  55.477 -52.608  1.00  0.00     0.046 C 
HETATM    3  C   UNL     1     -43.369  55.707 -51.449  1.00  0.00     0.019 C 
HETATM    4  C   UNL     1     -43.837  54.637 -50.495  1.00  0.00     0.069 C 
HETATM    5  N   UNL     1     -43.599  57.015 -51.052  1.00  0.00    -0.353 N 
HETATM    6  C   UNL     1     -42.990  58.132 -51.605  1.00  0.00     0.088 C 
HETATM    7  C   UNL     1     -42.236  57.982 -52.725  1.00  0.00     0.069 C 
HETATM    8  C   UNL     1     -41.511  59.055 -53.330  1.00  0.00     0.099 C 
HETATM    9  N   UNL     1     -40.899  59.906 -53.828  1.00  0.00    -0.192 NA
HETATM   10  H   UNL     1     -44.139  57.158 -50.205  1.00  0.00     0.166 HD
ENDROOT
BRANCH   1  11
HETATM   11  C   UNL     1     -42.959  56.772 -54.771  1.00  0.00    -0.044 A 
HETATM   12  C   UNL     1     -44.229  57.378 -54.804  1.00  0.00     0.011 A 
HETATM   13  C   UNL     1     -44.827  57.719 -56.018  1.00  0.00     0.037 A 
HETATM   14  C   UNL     1     -44.157  57.471 -57.215  1.00  0.00     0.068 A 
HETATM   15  C   UNL     1     -42.942  56.789 -57.200  1.00  0.00     0.037 A 
HETATM   16  C   UNL     1     -42.339  56.446 -55.986  1.00  0.00     0.011 A 
BRANCH  14  17
HETATM   17  O   UNL     1     -44.619  57.859 -58.443  1.00  0.00    -0.352 OA
BRANCH  17  18
HETATM   18  C   UNL     1     -44.077  57.104 -59.533  1.00  0.00     0.171 C 
HETATM   19  C   UNL     1     -45.199  56.300 -60.165  1.00  0.00     0.034 C 
ENDBRANCH  17  18
ENDBRANCH  14  17
ENDBRANCH   1  11
BRANCH   6  20
HETATM   20  S   UNL     1     -43.293  59.747 -50.992  1.00  0.00    -0.102 SA
BRANCH  20  21
HETATM   21  C   UNL     1     -45.105  59.875 -50.945  1.00  0.00     0.184 C 
BRANCH  21  22
HETATM   22  C   UNL     1     -45.584  60.839 -49.855  1.00  0.00     0.231 C 
HETATM   23  N   UNL     1     -44.743  60.914 -48.758  1.00  0.00    -0.327 N 
HETATM   24  H   UNL     1     -43.985  60.239 -48.752  1.00  0.00     0.169 HD
HETATM   25  O   UNL     1     -46.586  61.525 -50.044  1.00  0.00    -0.272 OA
BRANCH  23  26
HETATM   26  C   UNL     1     -44.846  61.731 -47.618  1.00  0.00     0.034 A 
HETATM   27  C   UNL     1     -44.921  63.120 -47.655  1.00  0.00     0.030 A 
HETATM   28  C   UNL     1     -45.021  63.855 -46.466  1.00  0.00     0.009 A 
HETATM   29  C   UNL     1     -45.034  63.208 -45.225  1.00  0.00    -0.062 A 
HETATM   30  C   UNL     1     -45.170  63.989 -43.952  1.00  0.00     0.048 C 
HETATM   31  C   UNL     1     -44.971  61.813 -45.190  1.00  0.00     0.009 A 
HETATM   32  C   UNL     1     -44.876  61.082 -46.377  1.00  0.00     0.030 A 
ENDBRANCH  23  26
ENDBRANCH  21  22
ENDBRANCH  20  21
ENDBRANCH   6  20
BRANCH   2  33
HETATM   33  C   UNL     1     -42.360  54.116 -53.095  1.00  0.00     0.255 C 
HETATM   34  N   UNL     1     -41.256  53.590 -52.458  1.00  0.00    -0.323 N 
HETATM   35  H   UNL     1     -40.866  54.133 -51.700  1.00  0.00     0.169 HD
HETATM   36  O   UNL     1     -43.056  53.594 -53.955  1.00  0.00    -0.268 OA
BRANCH  34  37
HETATM   37  C   UNL     1     -40.590  52.383 -52.757  1.00  0.00     0.035 A 
HETATM   38  C   UNL     1     -39.975  51.572 -51.802  1.00  0.00     0.029 A 
HETATM   39  C   UNL     1     -39.361  50.374 -52.180  1.00  0.00     0.002 A 
HETATM   40  C   UNL     1     -39.360  49.974 -53.514  1.00  0.00     0.000 A 
HETATM   41  C   UNL     1     -39.969  50.775 -54.474  1.00  0.00     0.002 A 
HETATM   42  C   UNL     1     -40.579  51.976 -54.099  1.00  0.00     0.029 A 
ENDBRANCH  34  37
ENDBRANCH   2  33
TORSDOF 9
ENDMDL
MODEL 9
REMARK VINA RESULT:      -7.5      3.136      7.089
REMARK  9 active torsions:
REMARK  status: ('A' for Active; 'I' for Inactive)
REMARK    1  A    between atoms: C_2  and  O_3 
REMARK    2  A    between atoms: O_3  and  C_4 
REMARK    3  A    between atoms: C_7  and  C_8 
REMARK    4  A    between atoms: C_9  and  C_10 
REMARK       I    between atoms: C_10  and  N_11 
REMARK    5  A    between atoms: N_11  and  C_12 
REMARK    6  A    between atoms: C_22  and  S_23 
REMARK    7  A    between atoms: S_23  and  C_24 
REMARK    8  A    between atoms: C_24  and  C_25 
REMARK       I    between atoms: C_25  and  N_26 
REMARK    9  A    between atoms: N_26  and  C_27 
ROOT
HETATM    1  C   UNL     1     -42.723  57.718 -55.227  1.00  0.00     0.106 C 
HETATM    2  C   UNL     1     -43.273  57.046 -53.980  1.00  0.00     0.046 C 
HETATM    3  C   UNL     1     -43.930  57.759 -53.038  1.00  0.00     0.019 C 
HETATM    4  C   UNL     1     -44.420  57.207 -51.723  1.00  0.00     0.069 C 
HETATM    5  N   UNL     1     -44.139  59.114 -53.241  1.00  0.00    -0.353 N 
HETATM    6  C   UNL     1     -43.508  59.878 -54.212  1.00  0.00     0.088 C 
HETATM    7  C   UNL     1     -42.753  59.253 -55.152  1.00  0.00     0.069 C 
HETATM    8  C   UNL     1     -42.006  59.953 -56.150  1.00  0.00     0.099 C 
HETATM    9  N   UNL     1     -41.377  60.500 -56.957  1.00  0.00    -0.192 NA
HETATM   10  H   UNL     1     -44.679  59.613 -52.543  1.00  0.00     0.166 HD
ENDROOT
BRANCH   1  11
HETATM   11  C   UNL     1     -43.488  57.294 -56.491  1.00  0.00    -0.044 A 
HETATM   12  C   UNL     1     -44.700  57.916 -56.846  1.00  0.00     0.011 A 
HETATM   13  C   UNL     1     -45.273  57.701 -58.101  1.00  0.00     0.037 A 
HETATM   14  C   UNL     1     -44.635  56.872 -59.022  1.00  0.00     0.068 A 
HETATM   15  C   UNL     1     -43.484  56.180 -58.649  1.00  0.00     0.037 A 
HETATM   16  C   UNL     1     -42.907  56.392 -57.394  1.00  0.00     0.011 A 
BRANCH  14  17
HETATM   17  O   UNL     1     -45.068  56.681 -60.306  1.00  0.00    -0.352 OA
BRANCH  17  18
HETATM   18  C   UNL     1     -46.165  55.768 -60.420  1.00  0.00     0.171 C 
HETATM   19  C   UNL     1     -47.346  56.509 -61.019  1.00  0.00     0.034 C 
ENDBRANCH  17  18
ENDBRANCH  14  17
ENDBRANCH   1  11
BRANCH   6  20
HETATM   20  S   UNL     1     -43.785  61.605 -54.352  1.00  0.00    -0.102 SA
BRANCH  20  21
HETATM   21  C   UNL     1     -45.140  61.936 -53.189  1.00  0.00     0.184 C 
BRANCH  21  22
HETATM   22  C   UNL     1     -44.629  62.173 -51.764  1.00  0.00     0.231 C 
HETATM   23  N   UNL     1     -45.589  61.998 -50.783  1.00  0.00    -0.327 N 
HETATM   24  H   UNL     1     -46.533  61.856 -51.128  1.00  0.00     0.169 HD
HETATM   25  O   UNL     1     -43.436  62.404 -51.574  1.00  0.00    -0.272 OA
BRANCH  23  26
HETATM   26  C   UNL     1     -45.451  62.077 -49.386  1.00  0.00     0.034 A 
HETATM   27  C   UNL     1     -45.332  60.972 -48.547  1.00  0.00     0.030 A 
HETATM   28  C   UNL     1     -45.199  61.147 -47.163  1.00  0.00     0.009 A 
HETATM   29  C   UNL     1     -45.198  62.428 -46.600  1.00  0.00    -0.062 A 
HETATM   30  C   UNL     1     -45.027  62.619 -45.123  1.00  0.00     0.048 C 
HETATM   31  C   UNL     1     -45.305  63.535 -47.444  1.00  0.00     0.009 A 
HETATM   32  C   UNL     1     -45.432  63.361 -48.825  1.00  0.00     0.030 A 
ENDBRANCH  23  26
ENDBRANCH  21  22
ENDBRANCH  20  21
ENDBRANCH   6  20
BRANCH   2  33
HETATM   33  C   UNL     1     -42.943  55.603 -53.833  1.00  0.00     0.255 C 
HETATM   34  N   UNL     1     -41.662  55.392 -53.370  1.00  0.00    -0.323 N 
HETATM   35  H   UNL     1     -41.129  56.212 -53.113  1.00  0.00     0.169 HD
HETATM   36  O   UNL     1     -43.797  54.768 -54.097  1.00  0.00    -0.268 OA
BRANCH  34  37
HETATM   37  C   UNL     1     -40.994  54.157 -53.233  1.00  0.00     0.035 A 
HETATM   38  C   UNL     1     -40.594  53.616 -52.009  1.00  0.00     0.029 A 
HETATM   39  C   UNL     1     -39.964  52.369 -51.958  1.00  0.00     0.002 A 
HETATM   40  C   UNL     1     -39.730  51.651 -53.128  1.00  0.00     0.000 A 
HETATM   41  C   UNL     1     -40.122  52.181 -54.353  1.00  0.00     0.002 A 
HETATM   42  C   UNL     1     -40.749  53.430 -54.406  1.00  0.00     0.029 A 
ENDBRANCH  34  37
ENDBRANCH   2  33
TORSDOF 9
ENDMDL
MODEL 10
REMARK VINA RESULT:      -7.3      2.049      6.895
REMARK  9 active torsions:
REMARK  status: ('A' for Active; 'I' for Inactive)
REMARK    1  A    between atoms: C_2  and  O_3 
REMARK    2  A    between atoms: O_3  and  C_4 
REMARK    3  A    between atoms: C_7  and  C_8 
REMARK    4  A    between atoms: C_9  and  C_10 
REMARK       I    between atoms: C_10  and  N_11 
REMARK    5  A    between atoms: N_11  and  C_12 
REMARK    6  A    between atoms: C_22  and  S_23 
REMARK    7  A    between atoms: S_23  and  C_24 
REMARK    8  A    between atoms: C_24  and  C_25 
REMARK       I    between atoms: C_25  and  N_26 
REMARK    9  A    between atoms: N_26  and  C_27 
ROOT
HETATM    1  C   UNL     1     -41.225  56.465 -52.779  1.00  0.00     0.106 C 
HETATM    2  C   UNL     1     -42.113  55.496 -52.017  1.00  0.00     0.046 C 
HETATM    3  C   UNL     1     -42.830  55.903 -50.946  1.00  0.00     0.019 C 
HETATM    4  C   UNL     1     -43.656  55.001 -50.065  1.00  0.00     0.069 C 
HETATM    5  N   UNL     1     -42.782  57.237 -50.570  1.00  0.00    -0.353 N 
HETATM    6  C   UNL     1     -41.857  58.161 -51.036  1.00  0.00     0.088 C 
HETATM    7  C   UNL     1     -41.032  57.807 -52.055  1.00  0.00     0.069 C 
HETATM    8  C   UNL     1     -39.999  58.658 -52.559  1.00  0.00     0.099 C 
HETATM    9  N   UNL     1     -39.143  59.324 -52.972  1.00  0.00    -0.192 NA
HETATM   10  H   UNL     1     -43.368  57.525 -49.795  1.00  0.00     0.166 HD
ENDROOT
BRANCH   1  11
HETATM   11  C   UNL     1     -41.774  56.761 -54.184  1.00  0.00    -0.044 A 
HETATM   12  C   UNL     1     -41.787  58.074 -54.693  1.00  0.00     0.011 A 
HETATM   13  C   UNL     1     -42.063  58.316 -56.039  1.00  0.00     0.037 A 
HETATM   14  C   UNL     1     -42.315  57.247 -56.898  1.00  0.00     0.068 A 
HETATM   15  C   UNL     1     -42.394  55.953 -56.388  1.00  0.00     0.037 A 
HETATM   16  C   UNL     1     -42.119  55.707 -55.040  1.00  0.00     0.011 A 
BRANCH  14  17
HETATM   17  O   UNL     1     -42.496  57.379 -58.249  1.00  0.00    -0.352 OA
BRANCH  17  18
HETATM   18  C   UNL     1     -42.708  56.136 -58.930  1.00  0.00     0.171 C 
HETATM   19  C   UNL     1     -43.841  56.321 -59.923  1.00  0.00     0.034 C 
ENDBRANCH  17  18
ENDBRANCH  14  17
ENDBRANCH   1  11
BRANCH   6  20
HETATM   20  S   UNL     1     -41.829  59.815 -50.453  1.00  0.00    -0.102 SA
BRANCH  20  21
HETATM   21  C   UNL     1     -43.401  60.518 -51.032  1.00  0.00     0.184 C 
BRANCH  21  22
HETATM   22  C   UNL     1     -43.545  60.427 -52.554  1.00  0.00     0.231 C 
HETATM   23  N   UNL     1     -44.615  59.657 -52.975  1.00  0.00    -0.327 N 
HETATM   24  H   UNL     1     -45.096  59.151 -52.237  1.00  0.00     0.169 HD
HETATM   25  O   UNL     1     -42.798  61.081 -53.279  1.00  0.00    -0.272 OA
BRANCH  23  26
HETATM   26  C   UNL     1     -45.069  59.411 -54.283  1.00  0.00     0.034 A 
HETATM   27  C   UNL     1     -45.280  60.402 -55.237  1.00  0.00     0.030 A 
HETATM   28  C   UNL     1     -45.736  60.064 -56.518  1.00  0.00     0.009 A 
HETATM   29  C   UNL     1     -45.998  58.732 -56.856  1.00  0.00    -0.062 A 
HETATM   30  C   UNL     1     -46.457  58.363 -58.235  1.00  0.00     0.048 C 
HETATM   31  C   UNL     1     -45.774  57.737 -55.901  1.00  0.00     0.009 A 
HETATM   32  C   UNL     1     -45.315  58.075 -54.625  1.00  0.00     0.030 A 
ENDBRANCH  23  26
ENDBRANCH  21  22
ENDBRANCH  20  21
ENDBRANCH   6  20
BRANCH   2  33
HETATM   33  C   UNL     1     -42.046  54.079 -52.466  1.00  0.00     0.255 C 
HETATM   34  N   UNL     1     -40.800  53.518 -52.283  1.00  0.00    -0.323 N 
HETATM   35  H   UNL     1     -40.112  54.084 -51.807  1.00  0.00     0.169 HD
HETATM   36  O   UNL     1     -43.054  53.549 -52.914  1.00  0.00    -0.268 OA
BRANCH  34  37
HETATM   37  C   UNL     1     -40.364  52.245 -52.705  1.00  0.00     0.035 A 
HETATM   38  C   UNL     1     -39.850  51.271 -51.848  1.00  0.00     0.029 A 
HETATM   39  C   UNL     1     -39.469  50.020 -52.345  1.00  0.00     0.002 A 
HETATM   40  C   UNL     1     -39.601  49.732 -53.701  1.00  0.00     0.000 A 
HETATM   41  C   UNL     1     -40.110  50.696 -54.565  1.00  0.00     0.002 A 
HETATM   42  C   UNL     1     -40.488  51.948 -54.070  1.00  0.00     0.029 A 
ENDBRANCH  34  37
ENDBRANCH   2  33
TORSDOF 9
ENDMDL
