MODEL 1
REMARK VINA RESULT:      -8.8      0.000      0.000
REMARK  5 active torsions:
REMARK  status: ('A' for Active; 'I' for Inactive)
REMARK    1  A    between atoms: C_7  and  C_8 
REMARK    2  A    between atoms: N_9  and  N_10 
REMARK       I    between atoms: N_10  and  C_11 
REMARK    3  A    between atoms: C_11  and  C_12 
REMARK    4  A    between atoms: C_12  and  N_13 
REMARK       I    between atoms: N_13  and  C_14 
REMARK    5  A    between atoms: C_14  and  C_15 
ROOT
HETATM    1  N   UNL     1     -42.522  56.042 -54.506  1.00  0.00    -0.246 N 
HETATM    2  C   UNL     1     -43.547  56.915 -54.173  1.00  0.00     0.255 C 
HETATM    3  O   UNL     1     -44.243  56.851 -53.161  1.00  0.00    -0.270 OA
HETATM    4  H   UNL     1     -41.997  56.199 -55.371  1.00  0.00     0.192 HD
ENDROOT
BRANCH   1   5
HETATM    5  N   UNL     1     -42.227  54.987 -53.695  1.00  0.00    -0.184 NA
HETATM    6  C   UNL     1     -40.978  54.848 -53.389  1.00  0.00     0.153 C 
BRANCH   6   7
HETATM    7  C   UNL     1     -40.552  53.744 -52.547  1.00  0.00     0.018 A 
HETATM    8  C   UNL     1     -40.357  53.769 -51.171  1.00  0.00     0.018 A 
HETATM    9  C   UNL     1     -40.507  54.870 -50.180  1.00  0.00     0.069 C 
HETATM   10  N   UNL     1     -39.966  52.513 -50.779  1.00  0.00    -0.358 N 
HETATM   11  H   UNL     1     -39.759  52.242 -49.829  1.00  0.00     0.166 HD
HETATM   12  C   UNL     1     -39.903  51.666 -51.859  1.00  0.00     0.043 A 
HETATM   13  C   UNL     1     -40.262  52.408 -52.983  1.00  0.00     0.004 A 
HETATM   14  C   UNL     1     -39.560  50.309 -51.917  1.00  0.00     0.030 A 
HETATM   15  C   UNL     1     -40.279  51.752 -54.235  1.00  0.00     0.014 A 
HETATM   16  C   UNL     1     -39.940  50.396 -54.311  1.00  0.00     0.001 A 
HETATM   17  C   UNL     1     -39.587  49.687 -53.167  1.00  0.00     0.002 A 
ENDBRANCH   6   7
ENDBRANCH   1   5
BRANCH   2  18
HETATM   18  C   UNL     1     -43.823  57.950 -55.265  1.00  0.00     0.227 C 
BRANCH  18  19
HETATM   19  N   UNL     1     -44.472  57.406 -56.447  1.00  0.00    -0.348 N 
HETATM   20  C   UNL     1     -44.004  57.630 -57.719  1.00  0.00     0.255 C 
HETATM   21  O   UNL     1     -43.101  58.434 -57.939  1.00  0.00    -0.268 OA
HETATM   22  H   UNL     1     -45.251  56.771 -56.301  1.00  0.00     0.163 HD
BRANCH  20  23
HETATM   23  C   UNL     1     -44.648  56.884 -58.837  1.00  0.00     0.070 A 
HETATM   24  C   UNL     1     -43.977  55.918 -59.591  1.00  0.00     0.132 A 
HETATM   25  F   UNL     1     -42.699  55.600 -59.332  1.00  0.00    -0.205 F 
HETATM   26  C   UNL     1     -44.612  55.255 -60.641  1.00  0.00     0.043 A 
HETATM   27  C   UNL     1     -45.937  55.555 -60.950  1.00  0.00     0.003 A 
HETATM   28  C   UNL     1     -46.622  56.517 -60.209  1.00  0.00     0.001 A 
HETATM   29  C   UNL     1     -45.982  57.180 -59.158  1.00  0.00     0.020 A 
ENDBRANCH  20  23
ENDBRANCH  18  19
ENDBRANCH   2  18
TORSDOF 5
ENDMDL
MODEL 2
REMARK VINA RESULT:      -8.5      1.891      2.130
REMARK  5 active torsions:
REMARK  status: ('A' for Active; 'I' for Inactive)
REMARK    1  A    between atoms: C_7  and  C_8 
REMARK    2  A    between atoms: N_9  and  N_10 
REMARK       I    between atoms: N_10  and  C_11 
REMARK    3  A    between atoms: C_11  and  C_12 
REMARK    4  A    between atoms: C_12  and  N_13 
REMARK       I    between atoms: N_13  and  C_14 
REMARK    5  A    between atoms: C_14  and  C_15 
ROOT
HETATM    1  N   UNL     1     -41.557  57.468 -54.106  1.00  0.00    -0.246 N 
HETATM    2  C   UNL     1     -41.188  58.800 -53.987  1.00  0.00     0.255 C 
HETATM    3  O   UNL     1     -40.250  59.226 -53.316  1.00  0.00    -0.270 OA
HETATM    4  H   UNL     1     -42.351  57.224 -54.707  1.00  0.00     0.192 HD
ENDROOT
BRANCH   1   5
HETATM    5  N   UNL     1     -40.878  56.502 -53.424  1.00  0.00    -0.184 NA
HETATM    6  C   UNL     1     -41.560  55.444 -53.126  1.00  0.00     0.153 C 
BRANCH   6   7
HETATM    7  C   UNL     1     -40.938  54.363 -52.382  1.00  0.00     0.018 A 
HETATM    8  C   UNL     1     -40.608  54.359 -51.032  1.00  0.00     0.018 A 
HETATM    9  C   UNL     1     -40.772  55.400 -49.980  1.00  0.00     0.069 C 
HETATM   10  N   UNL     1     -40.050  53.140 -50.739  1.00  0.00    -0.358 N 
HETATM   11  H   UNL     1     -39.720  52.859 -49.827  1.00  0.00     0.166 HD
HETATM   12  C   UNL     1     -40.006  52.345 -51.859  1.00  0.00     0.043 A 
HETATM   13  C   UNL     1     -40.554  53.084 -52.907  1.00  0.00     0.004 A 
HETATM   14  C   UNL     1     -39.530  51.037 -52.013  1.00  0.00     0.030 A 
HETATM   15  C   UNL     1     -40.628  52.476 -54.180  1.00  0.00     0.014 A 
HETATM   16  C   UNL     1     -40.157  51.169 -54.353  1.00  0.00     0.001 A 
HETATM   17  C   UNL     1     -39.617  50.462 -53.283  1.00  0.00     0.002 A 
ENDBRANCH   6   7
ENDBRANCH   1   5
BRANCH   2  18
HETATM   18  C   UNL     1     -42.147  59.748 -54.710  1.00  0.00     0.227 C 
BRANCH  18  19
HETATM   19  N   UNL     1     -42.767  59.173 -55.894  1.00  0.00    -0.348 N 
HETATM   20  C   UNL     1     -42.222  59.296 -57.149  1.00  0.00     0.255 C 
HETATM   21  O   UNL     1     -41.262  60.032 -57.364  1.00  0.00    -0.268 OA
HETATM   22  H   UNL     1     -43.589  58.594 -55.754  1.00  0.00     0.163 HD
BRANCH  20  23
HETATM   23  C   UNL     1     -42.852  58.524 -58.257  1.00  0.00     0.070 A 
HETATM   24  C   UNL     1     -42.919  57.129 -58.268  1.00  0.00     0.132 A 
HETATM   25  F   UNL     1     -42.420  56.402 -57.256  1.00  0.00    -0.205 F 
HETATM   26  C   UNL     1     -43.502  56.445 -59.334  1.00  0.00     0.043 A 
HETATM   27  C   UNL     1     -44.030  57.156 -60.410  1.00  0.00     0.003 A 
HETATM   28  C   UNL     1     -43.971  58.549 -60.416  1.00  0.00     0.001 A 
HETATM   29  C   UNL     1     -43.385  59.231 -59.346  1.00  0.00     0.020 A 
ENDBRANCH  20  23
ENDBRANCH  18  19
ENDBRANCH   2  18
TORSDOF 5
ENDMDL
MODEL 3
REMARK VINA RESULT:      -8.2      3.119      3.921
REMARK  5 active torsions:
REMARK  status: ('A' for Active; 'I' for Inactive)
REMARK    1  A    between atoms: C_7  and  C_8 
REMARK    2  A    between atoms: N_9  and  N_10 
REMARK       I    between atoms: N_10  and  C_11 
REMARK    3  A    between atoms: C_11  and  C_12 
REMARK    4  A    between atoms: C_12  and  N_13 
REMARK       I    between atoms: N_13  and  C_14 
REMARK    5  A    between atoms: C_14  and  C_15 
ROOT
HETATM    1  N   UNL     1     -42.349  55.087 -56.485  1.00  0.00    -0.246 N 
HETATM    2  C   UNL     1     -42.564  56.451 -56.615  1.00  0.00     0.255 C 
HETATM    3  O   UNL     1     -42.576  57.266 -55.694  1.00  0.00    -0.270 OA
HETATM    4  H   UNL     1     -42.347  54.502 -57.326  1.00  0.00     0.192 HD
ENDROOT
BRANCH   1   5
HETATM    5  N   UNL     1     -42.155  54.535 -55.254  1.00  0.00    -0.184 NA
HETATM    6  C   UNL     1     -40.949  54.141 -55.001  1.00  0.00     0.153 C 
BRANCH   6   7
HETATM    7  C   UNL     1     -40.638  53.520 -53.725  1.00  0.00     0.018 A 
HETATM    8  C   UNL     1     -40.675  54.122 -52.473  1.00  0.00     0.018 A 
HETATM    9  C   UNL     1     -41.020  55.510 -52.062  1.00  0.00     0.069 C 
HETATM   10  N   UNL     1     -40.319  53.177 -51.543  1.00  0.00    -0.358 N 
HETATM   11  H   UNL     1     -40.265  53.337 -50.548  1.00  0.00     0.166 HD
HETATM   12  C   UNL     1     -40.053  51.974 -52.151  1.00  0.00     0.043 A 
HETATM   13  C   UNL     1     -40.241  52.156 -53.521  1.00  0.00     0.004 A 
HETATM   14  C   UNL     1     -39.666  50.750 -51.590  1.00  0.00     0.030 A 
HETATM   15  C   UNL     1     -40.031  51.050 -54.374  1.00  0.00     0.014 A 
HETATM   16  C   UNL     1     -39.645  49.819 -53.830  1.00  0.00     0.001 A 
HETATM   17  C   UNL     1     -39.467  49.674 -52.458  1.00  0.00     0.002 A 
ENDBRANCH   6   7
ENDBRANCH   1   5
BRANCH   2  18
HETATM   18  C   UNL     1     -42.900  56.865 -58.049  1.00  0.00     0.227 C 
BRANCH  18  19
HETATM   19  N   UNL     1     -42.171  58.035 -58.514  1.00  0.00    -0.348 N 
HETATM   20  C   UNL     1     -42.802  59.176 -58.947  1.00  0.00     0.255 C 
HETATM   21  O   UNL     1     -44.019  59.214 -59.115  1.00  0.00    -0.268 OA
HETATM   22  H   UNL     1     -41.160  58.019 -58.429  1.00  0.00     0.163 HD
BRANCH  20  23
HETATM   23  C   UNL     1     -41.957  60.369 -59.236  1.00  0.00     0.070 A 
HETATM   24  C   UNL     1     -41.313  61.103 -58.239  1.00  0.00     0.132 A 
HETATM   25  F   UNL     1     -41.416  60.757 -56.946  1.00  0.00    -0.205 F 
HETATM   26  C   UNL     1     -40.545  62.225 -58.552  1.00  0.00     0.043 A 
HETATM   27  C   UNL     1     -40.413  62.626 -59.880  1.00  0.00     0.003 A 
HETATM   28  C   UNL     1     -41.050  61.905 -60.889  1.00  0.00     0.001 A 
HETATM   29  C   UNL     1     -41.819  60.783 -60.570  1.00  0.00     0.020 A 
ENDBRANCH  20  23
ENDBRANCH  18  19
ENDBRANCH   2  18
TORSDOF 5
ENDMDL
MODEL 4
REMARK VINA RESULT:      -8.2      5.663      8.010
REMARK  5 active torsions:
REMARK  status: ('A' for Active; 'I' for Inactive)
REMARK    1  A    between atoms: C_7  and  C_8 
REMARK    2  A    between atoms: N_9  and  N_10 
REMARK       I    between atoms: N_10  and  C_11 
REMARK    3  A    between atoms: C_11  and  C_12 
REMARK    4  A    between atoms: C_12  and  N_13 
REMARK       I    between atoms: N_13  and  C_14 
REMARK    5  A    between atoms: C_14  and  C_15 
ROOT
HETATM    1  N   UNL     1     -43.037  57.573 -51.947  1.00  0.00    -0.246 N 
HETATM    2  C   UNL     1     -42.871  58.869 -51.481  1.00  0.00     0.255 C 
HETATM    3  O   UNL     1     -41.877  59.301 -50.901  1.00  0.00    -0.270 OA
HETATM    4  H   UNL     1     -43.906  57.325 -52.430  1.00  0.00     0.192 HD
ENDROOT
BRANCH   1   5
HETATM    5  N   UNL     1     -42.061  56.642 -51.752  1.00  0.00    -0.184 NA
HETATM    6  C   UNL     1     -42.471  55.425 -51.597  1.00  0.00     0.153 C 
BRANCH   6   7
HETATM    7  C   UNL     1     -41.513  54.358 -51.362  1.00  0.00     0.018 A 
HETATM    8  C   UNL     1     -40.909  54.028 -50.155  1.00  0.00     0.018 A 
HETATM    9  C   UNL     1     -41.038  54.628 -48.798  1.00  0.00     0.069 C 
HETATM   10  N   UNL     1     -40.084  52.955 -50.377  1.00  0.00    -0.358 N 
HETATM   11  H   UNL     1     -39.521  52.502 -49.673  1.00  0.00     0.166 HD
HETATM   12  C   UNL     1     -40.131  52.571 -51.696  1.00  0.00     0.043 A 
HETATM   13  C   UNL     1     -41.018  53.433 -52.342  1.00  0.00     0.004 A 
HETATM   14  C   UNL     1     -39.463  51.531 -52.354  1.00  0.00     0.030 A 
HETATM   15  C   UNL     1     -41.246  53.240 -53.722  1.00  0.00     0.014 A 
HETATM   16  C   UNL     1     -40.586  52.205 -54.396  1.00  0.00     0.001 A 
HETATM   17  C   UNL     1     -39.709  51.363 -53.718  1.00  0.00     0.002 A 
ENDBRANCH   6   7
ENDBRANCH   1   5
BRANCH   2  18
HETATM   18  C   UNL     1     -44.122  59.730 -51.667  1.00  0.00     0.227 C 
BRANCH  18  19
HETATM   19  N   UNL     1     -44.386  60.637 -50.561  1.00  0.00    -0.348 N 
HETATM   20  C   UNL     1     -45.241  60.323 -49.533  1.00  0.00     0.255 C 
HETATM   21  O   UNL     1     -45.952  59.321 -49.572  1.00  0.00    -0.268 OA
HETATM   22  H   UNL     1     -43.845  61.495 -50.524  1.00  0.00     0.163 HD
BRANCH  20  23
HETATM   23  C   UNL     1     -45.302  61.255 -48.372  1.00  0.00     0.070 A 
HETATM   24  C   UNL     1     -45.726  60.858 -47.102  1.00  0.00     0.132 A 
HETATM   25  F   UNL     1     -46.094  59.590 -46.858  1.00  0.00    -0.205 F 
HETATM   26  C   UNL     1     -45.785  61.767 -46.046  1.00  0.00     0.043 A 
HETATM   27  C   UNL     1     -45.417  63.095 -46.252  1.00  0.00     0.003 A 
HETATM   28  C   UNL     1     -44.992  63.509 -47.514  1.00  0.00     0.001 A 
HETATM   29  C   UNL     1     -44.936  62.595 -48.570  1.00  0.00     0.020 A 
ENDBRANCH  20  23
ENDBRANCH  18  19
ENDBRANCH   2  18
TORSDOF 5
ENDMDL
MODEL 5
REMARK VINA RESULT:      -8.1      3.172      8.655
REMARK  5 active torsions:
REMARK  status: ('A' for Active; 'I' for Inactive)
REMARK    1  A    between atoms: C_7  and  C_8 
REMARK    2  A    between atoms: N_9  and  N_10 
REMARK       I    between atoms: N_10  and  C_11 
REMARK    3  A    between atoms: C_11  and  C_12 
REMARK    4  A    between atoms: C_12  and  N_13 
REMARK       I    between atoms: N_13  and  C_14 
REMARK    5  A    between atoms: C_14  and  C_15 
ROOT
HETATM    1  N   UNL     1     -42.852  57.616 -54.610  1.00  0.00    -0.246 N 
HETATM    2  C   UNL     1     -41.835  58.063 -53.779  1.00  0.00     0.255 C 
HETATM    3  O   UNL     1     -40.980  58.895 -54.076  1.00  0.00    -0.270 OA
HETATM    4  H   UNL     1     -43.521  56.927 -54.252  1.00  0.00     0.192 HD
ENDROOT
BRANCH   1   5
HETATM    5  N   UNL     1     -42.950  58.082 -55.888  1.00  0.00    -0.184 NA
HETATM    6  C   UNL     1     -42.366  57.363 -56.791  1.00  0.00     0.153 C 
BRANCH   6   7
HETATM    7  C   UNL     1     -42.392  57.780 -58.183  1.00  0.00     0.018 A 
HETATM    8  C   UNL     1     -42.787  57.018 -59.276  1.00  0.00     0.018 A 
HETATM    9  C   UNL     1     -43.275  55.615 -59.367  1.00  0.00     0.069 C 
HETATM   10  N   UNL     1     -42.666  57.799 -60.398  1.00  0.00    -0.358 N 
HETATM   11  H   UNL     1     -42.888  57.502 -61.336  1.00  0.00     0.166 HD
HETATM   12  C   UNL     1     -42.205  59.051 -60.070  1.00  0.00     0.043 A 
HETATM   13  C   UNL     1     -42.021  59.071 -58.688  1.00  0.00     0.004 A 
HETATM   14  C   UNL     1     -41.944  60.156 -60.891  1.00  0.00     0.030 A 
HETATM   15  C   UNL     1     -41.551  60.265 -58.097  1.00  0.00     0.014 A 
HETATM   16  C   UNL     1     -41.286  61.380 -58.902  1.00  0.00     0.001 A 
HETATM   17  C   UNL     1     -41.482  61.323 -60.279  1.00  0.00     0.002 A 
ENDBRANCH   6   7
ENDBRANCH   1   5
BRANCH   2  18
HETATM   18  C   UNL     1     -41.802  57.329 -52.437  1.00  0.00     0.227 C 
BRANCH  18  19
HETATM   19  N   UNL     1     -41.161  56.024 -52.491  1.00  0.00    -0.348 N 
HETATM   20  C   UNL     1     -41.858  54.867 -52.742  1.00  0.00     0.255 C 
HETATM   21  O   UNL     1     -43.087  54.852 -52.778  1.00  0.00    -0.268 OA
HETATM   22  H   UNL     1     -40.149  55.999 -52.420  1.00  0.00     0.163 HD
BRANCH  20  23
HETATM   23  C   UNL     1     -41.075  53.616 -52.943  1.00  0.00     0.070 A 
HETATM   24  C   UNL     1     -40.275  53.052 -51.946  1.00  0.00     0.132 A 
HETATM   25  F   UNL     1     -40.181  53.615 -50.731  1.00  0.00    -0.205 F 
HETATM   26  C   UNL     1     -39.545  51.888 -52.182  1.00  0.00     0.043 A 
HETATM   27  C   UNL     1     -39.608  51.270 -53.429  1.00  0.00     0.003 A 
HETATM   28  C   UNL     1     -40.400  51.819 -54.436  1.00  0.00     0.001 A 
HETATM   29  C   UNL     1     -41.130  52.986 -54.196  1.00  0.00     0.020 A 
ENDBRANCH  20  23
ENDBRANCH  18  19
ENDBRANCH   2  18
TORSDOF 5
ENDMDL
MODEL 6
REMARK VINA RESULT:      -8.0     15.517     17.946
REMARK  5 active torsions:
REMARK  status: ('A' for Active; 'I' for Inactive)
REMARK    1  A    between atoms: C_7  and  C_8 
REMARK    2  A    between atoms: N_9  and  N_10 
REMARK       I    between atoms: N_10  and  C_11 
REMARK    3  A    between atoms: C_11  and  C_12 
REMARK    4  A    between atoms: C_12  and  N_13 
REMARK       I    between atoms: N_13  and  C_14 
REMARK    5  A    between atoms: C_14  and  C_15 
ROOT
HETATM    1  N   UNL     1     -39.038  39.621 -51.328  1.00  0.00    -0.246 N 
HETATM    2  C   UNL     1     -39.130  38.381 -50.714  1.00  0.00     0.255 C 
HETATM    3  O   UNL     1     -38.320  37.462 -50.829  1.00  0.00    -0.270 OA
HETATM    4  H   UNL     1     -39.767  40.319 -51.149  1.00  0.00     0.192 HD
ENDROOT
BRANCH   1   5
HETATM    5  N   UNL     1     -37.998  39.900 -52.164  1.00  0.00    -0.184 NA
HETATM    6  C   UNL     1     -37.854  41.145 -52.482  1.00  0.00     0.153 C 
BRANCH   6   7
HETATM    7  C   UNL     1     -36.789  41.548 -53.384  1.00  0.00     0.018 A 
HETATM    8  C   UNL     1     -35.497  41.925 -53.035  1.00  0.00     0.018 A 
HETATM    9  C   UNL     1     -34.832  42.035 -51.708  1.00  0.00     0.069 C 
HETATM   10  N   UNL     1     -34.818  42.217 -54.192  1.00  0.00    -0.358 N 
HETATM   11  H   UNL     1     -33.855  42.515 -54.238  1.00  0.00     0.166 HD
HETATM   12  C   UNL     1     -35.629  42.039 -55.288  1.00  0.00     0.043 A 
HETATM   13  C   UNL     1     -36.872  41.622 -54.815  1.00  0.00     0.004 A 
HETATM   14  C   UNL     1     -35.349  42.213 -56.649  1.00  0.00     0.030 A 
HETATM   15  C   UNL     1     -37.891  41.365 -55.759  1.00  0.00     0.014 A 
HETATM   16  C   UNL     1     -37.629  41.533 -57.124  1.00  0.00     0.001 A 
HETATM   17  C   UNL     1     -36.374  41.950 -57.560  1.00  0.00     0.002 A 
ENDBRANCH   6   7
ENDBRANCH   1   5
BRANCH   2  18
HETATM   18  C   UNL     1     -40.430  38.203 -49.927  1.00  0.00     0.227 C 
BRANCH  18  19
HETATM   19  N   UNL     1     -40.363  38.686 -48.557  1.00  0.00    -0.348 N 
HETATM   20  C   UNL     1     -41.462  38.734 -47.734  1.00  0.00     0.255 C 
HETATM   21  O   UNL     1     -42.595  38.519 -48.161  1.00  0.00    -0.268 OA
HETATM   22  H   UNL     1     -39.446  38.914 -48.187  1.00  0.00     0.163 HD
BRANCH  20  23
HETATM   23  C   UNL     1     -41.243  39.085 -46.303  1.00  0.00     0.070 A 
HETATM   24  C   UNL     1     -40.774  38.168 -45.360  1.00  0.00     0.132 A 
HETATM   25  F   UNL     1     -40.480  36.905 -45.706  1.00  0.00    -0.205 F 
HETATM   26  C   UNL     1     -40.599  38.533 -44.025  1.00  0.00     0.043 A 
HETATM   27  C   UNL     1     -40.895  39.832 -43.617  1.00  0.00     0.003 A 
HETATM   28  C   UNL     1     -41.365  40.760 -44.545  1.00  0.00     0.001 A 
HETATM   29  C   UNL     1     -41.540  40.390 -45.881  1.00  0.00     0.020 A 
ENDBRANCH  20  23
ENDBRANCH  18  19
ENDBRANCH   2  18
TORSDOF 5
ENDMDL
MODEL 7
REMARK VINA RESULT:      -8.0      2.829      4.283
REMARK  5 active torsions:
REMARK  status: ('A' for Active; 'I' for Inactive)
REMARK    1  A    between atoms: C_7  and  C_8 
REMARK    2  A    between atoms: N_9  and  N_10 
REMARK       I    between atoms: N_10  and  C_11 
REMARK    3  A    between atoms: C_11  and  C_12 
REMARK    4  A    between atoms: C_12  and  N_13 
REMARK       I    between atoms: N_13  and  C_14 
REMARK    5  A    between atoms: C_14  and  C_15 
ROOT
HETATM    1  N   UNL     1     -41.270  55.111 -55.999  1.00  0.00    -0.246 N 
HETATM    2  C   UNL     1     -42.247  56.091 -56.096  1.00  0.00     0.255 C 
HETATM    3  O   UNL     1     -42.713  56.735 -55.158  1.00  0.00    -0.270 OA
HETATM    4  H   UNL     1     -40.945  54.647 -56.852  1.00  0.00     0.192 HD
ENDROOT
BRANCH   1   5
HETATM    5  N   UNL     1     -40.761  54.767 -54.782  1.00  0.00    -0.184 NA
HETATM    6  C   UNL     1     -41.157  53.628 -54.312  1.00  0.00     0.153 C 
BRANCH   6   7
HETATM    7  C   UNL     1     -40.691  53.175 -53.013  1.00  0.00     0.018 A 
HETATM    8  C   UNL     1     -39.994  52.004 -52.738  1.00  0.00     0.018 A 
HETATM    9  C   UNL     1     -39.534  50.905 -53.630  1.00  0.00     0.069 C 
HETATM   10  N   UNL     1     -39.743  51.972 -51.389  1.00  0.00    -0.358 N 
HETATM   11  H   UNL     1     -39.247  51.235 -50.911  1.00  0.00     0.166 HD
HETATM   12  C   UNL     1     -40.254  53.090 -50.774  1.00  0.00     0.043 A 
HETATM   13  C   UNL     1     -40.857  53.863 -51.765  1.00  0.00     0.004 A 
HETATM   14  C   UNL     1     -40.221  53.467 -49.426  1.00  0.00     0.030 A 
HETATM   15  C   UNL     1     -41.460  55.082 -51.382  1.00  0.00     0.014 A 
HETATM   16  C   UNL     1     -41.435  55.475 -50.039  1.00  0.00     0.001 A 
HETATM   17  C   UNL     1     -40.823  54.677 -49.077  1.00  0.00     0.002 A 
ENDBRANCH   6   7
ENDBRANCH   1   5
BRANCH   2  18
HETATM   18  C   UNL     1     -42.795  56.243 -57.517  1.00  0.00     0.227 C 
BRANCH  18  19
HETATM   19  N   UNL     1     -42.268  57.393 -58.235  1.00  0.00    -0.348 N 
HETATM   20  C   UNL     1     -43.008  58.528 -58.461  1.00  0.00     0.255 C 
HETATM   21  O   UNL     1     -44.210  58.573 -58.207  1.00  0.00    -0.268 OA
HETATM   22  H   UNL     1     -41.288  57.369 -58.498  1.00  0.00     0.163 HD
BRANCH  20  23
HETATM   23  C   UNL     1     -42.312  59.703 -59.056  1.00  0.00     0.070 A 
HETATM   24  C   UNL     1     -41.636  60.654 -58.287  1.00  0.00     0.132 A 
HETATM   25  F   UNL     1     -41.569  60.546 -56.951  1.00  0.00    -0.205 F 
HETATM   26  C   UNL     1     -41.011  61.750 -58.882  1.00  0.00     0.043 A 
HETATM   27  C   UNL     1     -41.058  61.907 -60.266  1.00  0.00     0.003 A 
HETATM   28  C   UNL     1     -41.728  60.969 -61.049  1.00  0.00     0.001 A 
HETATM   29  C   UNL     1     -42.354  59.872 -60.448  1.00  0.00     0.020 A 
ENDBRANCH  20  23
ENDBRANCH  18  19
ENDBRANCH   2  18
TORSDOF 5
ENDMDL
MODEL 8
REMARK VINA RESULT:      -7.9      3.215      8.454
REMARK  5 active torsions:
REMARK  status: ('A' for Active; 'I' for Inactive)
REMARK    1  A    between atoms: C_7  and  C_8 
REMARK    2  A    between atoms: N_9  and  N_10 
REMARK       I    between atoms: N_10  and  C_11 
REMARK    3  A    between atoms: C_11  and  C_12 
REMARK    4  A    between atoms: C_12  and  N_13 
REMARK       I    between atoms: N_13  and  C_14 
REMARK    5  A    between atoms: C_14  and  C_15 
ROOT
HETATM    1  N   UNL     1     -42.957  55.621 -52.528  1.00  0.00    -0.246 N 
HETATM    2  C   UNL     1     -42.528  56.122 -51.308  1.00  0.00     0.255 C 
HETATM    3  O   UNL     1     -42.349  57.310 -51.043  1.00  0.00    -0.270 OA
HETATM    4  H   UNL     1     -43.086  54.610 -52.633  1.00  0.00     0.192 HD
ENDROOT
BRANCH   1   5
HETATM    5  N   UNL     1     -43.192  56.465 -53.573  1.00  0.00    -0.184 NA
HETATM    6  C   UNL     1     -42.243  56.550 -54.448  1.00  0.00     0.153 C 
BRANCH   6   7
HETATM    7  C   UNL     1     -42.383  57.436 -55.591  1.00  0.00     0.018 A 
HETATM    8  C   UNL     1     -42.222  58.816 -55.602  1.00  0.00     0.018 A 
HETATM    9  C   UNL     1     -41.879  59.772 -54.513  1.00  0.00     0.069 C 
HETATM   10  N   UNL     1     -42.435  59.253 -56.886  1.00  0.00    -0.358 N 
HETATM   11  H   UNL     1     -42.379  60.215 -57.186  1.00  0.00     0.166 HD
HETATM   12  C   UNL     1     -42.729  58.198 -57.715  1.00  0.00     0.043 A 
HETATM   13  C   UNL     1     -42.707  57.044 -56.933  1.00  0.00     0.004 A 
HETATM   14  C   UNL     1     -43.007  58.185 -59.087  1.00  0.00     0.030 A 
HETATM   15  C   UNL     1     -42.977  55.808 -57.562  1.00  0.00     0.014 A 
HETATM   16  C   UNL     1     -43.256  55.776 -58.934  1.00  0.00     0.001 A 
HETATM   17  C   UNL     1     -43.269  56.949 -59.683  1.00  0.00     0.002 A 
ENDBRANCH   6   7
ENDBRANCH   1   5
BRANCH   2  18
HETATM   18  C   UNL     1     -42.184  55.021 -50.303  1.00  0.00     0.227 C 
BRANCH  18  19
HETATM   19  N   UNL     1     -41.726  53.783 -50.915  1.00  0.00    -0.348 N 
HETATM   20  C   UNL     1     -40.450  53.303 -50.750  1.00  0.00     0.255 C 
HETATM   21  O   UNL     1     -39.576  53.975 -50.205  1.00  0.00    -0.268 OA
HETATM   22  H   UNL     1     -42.415  53.226 -51.411  1.00  0.00     0.163 HD
BRANCH  20  23
HETATM   23  C   UNL     1     -40.145  51.945 -51.281  1.00  0.00     0.070 A 
HETATM   24  C   UNL     1     -40.164  50.797 -50.485  1.00  0.00     0.132 A 
HETATM   25  F   UNL     1     -40.476  50.862 -49.181  1.00  0.00    -0.205 F 
HETATM   26  C   UNL     1     -39.856  49.546 -51.018  1.00  0.00     0.043 A 
HETATM   27  C   UNL     1     -39.521  49.429 -52.366  1.00  0.00     0.003 A 
HETATM   28  C   UNL     1     -39.497  50.564 -53.175  1.00  0.00     0.001 A 
HETATM   29  C   UNL     1     -39.806  51.817 -52.636  1.00  0.00     0.020 A 
ENDBRANCH  20  23
ENDBRANCH  18  19
ENDBRANCH   2  18
TORSDOF 5
ENDMDL
MODEL 9
REMARK VINA RESULT:      -7.8      1.599      2.906
REMARK  5 active torsions:
REMARK  status: ('A' for Active; 'I' for Inactive)
REMARK    1  A    between atoms: C_7  and  C_8 
REMARK    2  A    between atoms: N_9  and  N_10 
REMARK       I    between atoms: N_10  and  C_11 
REMARK    3  A    between atoms: C_11  and  C_12 
REMARK    4  A    between atoms: C_12  and  N_13 
REMARK       I    between atoms: N_13  and  C_14 
REMARK    5  A    between atoms: C_14  and  C_15 
ROOT
HETATM    1  N   UNL     1     -42.316  57.117 -54.801  1.00  0.00    -0.246 N 
HETATM    2  C   UNL     1     -42.043  58.461 -55.007  1.00  0.00     0.255 C 
HETATM    3  O   UNL     1     -41.194  59.121 -54.411  1.00  0.00    -0.270 OA
HETATM    4  H   UNL     1     -43.039  56.664 -55.367  1.00  0.00     0.192 HD
ENDROOT
BRANCH   1   5
HETATM    5  N   UNL     1     -41.636  56.416 -53.850  1.00  0.00    -0.184 NA
HETATM    6  C   UNL     1     -41.835  55.138 -53.847  1.00  0.00     0.153 C 
BRANCH   6   7
HETATM    7  C   UNL     1     -41.175  54.299 -52.862  1.00  0.00     0.018 A 
HETATM    8  C   UNL     1     -40.475  53.122 -53.100  1.00  0.00     0.018 A 
HETATM    9  C   UNL     1     -40.199  52.385 -54.364  1.00  0.00     0.069 C 
HETATM   10  N   UNL     1     -40.007  52.660 -51.896  1.00  0.00    -0.358 N 
HETATM   11  H   UNL     1     -39.461  51.821 -51.771  1.00  0.00     0.166 HD
HETATM   12  C   UNL     1     -40.379  53.503 -50.876  1.00  0.00     0.043 A 
HETATM   13  C   UNL     1     -41.115  54.540 -51.448  1.00  0.00     0.004 A 
HETATM   14  C   UNL     1     -40.115  53.421 -49.503  1.00  0.00     0.030 A 
HETATM   15  C   UNL     1     -41.612  55.551 -50.596  1.00  0.00     0.014 A 
HETATM   16  C   UNL     1     -41.357  55.487 -49.221  1.00  0.00     0.001 A 
HETATM   17  C   UNL     1     -40.618  54.436 -48.685  1.00  0.00     0.002 A 
ENDBRANCH   6   7
ENDBRANCH   1   5
BRANCH   2  18
HETATM   18  C   UNL     1     -42.997  59.112 -56.012  1.00  0.00     0.227 C 
BRANCH  18  19
HETATM   19  N   UNL     1     -43.719  58.162 -56.843  1.00  0.00    -0.348 N 
HETATM   20  C   UNL     1     -43.755  58.254 -58.213  1.00  0.00     0.255 C 
HETATM   21  O   UNL     1     -43.309  59.236 -58.803  1.00  0.00    -0.268 OA
HETATM   22  H   UNL     1     -44.137  57.361 -56.380  1.00  0.00     0.163 HD
BRANCH  20  23
HETATM   23  C   UNL     1     -44.380  57.133 -58.968  1.00  0.00     0.070 A 
HETATM   24  C   UNL     1     -43.738  55.912 -59.185  1.00  0.00     0.132 A 
HETATM   25  F   UNL     1     -42.506  55.681 -58.704  1.00  0.00    -0.205 F 
HETATM   26  C   UNL     1     -44.353  54.893 -59.913  1.00  0.00     0.043 A 
HETATM   27  C   UNL     1     -45.630  55.089 -60.437  1.00  0.00     0.003 A 
HETATM   28  C   UNL     1     -46.286  56.301 -60.230  1.00  0.00     0.001 A 
HETATM   29  C   UNL     1     -45.665  57.320 -59.501  1.00  0.00     0.020 A 
ENDBRANCH  20  23
ENDBRANCH  18  19
ENDBRANCH   2  18
TORSDOF 5
ENDMDL
MODEL 10
REMARK VINA RESULT:      -7.6      2.136      3.611
REMARK  5 active torsions:
REMARK  status: ('A' for Active; 'I' for Inactive)
REMARK    1  A    between atoms: C_7  and  C_8 
REMARK    2  A    between atoms: N_9  and  N_10 
REMARK       I    between atoms: N_10  and  C_11 
REMARK    3  A    between atoms: C_11  and  C_12 
REMARK    4  A    between atoms: C_12  and  N_13 
REMARK       I    between atoms: N_13  and  C_14 
REMARK    5  A    between atoms: C_14  and  C_15 
ROOT
HETATM    1  N   UNL     1     -41.547  54.879 -56.193  1.00  0.00    -0.246 N 
HETATM    2  C   UNL     1     -42.736  55.552 -56.432  1.00  0.00     0.255 C 
HETATM    3  O   UNL     1     -43.435  56.098 -55.580  1.00  0.00    -0.270 OA
HETATM    4  H   UNL     1     -41.038  54.472 -56.984  1.00  0.00     0.192 HD
ENDROOT
BRANCH   1   5
HETATM    5  N   UNL     1     -41.071  54.754 -54.922  1.00  0.00    -0.184 NA
HETATM    6  C   UNL     1     -41.239  53.594 -54.374  1.00  0.00     0.153 C 
BRANCH   6   7
HETATM    7  C   UNL     1     -40.788  53.359 -53.013  1.00  0.00     0.018 A 
HETATM    8  C   UNL     1     -40.014  52.296 -52.561  1.00  0.00     0.018 A 
HETATM    9  C   UNL     1     -39.439  51.127 -53.281  1.00  0.00     0.069 C 
HETATM   10  N   UNL     1     -39.811  52.467 -51.215  1.00  0.00    -0.358 N 
HETATM   11  H   UNL     1     -39.279  51.844 -50.627  1.00  0.00     0.166 HD
HETATM   12  C   UNL     1     -40.428  53.613 -50.773  1.00  0.00     0.043 A 
HETATM   13  C   UNL     1     -41.052  54.194 -51.876  1.00  0.00     0.004 A 
HETATM   14  C   UNL     1     -40.474  54.170 -49.489  1.00  0.00     0.030 A 
HETATM   15  C   UNL     1     -41.759  55.401 -51.681  1.00  0.00     0.014 A 
HETATM   16  C   UNL     1     -41.814  55.973 -50.404  1.00  0.00     0.001 A 
HETATM   17  C   UNL     1     -41.179  55.364 -49.326  1.00  0.00     0.002 A 
ENDBRANCH   6   7
ENDBRANCH   1   5
BRANCH   2  18
HETATM   18  C   UNL     1     -43.180  55.471 -57.894  1.00  0.00     0.227 C 
BRANCH  18  19
HETATM   19  N   UNL     1     -43.996  56.593 -58.329  1.00  0.00    -0.348 N 
HETATM   20  C   UNL     1     -44.150  56.928 -59.652  1.00  0.00     0.255 C 
HETATM   21  O   UNL     1     -43.480  56.394 -60.533  1.00  0.00    -0.268 OA
HETATM   22  H   UNL     1     -44.529  57.085 -57.619  1.00  0.00     0.163 HD
BRANCH  20  23
HETATM   23  C   UNL     1     -45.142  57.988 -59.989  1.00  0.00     0.070 A 
HETATM   24  C   UNL     1     -46.520  57.809 -59.849  1.00  0.00     0.132 A 
HETATM   25  F   UNL     1     -47.027  56.656 -59.385  1.00  0.00    -0.205 F 
HETATM   26  C   UNL     1     -47.416  58.821 -60.193  1.00  0.00     0.043 A 
HETATM   27  C   UNL     1     -46.937  60.035 -60.684  1.00  0.00     0.003 A 
HETATM   28  C   UNL     1     -45.565  60.230 -60.830  1.00  0.00     0.001 A 
HETATM   29  C   UNL     1     -44.670  59.212 -60.486  1.00  0.00     0.020 A 
ENDBRANCH  20  23
ENDBRANCH  18  19
ENDBRANCH   2  18
TORSDOF 5
ENDMDL
