MODEL 1
REMARK VINA RESULT:      -8.5      0.000      0.000
REMARK  7 active torsions:
REMARK  status: ('A' for Active; 'I' for Inactive)
REMARK       I    between atoms: N_2  and  C_3 
REMARK    1  A    between atoms: N_2  and  C_24 
REMARK    2  A    between atoms: C_3  and  C_4 
REMARK    3  A    between atoms: C_7  and  N_8 
REMARK    4  A    between atoms: C_11  and  N_12 
REMARK       I    between atoms: N_12  and  C_13 
REMARK    5  A    between atoms: C_13  and  C_14 
REMARK    6  A    between atoms: C_24  and  C_25 
REMARK    7  A    between atoms: C_27  and  O_28 
ROOT
HETATM    1  C   UNL     1     -44.767  59.953 -51.700  1.00  0.00     0.032 A 
HETATM    2  C   UNL     1     -45.312  58.688 -51.450  1.00  0.00     0.019 A 
HETATM    3  C   UNL     1     -44.486  57.569 -51.345  1.00  0.00     0.032 A 
HETATM    4  C   UNL     1     -43.096  57.702 -51.470  1.00  0.00     0.058 A 
HETATM    5  C   UNL     1     -42.551  58.957 -51.778  1.00  0.00     0.032 A 
HETATM    6  C   UNL     1     -43.391  60.075 -51.919  1.00  0.00     0.019 A 
ENDROOT
BRANCH   4   7
HETATM    7  N   UNL     1     -42.277  56.559 -51.238  1.00  0.00    -0.243 N 
HETATM    8  N   UNL     1     -41.451  56.516 -50.163  1.00  0.00    -0.178 NA
HETATM    9  C   UNL     1     -40.734  55.405 -50.328  1.00  0.00     0.170 A 
HETATM   10  C   UNL     1     -41.082  54.710 -51.501  1.00  0.00     0.071 A 
HETATM   11  C   UNL     1     -42.123  55.439 -52.034  1.00  0.00     0.149 A 
BRANCH  10  12
HETATM   12  N   UNL     1     -40.538  53.577 -52.083  1.00  0.00    -0.324 N 
HETATM   13  C   UNL     1     -40.225  52.432 -51.368  1.00  0.00     0.228 C 
HETATM   14  O   UNL     1     -40.464  52.257 -50.177  1.00  0.00    -0.273 OA
HETATM   15  H   UNL     1     -40.277  53.645 -53.057  1.00  0.00     0.169 HD
BRANCH  13  16
HETATM   16  C   UNL     1     -39.457  51.415 -52.189  1.00  0.00     0.104 C 
HETATM   17  C   UNL     1     -39.664  49.990 -51.704  1.00  0.00     0.181 C 
HETATM   18  O   UNL     1     -39.444  49.132 -52.836  1.00  0.00    -0.390 OA
HETATM   19  C   UNL     1     -39.416  49.935 -54.019  1.00  0.00     0.168 C 
HETATM   20  C   UNL     1     -39.905  51.313 -53.630  1.00  0.00     0.042 C 
ENDBRANCH  13  16
ENDBRANCH  10  12
ENDBRANCH   4   7
BRANCH   1  21
HETATM   21  C   UNL     1     -45.731  61.081 -51.756  1.00  0.00     0.253 C 
HETATM   22  N   UNL     1     -45.807  62.017 -50.722  1.00  0.00    -0.348 N 
HETATM   23  C   UNL     1     -46.957  62.915 -50.696  1.00  0.00     0.153 C 
HETATM   24  O   UNL     1     -46.516  61.082 -52.704  1.00  0.00    -0.267 OA
BRANCH  22  25
HETATM   25  C   UNL     1     -44.796  62.246 -49.688  1.00  0.00     0.164 C 
BRANCH  25  26
HETATM   26  C   UNL     1     -45.166  61.695 -48.321  1.00  0.00    -0.038 A 
HETATM   27  C   UNL     1     -45.826  60.463 -48.144  1.00  0.00     0.045 A 
HETATM   28  C   UNL     1     -46.118  59.974 -46.869  1.00  0.00     0.068 A 
HETATM   29  C   UNL     1     -45.785  60.739 -45.753  1.00  0.00     0.037 A 
HETATM   30  C   UNL     1     -45.148  61.970 -45.905  1.00  0.00     0.003 A 
HETATM   31  C   UNL     1     -44.837  62.444 -47.180  1.00  0.00     0.009 A 
BRANCH  28  32
HETATM   32  O   UNL     1     -46.725  58.779 -46.593  1.00  0.00    -0.356 OA
HETATM   33  C   UNL     1     -47.125  58.562 -45.244  1.00  0.00     0.210 C 
ENDBRANCH  28  32
ENDBRANCH  25  26
ENDBRANCH  22  25
ENDBRANCH   1  21
TORSDOF 7
ENDMDL
MODEL 2
REMARK VINA RESULT:      -8.2      5.494      9.221
REMARK  7 active torsions:
REMARK  status: ('A' for Active; 'I' for Inactive)
REMARK       I    between atoms: N_2  and  C_3 
REMARK    1  A    between atoms: N_2  and  C_24 
REMARK    2  A    between atoms: C_3  and  C_4 
REMARK    3  A    between atoms: C_7  and  N_8 
REMARK    4  A    between atoms: C_11  and  N_12 
REMARK       I    between atoms: N_12  and  C_13 
REMARK    5  A    between atoms: C_13  and  C_14 
REMARK    6  A    between atoms: C_24  and  C_25 
REMARK    7  A    between atoms: C_27  and  O_28 
ROOT
HETATM    1  C   UNL     1     -41.259  53.810 -53.658  1.00  0.00     0.032 A 
HETATM    2  C   UNL     1     -40.546  54.973 -53.975  1.00  0.00     0.019 A 
HETATM    3  C   UNL     1     -40.981  55.815 -54.998  1.00  0.00     0.032 A 
HETATM    4  C   UNL     1     -42.150  55.514 -55.711  1.00  0.00     0.058 A 
HETATM    5  C   UNL     1     -42.835  54.321 -55.437  1.00  0.00     0.032 A 
HETATM    6  C   UNL     1     -42.371  53.459 -54.429  1.00  0.00     0.019 A 
ENDROOT
BRANCH   4   7
HETATM    7  N   UNL     1     -42.628  56.457 -56.666  1.00  0.00    -0.243 N 
HETATM    8  N   UNL     1     -42.531  57.788 -56.422  1.00  0.00    -0.178 NA
HETATM    9  C   UNL     1     -43.197  58.368 -57.421  1.00  0.00     0.170 A 
HETATM   10  C   UNL     1     -43.729  57.431 -58.326  1.00  0.00     0.071 A 
HETATM   11  C   UNL     1     -43.292  56.213 -57.854  1.00  0.00     0.149 A 
BRANCH  10  12
HETATM   12  N   UNL     1     -44.543  57.599 -59.434  1.00  0.00    -0.324 N 
HETATM   13  C   UNL     1     -45.926  57.658 -59.359  1.00  0.00     0.228 C 
HETATM   14  O   UNL     1     -46.576  57.655 -58.318  1.00  0.00    -0.273 OA
HETATM   15  H   UNL     1     -44.092  57.578 -60.339  1.00  0.00     0.169 HD
BRANCH  13  16
HETATM   16  C   UNL     1     -46.591  57.639 -60.720  1.00  0.00     0.104 C 
HETATM   17  C   UNL     1     -47.409  56.380 -60.959  1.00  0.00     0.181 C 
HETATM   18  O   UNL     1     -48.428  56.723 -61.912  1.00  0.00    -0.390 OA
HETATM   19  C   UNL     1     -48.474  58.147 -62.040  1.00  0.00     0.168 C 
HETATM   20  C   UNL     1     -47.631  58.718 -60.921  1.00  0.00     0.042 C 
ENDBRANCH  13  16
ENDBRANCH  10  12
ENDBRANCH   4   7
BRANCH   1  21
HETATM   21  C   UNL     1     -40.730  53.006 -52.527  1.00  0.00     0.253 C 
HETATM   22  N   UNL     1     -41.147  53.242 -51.216  1.00  0.00    -0.348 N 
HETATM   23  C   UNL     1     -40.384  52.630 -50.135  1.00  0.00     0.153 C 
HETATM   24  O   UNL     1     -39.839  52.201 -52.800  1.00  0.00    -0.267 OA
BRANCH  22  25
HETATM   25  C   UNL     1     -42.339  53.992 -50.811  1.00  0.00     0.164 C 
BRANCH  25  26
HETATM   26  C   UNL     1     -42.218  55.496 -50.986  1.00  0.00    -0.038 A 
HETATM   27  C   UNL     1     -43.181  56.268 -51.667  1.00  0.00     0.045 A 
HETATM   28  C   UNL     1     -43.053  57.655 -51.777  1.00  0.00     0.068 A 
HETATM   29  C   UNL     1     -41.931  58.280 -51.236  1.00  0.00     0.037 A 
HETATM   30  C   UNL     1     -40.956  57.534 -50.575  1.00  0.00     0.003 A 
HETATM   31  C   UNL     1     -41.100  56.152 -50.446  1.00  0.00     0.009 A 
BRANCH  28  32
HETATM   32  O   UNL     1     -43.946  58.492 -52.387  1.00  0.00    -0.356 OA
HETATM   33  C   UNL     1     -44.648  57.970 -53.510  1.00  0.00     0.210 C 
ENDBRANCH  28  32
ENDBRANCH  25  26
ENDBRANCH  22  25
ENDBRANCH   1  21
TORSDOF 7
ENDMDL
MODEL 3
REMARK VINA RESULT:      -8.2      5.544      9.241
REMARK  7 active torsions:
REMARK  status: ('A' for Active; 'I' for Inactive)
REMARK       I    between atoms: N_2  and  C_3 
REMARK    1  A    between atoms: N_2  and  C_24 
REMARK    2  A    between atoms: C_3  and  C_4 
REMARK    3  A    between atoms: C_7  and  N_8 
REMARK    4  A    between atoms: C_11  and  N_12 
REMARK       I    between atoms: N_12  and  C_13 
REMARK    5  A    between atoms: C_13  and  C_14 
REMARK    6  A    between atoms: C_24  and  C_25 
REMARK    7  A    between atoms: C_27  and  O_28 
ROOT
HETATM    1  C   UNL     1     -41.302  53.895 -53.590  1.00  0.00     0.032 A 
HETATM    2  C   UNL     1     -40.593  55.052 -53.932  1.00  0.00     0.019 A 
HETATM    3  C   UNL     1     -41.065  55.902 -54.932  1.00  0.00     0.032 A 
HETATM    4  C   UNL     1     -42.267  55.616 -55.594  1.00  0.00     0.058 A 
HETATM    5  C   UNL     1     -42.950  54.427 -55.296  1.00  0.00     0.032 A 
HETATM    6  C   UNL     1     -42.450  53.556 -54.312  1.00  0.00     0.019 A 
ENDROOT
BRANCH   4   7
HETATM    7  N   UNL     1     -42.778  56.567 -56.524  1.00  0.00    -0.243 N 
HETATM    8  N   UNL     1     -42.803  57.886 -56.209  1.00  0.00    -0.178 NA
HETATM    9  C   UNL     1     -43.468  58.463 -57.210  1.00  0.00     0.170 A 
HETATM   10  C   UNL     1     -43.879  57.537 -58.186  1.00  0.00     0.071 A 
HETATM   11  C   UNL     1     -43.365  56.335 -57.755  1.00  0.00     0.149 A 
BRANCH  10  12
HETATM   12  N   UNL     1     -44.653  57.698 -59.323  1.00  0.00    -0.324 N 
HETATM   13  C   UNL     1     -46.039  57.699 -59.305  1.00  0.00     0.228 C 
HETATM   14  O   UNL     1     -46.731  57.645 -58.294  1.00  0.00    -0.273 OA
HETATM   15  H   UNL     1     -44.165  57.717 -60.208  1.00  0.00     0.169 HD
BRANCH  13  16
HETATM   16  C   UNL     1     -46.646  57.685 -60.694  1.00  0.00     0.104 C 
HETATM   17  C   UNL     1     -47.406  56.403 -60.992  1.00  0.00     0.181 C 
HETATM   18  O   UNL     1     -48.396  56.729 -61.980  1.00  0.00    -0.390 OA
HETATM   19  C   UNL     1     -48.490  58.153 -62.081  1.00  0.00     0.168 C 
HETATM   20  C   UNL     1     -47.717  58.730 -60.916  1.00  0.00     0.042 C 
ENDBRANCH  13  16
ENDBRANCH  10  12
ENDBRANCH   4   7
BRANCH   1  21
HETATM   21  C   UNL     1     -40.731  53.081 -52.487  1.00  0.00     0.253 C 
HETATM   22  N   UNL     1     -41.134  53.275 -51.163  1.00  0.00    -0.348 N 
HETATM   23  C   UNL     1     -40.335  52.660 -50.109  1.00  0.00     0.153 C 
HETATM   24  O   UNL     1     -39.822  52.308 -52.792  1.00  0.00    -0.267 OA
BRANCH  22  25
HETATM   25  C   UNL     1     -42.339  53.980 -50.723  1.00  0.00     0.164 C 
BRANCH  25  26
HETATM   26  C   UNL     1     -42.307  55.480 -50.961  1.00  0.00    -0.038 A 
HETATM   27  C   UNL     1     -41.213  56.290 -50.597  1.00  0.00     0.045 A 
HETATM   28  C   UNL     1     -41.205  57.661 -50.865  1.00  0.00     0.068 A 
HETATM   29  C   UNL     1     -42.318  58.243 -51.467  1.00  0.00     0.037 A 
HETATM   30  C   UNL     1     -43.420  57.464 -51.818  1.00  0.00     0.003 A 
HETATM   31  C   UNL     1     -43.413  56.091 -51.571  1.00  0.00     0.009 A 
BRANCH  28  32
HETATM   32  O   UNL     1     -40.181  58.523 -50.581  1.00  0.00    -0.356 OA
HETATM   33  C   UNL     1     -40.546  59.845 -50.199  1.00  0.00     0.210 C 
ENDBRANCH  28  32
ENDBRANCH  25  26
ENDBRANCH  22  25
ENDBRANCH   1  21
TORSDOF 7
ENDMDL
MODEL 4
REMARK VINA RESULT:      -8.1      5.486      9.133
REMARK  7 active torsions:
REMARK  status: ('A' for Active; 'I' for Inactive)
REMARK       I    between atoms: N_2  and  C_3 
REMARK    1  A    between atoms: N_2  and  C_24 
REMARK    2  A    between atoms: C_3  and  C_4 
REMARK    3  A    between atoms: C_7  and  N_8 
REMARK    4  A    between atoms: C_11  and  N_12 
REMARK       I    between atoms: N_12  and  C_13 
REMARK    5  A    between atoms: C_13  and  C_14 
REMARK    6  A    between atoms: C_24  and  C_25 
REMARK    7  A    between atoms: C_27  and  O_28 
ROOT
HETATM    1  C   UNL     1     -41.354  54.263 -52.878  1.00  0.00     0.032 A 
HETATM    2  C   UNL     1     -40.512  55.004 -53.716  1.00  0.00     0.019 A 
HETATM    3  C   UNL     1     -40.987  55.520 -54.921  1.00  0.00     0.032 A 
HETATM    4  C   UNL     1     -42.322  55.318 -55.299  1.00  0.00     0.058 A 
HETATM    5  C   UNL     1     -43.152  54.527 -54.491  1.00  0.00     0.032 A 
HETATM    6  C   UNL     1     -42.658  53.979 -53.296  1.00  0.00     0.019 A 
ENDROOT
BRANCH   4   7
HETATM    7  N   UNL     1     -42.802  55.960 -56.477  1.00  0.00    -0.243 N 
HETATM    8  N   UNL     1     -43.238  55.224 -57.529  1.00  0.00    -0.178 NA
HETATM    9  C   UNL     1     -43.463  56.112 -58.497  1.00  0.00     0.170 A 
HETATM   10  C   UNL     1     -43.184  57.430 -58.093  1.00  0.00     0.071 A 
HETATM   11  C   UNL     1     -42.824  57.312 -56.768  1.00  0.00     0.149 A 
BRANCH  10  12
HETATM   12  N   UNL     1     -43.200  58.621 -58.799  1.00  0.00    -0.324 N 
HETATM   13  C   UNL     1     -42.398  58.860 -59.904  1.00  0.00     0.228 C 
HETATM   14  O   UNL     1     -41.656  58.035 -60.428  1.00  0.00    -0.273 OA
HETATM   15  H   UNL     1     -43.760  59.370 -58.417  1.00  0.00     0.169 HD
BRANCH  13  16
HETATM   16  C   UNL     1     -42.452  60.301 -60.371  1.00  0.00     0.104 C 
HETATM   17  C   UNL     1     -41.559  61.219 -59.554  1.00  0.00     0.181 C 
HETATM   18  O   UNL     1     -41.212  62.323 -60.406  1.00  0.00    -0.390 OA
HETATM   19  C   UNL     1     -41.576  61.996 -61.750  1.00  0.00     0.168 C 
HETATM   20  C   UNL     1     -41.918  60.523 -61.768  1.00  0.00     0.042 C 
ENDBRANCH  13  16
ENDBRANCH  10  12
ENDBRANCH   4   7
BRANCH   1  21
HETATM   21  C   UNL     1     -40.758  53.792 -51.602  1.00  0.00     0.253 C 
HETATM   22  N   UNL     1     -40.999  54.464 -50.401  1.00  0.00    -0.348 N 
HETATM   23  C   UNL     1     -40.162  54.134 -49.253  1.00  0.00     0.153 C 
HETATM   24  O   UNL     1     -39.969  52.850 -51.682  1.00  0.00    -0.267 OA
BRANCH  22  25
HETATM   25  C   UNL     1     -42.074  55.426 -50.152  1.00  0.00     0.164 C 
BRANCH  25  26
HETATM   26  C   UNL     1     -41.925  56.737 -50.907  1.00  0.00    -0.038 A 
HETATM   27  C   UNL     1     -40.741  57.500 -50.892  1.00  0.00     0.045 A 
HETATM   28  C   UNL     1     -40.631  58.682 -51.628  1.00  0.00     0.068 A 
HETATM   29  C   UNL     1     -41.728  59.134 -52.358  1.00  0.00     0.037 A 
HETATM   30  C   UNL     1     -42.917  58.405 -52.372  1.00  0.00     0.003 A 
HETATM   31  C   UNL     1     -43.014  57.212 -51.655  1.00  0.00     0.009 A 
BRANCH  28  32
HETATM   32  O   UNL     1     -39.518  59.473 -51.704  1.00  0.00    -0.356 OA
HETATM   33  C   UNL     1     -38.681  59.513 -50.553  1.00  0.00     0.210 C 
ENDBRANCH  28  32
ENDBRANCH  25  26
ENDBRANCH  22  25
ENDBRANCH   1  21
TORSDOF 7
ENDMDL
MODEL 5
REMARK VINA RESULT:      -8.0      6.584     10.601
REMARK  7 active torsions:
REMARK  status: ('A' for Active; 'I' for Inactive)
REMARK       I    between atoms: N_2  and  C_3 
REMARK    1  A    between atoms: N_2  and  C_24 
REMARK    2  A    between atoms: C_3  and  C_4 
REMARK    3  A    between atoms: C_7  and  N_8 
REMARK    4  A    between atoms: C_11  and  N_12 
REMARK       I    between atoms: N_12  and  C_13 
REMARK    5  A    between atoms: C_13  and  C_14 
REMARK    6  A    between atoms: C_24  and  C_25 
REMARK    7  A    between atoms: C_27  and  O_28 
ROOT
HETATM    1  C   UNL     1     -42.398  57.154 -54.073  1.00  0.00     0.032 A 
HETATM    2  C   UNL     1     -41.683  56.602 -55.143  1.00  0.00     0.019 A 
HETATM    3  C   UNL     1     -42.254  56.525 -56.413  1.00  0.00     0.032 A 
HETATM    4  C   UNL     1     -43.547  57.019 -56.637  1.00  0.00     0.058 A 
HETATM    5  C   UNL     1     -44.288  57.519 -55.557  1.00  0.00     0.032 A 
HETATM    6  C   UNL     1     -43.721  57.560 -54.272  1.00  0.00     0.019 A 
ENDROOT
BRANCH   4   7
HETATM    7  N   UNL     1     -44.050  57.033 -57.970  1.00  0.00    -0.243 N 
HETATM    8  N   UNL     1     -43.265  56.634 -59.002  1.00  0.00    -0.178 NA
HETATM    9  C   UNL     1     -43.972  56.914 -60.097  1.00  0.00     0.170 A 
HETATM   10  C   UNL     1     -45.220  57.491 -59.797  1.00  0.00     0.071 A 
HETATM   11  C   UNL     1     -45.273  57.496 -58.421  1.00  0.00     0.149 A 
BRANCH  10  12
HETATM   12  N   UNL     1     -46.208  58.000 -60.623  1.00  0.00    -0.324 N 
HETATM   13  C   UNL     1     -47.331  57.279 -60.997  1.00  0.00     0.228 C 
HETATM   14  O   UNL     1     -47.622  56.160 -60.583  1.00  0.00    -0.273 OA
HETATM   15  H   UNL     1     -46.036  58.905 -61.038  1.00  0.00     0.169 HD
BRANCH  13  16
HETATM   16  C   UNL     1     -48.154  57.977 -62.061  1.00  0.00     0.104 C 
HETATM   17  C   UNL     1     -49.341  57.150 -62.526  1.00  0.00     0.181 C 
HETATM   18  O   UNL     1     -50.328  58.077 -63.005  1.00  0.00    -0.390 OA
HETATM   19  C   UNL     1     -49.955  59.396 -62.595  1.00  0.00     0.168 C 
HETATM   20  C   UNL     1     -48.832  59.245 -61.593  1.00  0.00     0.042 C 
ENDBRANCH  13  16
ENDBRANCH  10  12
ENDBRANCH   4   7
BRANCH   1  21
HETATM   21  C   UNL     1     -41.683  57.220 -52.774  1.00  0.00     0.253 C 
HETATM   22  N   UNL     1     -41.940  56.294 -51.760  1.00  0.00    -0.348 N 
HETATM   23  C   UNL     1     -41.432  56.584 -50.424  1.00  0.00     0.153 C 
HETATM   24  O   UNL     1     -40.938  58.187 -52.609  1.00  0.00    -0.267 OA
BRANCH  22  25
HETATM   25  C   UNL     1     -42.612  55.003 -51.921  1.00  0.00     0.164 C 
BRANCH  25  26
HETATM   26  C   UNL     1     -41.713  53.892 -52.439  1.00  0.00    -0.038 A 
HETATM   27  C   UNL     1     -40.796  53.204 -51.619  1.00  0.00     0.045 A 
HETATM   28  C   UNL     1     -40.011  52.164 -52.123  1.00  0.00     0.068 A 
HETATM   29  C   UNL     1     -40.110  51.829 -53.472  1.00  0.00     0.037 A 
HETATM   30  C   UNL     1     -40.997  52.509 -54.306  1.00  0.00     0.003 A 
HETATM   31  C   UNL     1     -41.797  53.531 -53.792  1.00  0.00     0.009 A 
BRANCH  28  32
HETATM   32  O   UNL     1     -39.119  51.417 -51.404  1.00  0.00    -0.356 OA
HETATM   33  C   UNL     1     -39.450  50.048 -51.199  1.00  0.00     0.210 C 
ENDBRANCH  28  32
ENDBRANCH  25  26
ENDBRANCH  22  25
ENDBRANCH   1  21
TORSDOF 7
ENDMDL
MODEL 6
REMARK VINA RESULT:      -7.9      5.558      9.318
REMARK  7 active torsions:
REMARK  status: ('A' for Active; 'I' for Inactive)
REMARK       I    between atoms: N_2  and  C_3 
REMARK    1  A    between atoms: N_2  and  C_24 
REMARK    2  A    between atoms: C_3  and  C_4 
REMARK    3  A    between atoms: C_7  and  N_8 
REMARK    4  A    between atoms: C_11  and  N_12 
REMARK       I    between atoms: N_12  and  C_13 
REMARK    5  A    between atoms: C_13  and  C_14 
REMARK    6  A    between atoms: C_24  and  C_25 
REMARK    7  A    between atoms: C_27  and  O_28 
ROOT
HETATM    1  C   UNL     1     -41.180  53.947 -53.683  1.00  0.00     0.032 A 
HETATM    2  C   UNL     1     -42.344  53.525 -54.337  1.00  0.00     0.019 A 
HETATM    3  C   UNL     1     -42.896  54.288 -55.365  1.00  0.00     0.032 A 
HETATM    4  C   UNL     1     -42.279  55.481 -55.770  1.00  0.00     0.058 A 
HETATM    5  C   UNL     1     -41.147  55.937 -55.079  1.00  0.00     0.032 A 
HETATM    6  C   UNL     1     -40.616  55.182 -54.019  1.00  0.00     0.019 A 
ENDROOT
BRANCH   4   7
HETATM    7  N   UNL     1     -42.803  56.171 -56.901  1.00  0.00    -0.243 N 
HETATM    8  N   UNL     1     -43.325  55.478 -57.944  1.00  0.00    -0.178 NA
HETATM    9  C   UNL     1     -43.573  56.398 -58.875  1.00  0.00     0.170 A 
HETATM   10  C   UNL     1     -43.225  57.695 -58.455  1.00  0.00     0.071 A 
HETATM   11  C   UNL     1     -42.795  57.530 -57.157  1.00  0.00     0.149 A 
BRANCH  10  12
HETATM   12  N   UNL     1     -43.241  58.904 -59.129  1.00  0.00    -0.324 N 
HETATM   13  C   UNL     1     -42.405  59.189 -60.198  1.00  0.00     0.228 C 
HETATM   14  O   UNL     1     -41.629  58.393 -60.718  1.00  0.00    -0.273 OA
HETATM   15  H   UNL     1     -43.828  59.633 -58.747  1.00  0.00     0.169 HD
BRANCH  13  16
HETATM   16  C   UNL     1     -42.472  60.641 -60.628  1.00  0.00     0.104 C 
HETATM   17  C   UNL     1     -41.575  61.543 -59.798  1.00  0.00     0.181 C 
HETATM   18  O   UNL     1     -41.242  62.670 -60.624  1.00  0.00    -0.390 OA
HETATM   19  C   UNL     1     -41.619  62.376 -61.972  1.00  0.00     0.168 C 
HETATM   20  C   UNL     1     -41.954  60.901 -62.025  1.00  0.00     0.042 C 
ENDBRANCH  13  16
ENDBRANCH  10  12
ENDBRANCH   4   7
BRANCH   1  21
HETATM   21  C   UNL     1     -40.657  53.042 -52.629  1.00  0.00     0.253 C 
HETATM   22  N   UNL     1     -41.079  53.159 -51.303  1.00  0.00    -0.348 N 
HETATM   23  C   UNL     1     -40.320  52.448 -50.279  1.00  0.00     0.153 C 
HETATM   24  O   UNL     1     -39.767  52.263 -52.971  1.00  0.00    -0.267 OA
BRANCH  22  25
HETATM   25  C   UNL     1     -42.270  53.871 -50.836  1.00  0.00     0.164 C 
BRANCH  25  26
HETATM   26  C   UNL     1     -42.170  55.384 -50.933  1.00  0.00    -0.038 A 
HETATM   27  C   UNL     1     -43.190  56.186 -51.482  1.00  0.00     0.045 A 
HETATM   28  C   UNL     1     -43.077  57.577 -51.521  1.00  0.00     0.068 A 
HETATM   29  C   UNL     1     -41.915  58.179 -51.044  1.00  0.00     0.037 A 
HETATM   30  C   UNL     1     -40.884  57.405 -50.514  1.00  0.00     0.003 A 
HETATM   31  C   UNL     1     -41.012  56.016 -50.454  1.00  0.00     0.009 A 
BRANCH  28  32
HETATM   32  O   UNL     1     -44.022  58.441 -52.003  1.00  0.00    -0.356 OA
HETATM   33  C   UNL     1     -45.222  58.564 -51.245  1.00  0.00     0.210 C 
ENDBRANCH  28  32
ENDBRANCH  25  26
ENDBRANCH  22  25
ENDBRANCH   1  21
TORSDOF 7
ENDMDL
MODEL 7
REMARK VINA RESULT:      -7.7      6.195      9.557
REMARK  7 active torsions:
REMARK  status: ('A' for Active; 'I' for Inactive)
REMARK       I    between atoms: N_2  and  C_3 
REMARK    1  A    between atoms: N_2  and  C_24 
REMARK    2  A    between atoms: C_3  and  C_4 
REMARK    3  A    between atoms: C_7  and  N_8 
REMARK    4  A    between atoms: C_11  and  N_12 
REMARK       I    between atoms: N_12  and  C_13 
REMARK    5  A    between atoms: C_13  and  C_14 
REMARK    6  A    between atoms: C_24  and  C_25 
REMARK    7  A    between atoms: C_27  and  O_28 
ROOT
HETATM    1  C   UNL     1     -41.272  57.857 -53.955  1.00  0.00     0.032 A 
HETATM    2  C   UNL     1     -41.979  58.788 -54.725  1.00  0.00     0.019 A 
HETATM    3  C   UNL     1     -42.613  58.397 -55.905  1.00  0.00     0.032 A 
HETATM    4  C   UNL     1     -42.565  57.060 -56.323  1.00  0.00     0.058 A 
HETATM    5  C   UNL     1     -41.810  56.136 -55.586  1.00  0.00     0.032 A 
HETATM    6  C   UNL     1     -41.143  56.543 -54.418  1.00  0.00     0.019 A 
ENDROOT
BRANCH   4   7
HETATM    7  N   UNL     1     -43.323  56.675 -57.466  1.00  0.00    -0.243 N 
HETATM    8  N   UNL     1     -43.121  55.466 -58.046  1.00  0.00    -0.178 NA
HETATM    9  C   UNL     1     -43.862  55.491 -59.154  1.00  0.00     0.170 A 
HETATM   10  C   UNL     1     -44.556  56.705 -59.309  1.00  0.00     0.071 A 
HETATM   11  C   UNL     1     -44.244  57.424 -58.176  1.00  0.00     0.149 A 
BRANCH  10  12
HETATM   12  N   UNL     1     -45.354  57.171 -60.340  1.00  0.00    -0.324 N 
HETATM   13  C   UNL     1     -46.712  57.409 -60.200  1.00  0.00     0.228 C 
HETATM   14  O   UNL     1     -47.340  57.319 -59.150  1.00  0.00    -0.273 OA
HETATM   15  H   UNL     1     -44.926  57.243 -61.253  1.00  0.00     0.169 HD
BRANCH  13  16
HETATM   16  C   UNL     1     -47.396  57.716 -61.518  1.00  0.00     0.104 C 
HETATM   17  C   UNL     1     -48.348  56.617 -61.958  1.00  0.00     0.181 C 
HETATM   18  O   UNL     1     -49.337  57.237 -62.796  1.00  0.00    -0.390 OA
HETATM   19  C   UNL     1     -49.230  58.657 -62.655  1.00  0.00     0.168 C 
HETATM   20  C   UNL     1     -48.315  58.916 -61.479  1.00  0.00     0.042 C 
ENDBRANCH  13  16
ENDBRANCH  10  12
ENDBRANCH   4   7
BRANCH   1  21
HETATM   21  C   UNL     1     -40.667  58.370 -52.700  1.00  0.00     0.253 C 
HETATM   22  N   UNL     1     -41.219  58.064 -51.454  1.00  0.00    -0.348 N 
HETATM   23  C   UNL     1     -40.763  58.827 -50.298  1.00  0.00     0.153 C 
HETATM   24  O   UNL     1     -39.726  59.153 -52.828  1.00  0.00    -0.267 OA
BRANCH  22  25
HETATM   25  C   UNL     1     -42.169  56.985 -51.173  1.00  0.00     0.164 C 
BRANCH  25  26
HETATM   26  C   UNL     1     -41.519  55.674 -50.761  1.00  0.00    -0.038 A 
HETATM   27  C   UNL     1     -41.118  54.693 -51.689  1.00  0.00     0.045 A 
HETATM   28  C   UNL     1     -40.492  53.516 -51.275  1.00  0.00     0.068 A 
HETATM   29  C   UNL     1     -40.297  53.292 -49.913  1.00  0.00     0.037 A 
HETATM   30  C   UNL     1     -40.703  54.240 -48.975  1.00  0.00     0.003 A 
HETATM   31  C   UNL     1     -41.306  55.426 -49.396  1.00  0.00     0.009 A 
BRANCH  28  32
HETATM   32  O   UNL     1     -40.038  52.521 -52.097  1.00  0.00    -0.356 OA
HETATM   33  C   UNL     1     -39.568  51.334 -51.467  1.00  0.00     0.210 C 
ENDBRANCH  28  32
ENDBRANCH  25  26
ENDBRANCH  22  25
ENDBRANCH   1  21
TORSDOF 7
ENDMDL
MODEL 8
REMARK VINA RESULT:      -7.7      3.993      6.362
REMARK  7 active torsions:
REMARK  status: ('A' for Active; 'I' for Inactive)
REMARK       I    between atoms: N_2  and  C_3 
REMARK    1  A    between atoms: N_2  and  C_24 
REMARK    2  A    between atoms: C_3  and  C_4 
REMARK    3  A    between atoms: C_7  and  N_8 
REMARK    4  A    between atoms: C_11  and  N_12 
REMARK       I    between atoms: N_12  and  C_13 
REMARK    5  A    between atoms: C_13  and  C_14 
REMARK    6  A    between atoms: C_24  and  C_25 
REMARK    7  A    between atoms: C_27  and  O_28 
ROOT
HETATM    1  C   UNL     1     -43.351  60.443 -53.612  1.00  0.00     0.032 A 
HETATM    2  C   UNL     1     -42.107  59.811 -53.726  1.00  0.00     0.019 A 
HETATM    3  C   UNL     1     -41.951  58.479 -53.342  1.00  0.00     0.032 A 
HETATM    4  C   UNL     1     -43.045  57.752 -52.854  1.00  0.00     0.058 A 
HETATM    5  C   UNL     1     -44.279  58.397 -52.683  1.00  0.00     0.032 A 
HETATM    6  C   UNL     1     -44.421  59.749 -53.038  1.00  0.00     0.019 A 
ENDROOT
BRANCH   4   7
HETATM    7  N   UNL     1     -42.876  56.363 -52.586  1.00  0.00    -0.243 N 
HETATM    8  N   UNL     1     -43.352  55.824 -51.435  1.00  0.00    -0.178 NA
HETATM    9  C   UNL     1     -42.897  54.571 -51.431  1.00  0.00     0.170 A 
HETATM   10  C   UNL     1     -42.128  54.275 -52.571  1.00  0.00     0.071 A 
HETATM   11  C   UNL     1     -42.185  55.423 -53.330  1.00  0.00     0.149 A 
BRANCH  10  12
HETATM   12  N   UNL     1     -41.413  53.140 -52.916  1.00  0.00    -0.324 N 
HETATM   13  C   UNL     1     -40.235  52.765 -52.289  1.00  0.00     0.228 C 
HETATM   14  O   UNL     1     -39.739  53.332 -51.320  1.00  0.00    -0.273 OA
HETATM   15  H   UNL     1     -41.731  52.629 -53.727  1.00  0.00     0.169 HD
BRANCH  13  16
HETATM   16  C   UNL     1     -39.542  51.608 -52.980  1.00  0.00     0.104 C 
HETATM   17  C   UNL     1     -39.668  50.303 -52.212  1.00  0.00     0.181 C 
HETATM   18  O   UNL     1     -39.557  49.243 -53.176  1.00  0.00    -0.390 OA
HETATM   19  C   UNL     1     -39.672  49.803 -54.487  1.00  0.00     0.168 C 
HETATM   20  C   UNL     1     -40.141  51.232 -54.317  1.00  0.00     0.042 C 
ENDBRANCH  13  16
ENDBRANCH  10  12
ENDBRANCH   4   7
BRANCH   1  21
HETATM   21  C   UNL     1     -43.416  61.850 -54.084  1.00  0.00     0.253 C 
HETATM   22  N   UNL     1     -43.825  62.157 -55.384  1.00  0.00    -0.348 N 
HETATM   23  C   UNL     1     -43.589  63.510 -55.872  1.00  0.00     0.153 C 
HETATM   24  O   UNL     1     -42.997  62.706 -53.306  1.00  0.00    -0.267 OA
BRANCH  22  25
HETATM   25  C   UNL     1     -44.549  61.267 -56.294  1.00  0.00     0.164 C 
BRANCH  25  26
HETATM   26  C   UNL     1     -43.686  60.190 -56.931  1.00  0.00    -0.038 A 
HETATM   27  C   UNL     1     -44.026  58.823 -56.909  1.00  0.00     0.045 A 
HETATM   28  C   UNL     1     -43.225  57.867 -57.537  1.00  0.00     0.068 A 
HETATM   29  C   UNL     1     -42.046  58.270 -58.162  1.00  0.00     0.037 A 
HETATM   30  C   UNL     1     -41.680  59.616 -58.180  1.00  0.00     0.003 A 
HETATM   31  C   UNL     1     -42.497  60.571 -57.572  1.00  0.00     0.009 A 
BRANCH  28  32
HETATM   32  O   UNL     1     -43.484  56.525 -57.599  1.00  0.00    -0.356 OA
HETATM   33  C   UNL     1     -43.378  55.911 -58.879  1.00  0.00     0.210 C 
ENDBRANCH  28  32
ENDBRANCH  25  26
ENDBRANCH  22  25
ENDBRANCH   1  21
TORSDOF 7
ENDMDL
MODEL 9
REMARK VINA RESULT:      -7.7      5.683     10.444
REMARK  7 active torsions:
REMARK  status: ('A' for Active; 'I' for Inactive)
REMARK       I    between atoms: N_2  and  C_3 
REMARK    1  A    between atoms: N_2  and  C_24 
REMARK    2  A    between atoms: C_3  and  C_4 
REMARK    3  A    between atoms: C_7  and  N_8 
REMARK    4  A    between atoms: C_11  and  N_12 
REMARK       I    between atoms: N_12  and  C_13 
REMARK    5  A    between atoms: C_13  and  C_14 
REMARK    6  A    between atoms: C_24  and  C_25 
REMARK    7  A    between atoms: C_27  and  O_28 
ROOT
HETATM    1  C   UNL     1     -42.875  55.576 -52.957  1.00  0.00     0.032 A 
HETATM    2  C   UNL     1     -42.251  56.725 -53.458  1.00  0.00     0.019 A 
HETATM    3  C   UNL     1     -42.268  57.003 -54.825  1.00  0.00     0.032 A 
HETATM    4  C   UNL     1     -42.930  56.142 -55.712  1.00  0.00     0.058 A 
HETATM    5  C   UNL     1     -43.506  54.961 -55.223  1.00  0.00     0.032 A 
HETATM    6  C   UNL     1     -43.453  54.667 -53.850  1.00  0.00     0.019 A 
ENDROOT
BRANCH   4   7
HETATM    7  N   UNL     1     -43.029  56.520 -57.082  1.00  0.00    -0.243 N 
HETATM    8  N   UNL     1     -43.146  55.574 -58.047  1.00  0.00    -0.178 NA
HETATM    9  C   UNL     1     -43.060  56.245 -59.196  1.00  0.00     0.170 A 
HETATM   10  C   UNL     1     -42.891  57.628 -58.998  1.00  0.00     0.071 A 
HETATM   11  C   UNL     1     -42.942  57.787 -57.631  1.00  0.00     0.149 A 
BRANCH  10  12
HETATM   12  N   UNL     1     -42.679  58.656 -59.901  1.00  0.00    -0.324 N 
HETATM   13  C   UNL     1     -43.708  59.365 -60.500  1.00  0.00     0.228 C 
HETATM   14  O   UNL     1     -44.901  59.229 -60.245  1.00  0.00    -0.273 OA
HETATM   15  H   UNL     1     -41.725  58.816 -60.195  1.00  0.00     0.169 HD
BRANCH  13  16
HETATM   16  C   UNL     1     -43.224  60.294 -61.596  1.00  0.00     0.104 C 
HETATM   17  C   UNL     1     -44.044  61.570 -61.692  1.00  0.00     0.181 C 
HETATM   18  O   UNL     1     -43.186  62.571 -62.262  1.00  0.00    -0.390 OA
HETATM   19  C   UNL     1     -41.841  62.087 -62.241  1.00  0.00     0.168 C 
HETATM   20  C   UNL     1     -41.833  60.844 -61.378  1.00  0.00     0.042 C 
ENDBRANCH  13  16
ENDBRANCH  10  12
ENDBRANCH   4   7
BRANCH   1  21
HETATM   21  C   UNL     1     -42.828  55.395 -51.484  1.00  0.00     0.253 C 
HETATM   22  N   UNL     1     -41.712  54.832 -50.861  1.00  0.00    -0.348 N 
HETATM   23  C   UNL     1     -41.844  54.416 -49.470  1.00  0.00     0.153 C 
HETATM   24  O   UNL     1     -43.857  55.673 -50.867  1.00  0.00    -0.267 OA
BRANCH  22  25
HETATM   25  C   UNL     1     -40.379  54.685 -51.448  1.00  0.00     0.164 C 
BRANCH  25  26
HETATM   26  C   UNL     1     -40.193  53.417 -52.264  1.00  0.00    -0.038 A 
HETATM   27  C   UNL     1     -39.868  52.174 -51.685  1.00  0.00     0.045 A 
HETATM   28  C   UNL     1     -39.740  51.022 -52.464  1.00  0.00     0.068 A 
HETATM   29  C   UNL     1     -39.898  51.114 -53.845  1.00  0.00     0.037 A 
HETATM   30  C   UNL     1     -40.201  52.337 -54.443  1.00  0.00     0.003 A 
HETATM   31  C   UNL     1     -40.352  53.481 -53.657  1.00  0.00     0.009 A 
BRANCH  28  32
HETATM   32  O   UNL     1     -39.461  49.768 -51.994  1.00  0.00    -0.356 OA
HETATM   33  C   UNL     1     -39.751  49.519 -50.622  1.00  0.00     0.210 C 
ENDBRANCH  28  32
ENDBRANCH  25  26
ENDBRANCH  22  25
ENDBRANCH   1  21
TORSDOF 7
ENDMDL
MODEL 10
REMARK VINA RESULT:      -7.5     17.927     20.811
REMARK  7 active torsions:
REMARK  status: ('A' for Active; 'I' for Inactive)
REMARK       I    between atoms: N_2  and  C_3 
REMARK    1  A    between atoms: N_2  and  C_24 
REMARK    2  A    between atoms: C_3  and  C_4 
REMARK    3  A    between atoms: C_7  and  N_8 
REMARK    4  A    between atoms: C_11  and  N_12 
REMARK       I    between atoms: N_12  and  C_13 
REMARK    5  A    between atoms: C_13  and  C_14 
REMARK    6  A    between atoms: C_24  and  C_25 
REMARK    7  A    between atoms: C_27  and  O_28 
ROOT
HETATM    1  C   UNL     1     -32.510  39.690 -50.431  1.00  0.00     0.032 A 
HETATM    2  C   UNL     1     -33.464  40.690 -50.208  1.00  0.00     0.019 A 
HETATM    3  C   UNL     1     -34.171  41.246 -51.274  1.00  0.00     0.032 A 
HETATM    4  C   UNL     1     -33.946  40.794 -52.583  1.00  0.00     0.058 A 
HETATM    5  C   UNL     1     -32.951  39.834 -52.817  1.00  0.00     0.032 A 
HETATM    6  C   UNL     1     -32.217  39.304 -51.743  1.00  0.00     0.019 A 
ENDROOT
BRANCH   4   7
HETATM    7  N   UNL     1     -34.771  41.299 -53.630  1.00  0.00    -0.243 N 
HETATM    8  N   UNL     1     -35.579  42.366 -53.410  1.00  0.00    -0.178 NA
HETATM    9  C   UNL     1     -36.309  42.475 -54.520  1.00  0.00     0.170 A 
HETATM   10  C   UNL     1     -35.985  41.493 -55.474  1.00  0.00     0.071 A 
HETATM   11  C   UNL     1     -34.947  40.791 -54.904  1.00  0.00     0.149 A 
BRANCH  10  12
HETATM   12  N   UNL     1     -36.548  41.201 -56.705  1.00  0.00    -0.324 N 
HETATM   13  C   UNL     1     -37.899  40.943 -56.880  1.00  0.00     0.228 C 
HETATM   14  O   UNL     1     -38.753  41.024 -56.002  1.00  0.00    -0.273 OA
HETATM   15  H   UNL     1     -35.913  41.081 -57.482  1.00  0.00     0.169 HD
BRANCH  13  16
HETATM   16  C   UNL     1     -38.229  40.452 -58.276  1.00  0.00     0.104 C 
HETATM   17  C   UNL     1     -37.461  41.192 -59.358  1.00  0.00     0.181 C 
HETATM   18  O   UNL     1     -37.361  40.299 -60.479  1.00  0.00    -0.390 OA
HETATM   19  C   UNL     1     -37.743  38.987 -60.054  1.00  0.00     0.168 C 
HETATM   20  C   UNL     1     -37.826  39.019 -58.544  1.00  0.00     0.042 C 
ENDBRANCH  13  16
ENDBRANCH  10  12
ENDBRANCH   4   7
BRANCH   1  21
HETATM   21  C   UNL     1     -31.843  39.141 -49.223  1.00  0.00     0.253 C 
HETATM   22  N   UNL     1     -32.382  38.054 -48.532  1.00  0.00    -0.348 N 
HETATM   23  C   UNL     1     -31.851  37.755 -47.207  1.00  0.00     0.153 C 
HETATM   24  O   UNL     1     -30.858  39.758 -48.816  1.00  0.00    -0.267 OA
BRANCH  22  25
HETATM   25  C   UNL     1     -33.390  37.122 -49.040  1.00  0.00     0.164 C 
BRANCH  25  26
HETATM   26  C   UNL     1     -34.789  37.706 -49.135  1.00  0.00    -0.038 A 
HETATM   27  C   UNL     1     -35.490  37.824 -50.352  1.00  0.00     0.045 A 
HETATM   28  C   UNL     1     -36.789  38.335 -50.394  1.00  0.00     0.068 A 
HETATM   29  C   UNL     1     -37.388  38.771 -49.214  1.00  0.00     0.037 A 
HETATM   30  C   UNL     1     -36.706  38.682 -48.001  1.00  0.00     0.003 A 
HETATM   31  C   UNL     1     -35.417  38.149 -47.960  1.00  0.00     0.009 A 
BRANCH  28  32
HETATM   32  O   UNL     1     -37.561  38.459 -51.517  1.00  0.00    -0.356 OA
HETATM   33  C   UNL     1     -37.731  39.775 -52.034  1.00  0.00     0.210 C 
ENDBRANCH  28  32
ENDBRANCH  25  26
ENDBRANCH  22  25
ENDBRANCH   1  21
TORSDOF 7
ENDMDL
