MODEL 1
REMARK VINA RESULT:      -9.5      0.000      0.000
REMARK  8 active torsions:
REMARK  status: ('A' for Active; 'I' for Inactive)
REMARK    1  A    between atoms: C_6  and  S_7 
REMARK    2  A    between atoms: S_7  and  C_8 
REMARK    3  A    between atoms: C_8  and  C_9 
REMARK       I    between atoms: C_9  and  N_10 
REMARK    4  A    between atoms: N_10  and  C_11 
REMARK    5  A    between atoms: C_24  and  C_25 
REMARK    6  A    between atoms: C_25  and  C_26 
REMARK       I    between atoms: C_26  and  N_27 
REMARK    7  A    between atoms: N_27  and  C_28 
REMARK    8  A    between atoms: C_28  and  C_29 
ROOT
HETATM    1  C   UNL     1     -39.682  51.232 -53.768  1.00  0.00     0.001 A 
HETATM    2  C   UNL     1     -40.435  52.238 -54.372  1.00  0.00     0.018 A 
HETATM    3  C   UNL     1     -40.963  53.259 -53.579  1.00  0.00     0.039 A 
HETATM    4  C   UNL     1     -40.759  53.294 -52.192  1.00  0.00     0.073 A 
HETATM    5  N   UNL     1     -41.248  54.335 -51.381  1.00  0.00    -0.223 NA
HETATM    6  C   UNL     1     -41.949  55.263 -51.952  1.00  0.00     0.178 C 
HETATM    7  N   UNL     1     -42.296  55.239 -53.291  1.00  0.00    -0.241 N 
HETATM    8  C   UNL     1     -41.781  54.329 -54.152  1.00  0.00     0.147 C 
HETATM    9  N   UNL     1     -42.055  54.477 -55.412  1.00  0.00    -0.256 NA
HETATM   10  C   UNL     1     -43.172  56.024 -53.996  1.00  0.00     0.257 C 
HETATM   11  O   UNL     1     -44.050  56.751 -53.559  1.00  0.00    -0.270 OA
HETATM   12  C   UNL     1     -42.942  55.684 -55.459  1.00  0.00     0.211 C 
HETATM   13  C   UNL     1     -40.001  52.281 -51.606  1.00  0.00     0.032 A 
HETATM   14  C   UNL     1     -39.466  51.253 -52.389  1.00  0.00     0.002 A 
ENDROOT
BRANCH  12  15
HETATM   15  C   UNL     1     -42.243  56.828 -56.183  1.00  0.00     0.140 C 
BRANCH  15  16
HETATM   16  C   UNL     1     -42.747  56.858 -57.607  1.00  0.00     0.220 C 
HETATM   17  N   UNL     1     -43.795  56.001 -57.852  1.00  0.00    -0.357 N 
HETATM   18  H   UNL     1     -44.319  55.596 -57.089  1.00  0.00     0.162 HD
HETATM   19  O   UNL     1     -42.182  57.523 -58.471  1.00  0.00    -0.274 OA
BRANCH  17  20
HETATM   20  C   UNL     1     -44.148  55.597 -59.194  1.00  0.00     0.161 C 
BRANCH  20  21
HETATM   21  C   UNL     1     -45.325  56.356 -59.750  1.00  0.00    -0.038 A 
HETATM   22  C   UNL     1     -46.113  55.802 -60.773  1.00  0.00     0.048 A 
HETATM   23  C   UNL     1     -47.127  56.574 -61.302  1.00  0.00     0.105 A 
HETATM   24  C   UNL     1     -47.385  57.846 -60.847  1.00  0.00     0.105 A 
HETATM   25  O   UNL     1     -47.959  56.207 -62.314  1.00  0.00    -0.323 OA
HETATM   26  O   UNL     1     -48.410  58.439 -61.515  1.00  0.00    -0.323 OA
HETATM   27  C   UNL     1     -46.649  58.417 -59.835  1.00  0.00     0.040 A 
HETATM   28  C   UNL     1     -48.740  57.411 -62.472  1.00  0.00     0.352 A 
HETATM   29  C   UNL     1     -45.606  57.663 -59.288  1.00  0.00     0.012 A 
ENDBRANCH  20  21
ENDBRANCH  17  20
ENDBRANCH  15  16
ENDBRANCH  12  15
BRANCH   6  30
HETATM   30  S   UNL     1     -42.382  56.665 -51.015  1.00  0.00    -0.082 SA
BRANCH  30  31
HETATM   31  C   UNL     1     -40.788  57.516 -51.009  1.00  0.00     0.185 C 
BRANCH  31  32
HETATM   32  C   UNL     1     -40.853  58.704 -51.951  1.00  0.00     0.231 C 
HETATM   33  N   UNL     1     -42.148  59.026 -52.330  1.00  0.00    -0.327 N 
HETATM   34  H   UNL     1     -42.896  58.474 -51.927  1.00  0.00     0.169 HD
HETATM   35  O   UNL     1     -39.828  59.272 -52.315  1.00  0.00    -0.272 OA
BRANCH  33  36
HETATM   36  C   UNL     1     -42.549  60.065 -53.193  1.00  0.00     0.034 A 
HETATM   37  C   UNL     1     -42.558  59.963 -54.588  1.00  0.00     0.032 A 
HETATM   38  C   UNL     1     -42.968  61.042 -55.376  1.00  0.00     0.044 A 
HETATM   39  C   UNL     1     -43.377  62.220 -54.767  1.00  0.00     0.116 A 
HETATM   40  F   UNL     1     -43.776  63.252 -55.521  1.00  0.00    -0.206 F 
HETATM   41  C   UNL     1     -43.377  62.342 -53.384  1.00  0.00     0.044 A 
HETATM   42  C   UNL     1     -42.954  61.268 -52.597  1.00  0.00     0.032 A 
ENDBRANCH  33  36
ENDBRANCH  31  32
ENDBRANCH  30  31
ENDBRANCH   6  30
TORSDOF 8
ENDMDL
MODEL 2
REMARK VINA RESULT:      -9.4      2.678      6.466
REMARK  8 active torsions:
REMARK  status: ('A' for Active; 'I' for Inactive)
REMARK    1  A    between atoms: C_6  and  S_7 
REMARK    2  A    between atoms: S_7  and  C_8 
REMARK    3  A    between atoms: C_8  and  C_9 
REMARK       I    between atoms: C_9  and  N_10 
REMARK    4  A    between atoms: N_10  and  C_11 
REMARK    5  A    between atoms: C_24  and  C_25 
REMARK    6  A    between atoms: C_25  and  C_26 
REMARK       I    between atoms: C_26  and  N_27 
REMARK    7  A    between atoms: N_27  and  C_28 
REMARK    8  A    between atoms: C_28  and  C_29 
ROOT
HETATM    1  C   UNL     1     -43.792  62.863 -52.345  1.00  0.00     0.001 A 
HETATM    2  C   UNL     1     -43.498  61.770 -53.158  1.00  0.00     0.018 A 
HETATM    3  C   UNL     1     -42.863  60.659 -52.599  1.00  0.00     0.039 A 
HETATM    4  C   UNL     1     -42.511  60.619 -51.243  1.00  0.00     0.073 A 
HETATM    5  N   UNL     1     -41.907  59.493 -50.650  1.00  0.00    -0.223 NA
HETATM    6  C   UNL     1     -41.635  58.484 -51.417  1.00  0.00     0.178 C 
HETATM    7  N   UNL     1     -41.841  58.491 -52.785  1.00  0.00    -0.241 N 
HETATM    8  C   UNL     1     -42.507  59.492 -53.408  1.00  0.00     0.147 C 
HETATM    9  N   UNL     1     -42.774  59.338 -54.668  1.00  0.00    -0.256 NA
HETATM   10  C   UNL     1     -41.440  57.600 -53.747  1.00  0.00     0.257 C 
HETATM   11  O   UNL     1     -40.583  56.736 -53.664  1.00  0.00    -0.270 OA
HETATM   12  C   UNL     1     -42.170  58.012 -55.015  1.00  0.00     0.211 C 
HETATM   13  C   UNL     1     -42.816  61.720 -50.443  1.00  0.00     0.032 A 
HETATM   14  C   UNL     1     -43.452  62.838 -50.991  1.00  0.00     0.002 A 
ENDROOT
BRANCH  12  15
HETATM   15  C   UNL     1     -43.262  57.008 -55.367  1.00  0.00     0.140 C 
BRANCH  15  16
HETATM   16  C   UNL     1     -42.809  56.230 -56.582  1.00  0.00     0.220 C 
HETATM   17  N   UNL     1     -42.414  57.017 -57.639  1.00  0.00    -0.357 N 
HETATM   18  H   UNL     1     -42.214  57.999 -57.506  1.00  0.00     0.162 HD
HETATM   19  O   UNL     1     -42.896  55.007 -56.626  1.00  0.00    -0.274 OA
BRANCH  17  20
HETATM   20  C   UNL     1     -42.329  56.495 -58.984  1.00  0.00     0.161 C 
BRANCH  20  21
HETATM   21  C   UNL     1     -43.667  56.401 -59.668  1.00  0.00    -0.038 A 
HETATM   22  C   UNL     1     -44.445  57.553 -59.876  1.00  0.00     0.048 A 
HETATM   23  C   UNL     1     -45.699  57.398 -60.432  1.00  0.00     0.105 A 
HETATM   24  C   UNL     1     -46.188  56.164 -60.793  1.00  0.00     0.105 A 
HETATM   25  O   UNL     1     -46.591  58.398 -60.669  1.00  0.00    -0.323 OA
HETATM   26  O   UNL     1     -47.446  56.232 -61.301  1.00  0.00    -0.323 OA
HETATM   27  C   UNL     1     -45.450  55.015 -60.623  1.00  0.00     0.040 A 
HETATM   28  C   UNL     1     -47.711  57.644 -61.180  1.00  0.00     0.352 A 
HETATM   29  C   UNL     1     -44.180  55.139 -60.051  1.00  0.00     0.012 A 
ENDBRANCH  20  21
ENDBRANCH  17  20
ENDBRANCH  15  16
ENDBRANCH  12  15
BRANCH   6  30
HETATM   30  S   UNL     1     -41.088  57.008 -50.674  1.00  0.00    -0.082 SA
BRANCH  30  31
HETATM   31  C   UNL     1     -42.645  56.091 -50.664  1.00  0.00     0.185 C 
BRANCH  31  32
HETATM   32  C   UNL     1     -42.452  54.772 -51.391  1.00  0.00     0.231 C 
HETATM   33  N   UNL     1     -41.121  54.485 -51.651  1.00  0.00    -0.327 N 
HETATM   34  H   UNL     1     -40.432  55.146 -51.310  1.00  0.00     0.169 HD
HETATM   35  O   UNL     1     -43.418  54.082 -51.703  1.00  0.00    -0.272 OA
BRANCH  33  36
HETATM   36  C   UNL     1     -40.608  53.350 -52.309  1.00  0.00     0.034 A 
HETATM   37  C   UNL     1     -39.862  52.351 -51.676  1.00  0.00     0.032 A 
HETATM   38  C   UNL     1     -39.385  51.254 -52.401  1.00  0.00     0.044 A 
HETATM   39  C   UNL     1     -39.664  51.154 -53.756  1.00  0.00     0.116 A 
HETATM   40  F   UNL     1     -39.214  50.101 -54.450  1.00  0.00    -0.206 F 
HETATM   41  C   UNL     1     -40.404  52.134 -54.404  1.00  0.00     0.044 A 
HETATM   42  C   UNL     1     -40.868  53.237 -53.682  1.00  0.00     0.032 A 
ENDBRANCH  33  36
ENDBRANCH  31  32
ENDBRANCH  30  31
ENDBRANCH   6  30
TORSDOF 8
ENDMDL
MODEL 3
REMARK VINA RESULT:      -9.4      4.078      8.470
REMARK  8 active torsions:
REMARK  status: ('A' for Active; 'I' for Inactive)
REMARK    1  A    between atoms: C_6  and  S_7 
REMARK    2  A    between atoms: S_7  and  C_8 
REMARK    3  A    between atoms: C_8  and  C_9 
REMARK       I    between atoms: C_9  and  N_10 
REMARK    4  A    between atoms: N_10  and  C_11 
REMARK    5  A    between atoms: C_24  and  C_25 
REMARK    6  A    between atoms: C_25  and  C_26 
REMARK       I    between atoms: C_26  and  N_27 
REMARK    7  A    between atoms: N_27  and  C_28 
REMARK    8  A    between atoms: C_28  and  C_29 
ROOT
HETATM    1  C   UNL     1     -39.762  59.471 -50.090  1.00  0.00     0.001 A 
HETATM    2  C   UNL     1     -41.073  59.854 -50.368  1.00  0.00     0.018 A 
HETATM    3  C   UNL     1     -41.508  59.878 -51.694  1.00  0.00     0.039 A 
HETATM    4  C   UNL     1     -40.657  59.531 -52.753  1.00  0.00     0.073 A 
HETATM    5  N   UNL     1     -41.087  59.509 -54.094  1.00  0.00    -0.223 NA
HETATM    6  C   UNL     1     -42.306  59.871 -54.340  1.00  0.00     0.178 C 
HETATM    7  N   UNL     1     -43.171  60.341 -53.368  1.00  0.00    -0.241 N 
HETATM    8  C   UNL     1     -42.866  60.296 -52.049  1.00  0.00     0.147 C 
HETATM    9  N   UNL     1     -43.797  60.626 -51.208  1.00  0.00    -0.256 NA
HETATM   10  C   UNL     1     -44.403  60.932 -53.486  1.00  0.00     0.257 C 
HETATM   11  O   UNL     1     -44.909  61.426 -54.480  1.00  0.00    -0.270 OA
HETATM   12  C   UNL     1     -44.961  61.001 -52.074  1.00  0.00     0.211 C 
HETATM   13  C   UNL     1     -39.349  59.146 -52.458  1.00  0.00     0.032 A 
HETATM   14  C   UNL     1     -38.903  59.117 -51.133  1.00  0.00     0.002 A 
ENDROOT
BRANCH  12  15
HETATM   15  C   UNL     1     -46.101  60.007 -51.888  1.00  0.00     0.140 C 
BRANCH  15  16
HETATM   16  C   UNL     1     -45.661  58.972 -50.878  1.00  0.00     0.220 C 
HETATM   17  N   UNL     1     -45.043  57.874 -51.432  1.00  0.00    -0.357 N 
HETATM   18  H   UNL     1     -44.703  57.897 -52.383  1.00  0.00     0.162 HD
HETATM   19  O   UNL     1     -45.937  59.082 -49.688  1.00  0.00    -0.274 OA
BRANCH  17  20
HETATM   20  C   UNL     1     -44.910  56.631 -50.705  1.00  0.00     0.161 C 
BRANCH  20  21
HETATM   21  C   UNL     1     -43.563  55.981 -50.886  1.00  0.00    -0.038 A 
HETATM   22  C   UNL     1     -43.417  54.590 -50.751  1.00  0.00     0.048 A 
HETATM   23  C   UNL     1     -42.148  54.058 -50.844  1.00  0.00     0.105 A 
HETATM   24  C   UNL     1     -41.044  54.846 -51.076  1.00  0.00     0.105 A 
HETATM   25  O   UNL     1     -41.826  52.743 -50.706  1.00  0.00    -0.323 OA
HETATM   26  O   UNL     1     -39.891  54.127 -51.111  1.00  0.00    -0.323 OA
HETATM   27  C   UNL     1     -41.147  56.209 -51.231  1.00  0.00     0.040 A 
HETATM   28  C   UNL     1     -40.389  52.803 -50.833  1.00  0.00     0.352 A 
HETATM   29  C   UNL     1     -42.420  56.778 -51.130  1.00  0.00     0.012 A 
ENDBRANCH  20  21
ENDBRANCH  17  20
ENDBRANCH  15  16
ENDBRANCH  12  15
BRANCH   6  30
HETATM   30  S   UNL     1     -42.923  59.650 -55.953  1.00  0.00    -0.082 SA
BRANCH  30  31
HETATM   31  C   UNL     1     -44.073  58.291 -55.643  1.00  0.00     0.185 C 
BRANCH  31  32
HETATM   32  C   UNL     1     -43.368  56.972 -55.899  1.00  0.00     0.231 C 
HETATM   33  N   UNL     1     -42.756  56.454 -54.768  1.00  0.00    -0.327 N 
HETATM   34  H   UNL     1     -42.867  56.975 -53.905  1.00  0.00     0.169 HD
HETATM   35  O   UNL     1     -43.364  56.471 -57.020  1.00  0.00    -0.272 OA
BRANCH  33  36
HETATM   36  C   UNL     1     -42.021  55.256 -54.670  1.00  0.00     0.034 A 
HETATM   37  C   UNL     1     -42.592  54.011 -54.391  1.00  0.00     0.032 A 
HETATM   38  C   UNL     1     -41.792  52.866 -54.309  1.00  0.00     0.044 A 
HETATM   39  C   UNL     1     -40.424  52.969 -54.516  1.00  0.00     0.116 A 
HETATM   40  F   UNL     1     -39.659  51.872 -54.444  1.00  0.00    -0.206 F 
HETATM   41  C   UNL     1     -39.837  54.196 -54.796  1.00  0.00     0.044 A 
HETATM   42  C   UNL     1     -40.635  55.341 -54.864  1.00  0.00     0.032 A 
ENDBRANCH  33  36
ENDBRANCH  31  32
ENDBRANCH  30  31
ENDBRANCH   6  30
TORSDOF 8
ENDMDL
MODEL 4
REMARK VINA RESULT:      -9.3      2.426      3.790
REMARK  8 active torsions:
REMARK  status: ('A' for Active; 'I' for Inactive)
REMARK    1  A    between atoms: C_6  and  S_7 
REMARK    2  A    between atoms: S_7  and  C_8 
REMARK    3  A    between atoms: C_8  and  C_9 
REMARK       I    between atoms: C_9  and  N_10 
REMARK    4  A    between atoms: N_10  and  C_11 
REMARK    5  A    between atoms: C_24  and  C_25 
REMARK    6  A    between atoms: C_25  and  C_26 
REMARK       I    between atoms: C_26  and  N_27 
REMARK    7  A    between atoms: N_27  and  C_28 
REMARK    8  A    between atoms: C_28  and  C_29 
ROOT
HETATM    1  C   UNL     1     -39.578  51.089 -53.546  1.00  0.00     0.001 A 
HETATM    2  C   UNL     1     -40.324  52.083 -54.178  1.00  0.00     0.018 A 
HETATM    3  C   UNL     1     -40.851  53.126 -53.413  1.00  0.00     0.039 A 
HETATM    4  C   UNL     1     -40.652  53.195 -52.027  1.00  0.00     0.073 A 
HETATM    5  N   UNL     1     -41.139  54.259 -51.244  1.00  0.00    -0.223 NA
HETATM    6  C   UNL     1     -41.835  55.175 -51.841  1.00  0.00     0.178 C 
HETATM    7  N   UNL     1     -42.176  55.118 -53.181  1.00  0.00    -0.241 N 
HETATM    8  C   UNL     1     -41.663  54.184 -54.017  1.00  0.00     0.147 C 
HETATM    9  N   UNL     1     -41.932  54.300 -55.280  1.00  0.00    -0.256 NA
HETATM   10  C   UNL     1     -43.048  55.888 -53.908  1.00  0.00     0.257 C 
HETATM   11  O   UNL     1     -43.924  56.629 -53.494  1.00  0.00    -0.270 OA
HETATM   12  C   UNL     1     -42.814  55.509 -55.361  1.00  0.00     0.211 C 
HETATM   13  C   UNL     1     -39.899  52.194 -51.412  1.00  0.00     0.032 A 
HETATM   14  C   UNL     1     -39.366  51.145 -52.167  1.00  0.00     0.002 A 
ENDROOT
BRANCH  12  15
HETATM   15  C   UNL     1     -42.108  56.632 -56.112  1.00  0.00     0.140 C 
BRANCH  15  16
HETATM   16  C   UNL     1     -42.973  57.027 -57.286  1.00  0.00     0.220 C 
HETATM   17  N   UNL     1     -42.292  57.132 -58.477  1.00  0.00    -0.357 N 
HETATM   18  H   UNL     1     -41.368  56.736 -58.581  1.00  0.00     0.162 HD
HETATM   19  O   UNL     1     -44.155  57.322 -57.138  1.00  0.00    -0.274 OA
BRANCH  17  20
HETATM   20  C   UNL     1     -42.835  57.861 -59.601  1.00  0.00     0.161 C 
BRANCH  20  21
HETATM   21  C   UNL     1     -42.210  59.219 -59.784  1.00  0.00    -0.038 A 
HETATM   22  C   UNL     1     -41.694  59.922 -58.682  1.00  0.00     0.048 A 
HETATM   23  C   UNL     1     -41.208  61.196 -58.893  1.00  0.00     0.105 A 
HETATM   24  C   UNL     1     -41.205  61.776 -60.141  1.00  0.00     0.105 A 
HETATM   25  O   UNL     1     -40.705  62.023 -57.937  1.00  0.00    -0.323 OA
HETATM   26  O   UNL     1     -40.703  63.039 -60.126  1.00  0.00    -0.323 OA
HETATM   27  C   UNL     1     -41.684  61.114 -61.248  1.00  0.00     0.040 A 
HETATM   28  C   UNL     1     -40.429  63.204 -58.720  1.00  0.00     0.352 A 
HETATM   29  C   UNL     1     -42.195  59.826 -61.062  1.00  0.00     0.012 A 
ENDBRANCH  20  21
ENDBRANCH  17  20
ENDBRANCH  15  16
ENDBRANCH  12  15
BRANCH   6  30
HETATM   30  S   UNL     1     -42.264  56.602 -50.942  1.00  0.00    -0.082 SA
BRANCH  30  31
HETATM   31  C   UNL     1     -40.677  57.464 -50.984  1.00  0.00     0.185 C 
BRANCH  31  32
HETATM   32  C   UNL     1     -40.770  58.634 -51.946  1.00  0.00     0.231 C 
HETATM   33  N   UNL     1     -42.076  58.991 -52.242  1.00  0.00    -0.327 N 
HETATM   34  H   UNL     1     -42.812  58.473 -51.775  1.00  0.00     0.169 HD
HETATM   35  O   UNL     1     -39.754  59.160 -52.393  1.00  0.00    -0.272 OA
BRANCH  33  36
HETATM   36  C   UNL     1     -42.503  60.026 -53.098  1.00  0.00     0.034 A 
HETATM   37  C   UNL     1     -42.931  61.280 -52.654  1.00  0.00     0.032 A 
HETATM   38  C   UNL     1     -43.342  62.255 -53.569  1.00  0.00     0.044 A 
HETATM   39  C   UNL     1     -43.313  61.975 -54.928  1.00  0.00     0.116 A 
HETATM   40  F   UNL     1     -43.700  62.910 -55.805  1.00  0.00    -0.206 F 
HETATM   41  C   UNL     1     -42.890  60.736 -55.390  1.00  0.00     0.044 A 
HETATM   42  C   UNL     1     -42.494  59.758 -54.475  1.00  0.00     0.032 A 
ENDBRANCH  33  36
ENDBRANCH  31  32
ENDBRANCH  30  31
ENDBRANCH   6  30
TORSDOF 8
ENDMDL
MODEL 5
REMARK VINA RESULT:      -9.2      3.688      7.142
REMARK  8 active torsions:
REMARK  status: ('A' for Active; 'I' for Inactive)
REMARK    1  A    between atoms: C_6  and  S_7 
REMARK    2  A    between atoms: S_7  and  C_8 
REMARK    3  A    between atoms: C_8  and  C_9 
REMARK       I    between atoms: C_9  and  N_10 
REMARK    4  A    between atoms: N_10  and  C_11 
REMARK    5  A    between atoms: C_24  and  C_25 
REMARK    6  A    between atoms: C_25  and  C_26 
REMARK       I    between atoms: C_26  and  N_27 
REMARK    7  A    between atoms: N_27  and  C_28 
REMARK    8  A    between atoms: C_28  and  C_29 
ROOT
HETATM    1  C   UNL     1     -46.089  61.362 -53.775  1.00  0.00     0.001 A 
HETATM    2  C   UNL     1     -45.236  60.433 -54.369  1.00  0.00     0.018 A 
HETATM    3  C   UNL     1     -44.407  59.657 -53.558  1.00  0.00     0.039 A 
HETATM    4  C   UNL     1     -44.407  59.791 -52.163  1.00  0.00     0.073 A 
HETATM    5  N   UNL     1     -43.609  58.990 -51.324  1.00  0.00    -0.223 NA
HETATM    6  C   UNL     1     -42.817  58.133 -51.888  1.00  0.00     0.178 C 
HETATM    7  N   UNL     1     -42.670  58.021 -53.259  1.00  0.00    -0.241 N 
HETATM    8  C   UNL     1     -43.473  58.683 -54.126  1.00  0.00     0.147 C 
HETATM    9  N   UNL     1     -43.350  58.402 -55.387  1.00  0.00    -0.256 NA
HETATM   10  C   UNL     1     -41.756  57.315 -53.999  1.00  0.00     0.257 C 
HETATM   11  O   UNL     1     -40.697  56.836 -53.629  1.00  0.00    -0.270 OA
HETATM   12  C   UNL     1     -42.250  57.387 -55.435  1.00  0.00     0.211 C 
HETATM   13  C   UNL     1     -45.270  60.723 -51.584  1.00  0.00     0.032 A 
HETATM   14  C   UNL     1     -46.106  61.506 -52.386  1.00  0.00     0.002 A 
ENDROOT
BRANCH  12  15
HETATM   15  C   UNL     1     -42.792  56.038 -55.894  1.00  0.00     0.140 C 
BRANCH  15  16
HETATM   16  C   UNL     1     -42.835  56.040 -57.405  1.00  0.00     0.220 C 
HETATM   17  N   UNL     1     -42.184  57.105 -57.984  1.00  0.00    -0.357 N 
HETATM   18  H   UNL     1     -41.538  57.669 -57.450  1.00  0.00     0.162 HD
HETATM   19  O   UNL     1     -43.490  55.209 -58.026  1.00  0.00    -0.274 OA
BRANCH  17  20
HETATM   20  C   UNL     1     -42.439  57.498 -59.352  1.00  0.00     0.161 C 
BRANCH  20  21
HETATM   21  C   UNL     1     -42.076  58.932 -59.633  1.00  0.00    -0.038 A 
HETATM   22  C   UNL     1     -41.776  59.813 -58.579  1.00  0.00     0.048 A 
HETATM   23  C   UNL     1     -41.532  61.135 -58.888  1.00  0.00     0.105 A 
HETATM   24  C   UNL     1     -41.561  61.598 -60.183  1.00  0.00     0.105 A 
HETATM   25  O   UNL     1     -41.261  62.122 -57.991  1.00  0.00    -0.323 OA
HETATM   26  O   UNL     1     -41.313  62.932 -60.264  1.00  0.00    -0.323 OA
HETATM   27  C   UNL     1     -41.832  60.764 -61.243  1.00  0.00     0.040 A 
HETATM   28  C   UNL     1     -41.167  63.265 -58.869  1.00  0.00     0.352 A 
HETATM   29  C   UNL     1     -42.096  59.421 -60.961  1.00  0.00     0.012 A 
ENDBRANCH  20  21
ENDBRANCH  17  20
ENDBRANCH  15  16
ENDBRANCH  12  15
BRANCH   6  30
HETATM   30  S   UNL     1     -41.983  56.990 -50.874  1.00  0.00    -0.082 SA
BRANCH  30  31
HETATM   31  C   UNL     1     -43.307  55.781 -50.644  1.00  0.00     0.185 C 
BRANCH  31  32
HETATM   32  C   UNL     1     -42.902  54.469 -51.291  1.00  0.00     0.231 C 
HETATM   33  N   UNL     1     -41.572  54.444 -51.682  1.00  0.00    -0.327 N 
HETATM   34  H   UNL     1     -41.015  55.264 -51.472  1.00  0.00     0.169 HD
HETATM   35  O   UNL     1     -43.719  53.565 -51.437  1.00  0.00    -0.272 OA
BRANCH  33  36
HETATM   36  C   UNL     1     -40.890  53.383 -52.310  1.00  0.00     0.034 A 
HETATM   37  C   UNL     1     -40.079  52.467 -51.634  1.00  0.00     0.032 A 
HETATM   38  C   UNL     1     -39.433  51.441 -52.331  1.00  0.00     0.044 A 
HETATM   39  C   UNL     1     -39.607  51.329 -53.704  1.00  0.00     0.116 A 
HETATM   40  F   UNL     1     -38.994  50.344 -54.371  1.00  0.00    -0.206 F 
HETATM   41  C   UNL     1     -40.408  52.228 -54.394  1.00  0.00     0.044 A 
HETATM   42  C   UNL     1     -41.043  53.261 -53.699  1.00  0.00     0.032 A 
ENDBRANCH  33  36
ENDBRANCH  31  32
ENDBRANCH  30  31
ENDBRANCH   6  30
TORSDOF 8
ENDMDL
MODEL 6
REMARK VINA RESULT:      -9.1      1.935      2.410
REMARK  8 active torsions:
REMARK  status: ('A' for Active; 'I' for Inactive)
REMARK    1  A    between atoms: C_6  and  S_7 
REMARK    2  A    between atoms: S_7  and  C_8 
REMARK    3  A    between atoms: C_8  and  C_9 
REMARK       I    between atoms: C_9  and  N_10 
REMARK    4  A    between atoms: N_10  and  C_11 
REMARK    5  A    between atoms: C_24  and  C_25 
REMARK    6  A    between atoms: C_25  and  C_26 
REMARK       I    between atoms: C_26  and  N_27 
REMARK    7  A    between atoms: N_27  and  C_28 
REMARK    8  A    between atoms: C_28  and  C_29 
ROOT
HETATM    1  C   UNL     1     -39.869  51.074 -53.940  1.00  0.00     0.001 A 
HETATM    2  C   UNL     1     -40.782  52.063 -54.303  1.00  0.00     0.018 A 
HETATM    3  C   UNL     1     -41.077  53.081 -53.394  1.00  0.00     0.039 A 
HETATM    4  C   UNL     1     -40.481  53.131 -52.127  1.00  0.00     0.073 A 
HETATM    5  N   UNL     1     -40.733  54.172 -51.211  1.00  0.00    -0.223 NA
HETATM    6  C   UNL     1     -41.587  55.082 -51.558  1.00  0.00     0.178 C 
HETATM    7  N   UNL     1     -42.306  55.041 -52.739  1.00  0.00    -0.241 N 
HETATM    8  C   UNL     1     -42.046  54.132 -53.709  1.00  0.00     0.147 C 
HETATM    9  N   UNL     1     -42.676  54.265 -54.836  1.00  0.00    -0.256 NA
HETATM   10  C   UNL     1     -43.364  55.805 -53.162  1.00  0.00     0.257 C 
HETATM   11  O   UNL     1     -44.091  56.520 -52.492  1.00  0.00    -0.270 OA
HETATM   12  C   UNL     1     -43.561  55.456 -54.628  1.00  0.00     0.211 C 
HETATM   13  C   UNL     1     -39.566  52.136 -51.781  1.00  0.00     0.032 A 
HETATM   14  C   UNL     1     -39.262  51.112 -52.683  1.00  0.00     0.002 A 
ENDROOT
BRANCH  12  15
HETATM   15  C   UNL     1     -43.123  56.605 -55.527  1.00  0.00     0.140 C 
BRANCH  15  16
HETATM   16  C   UNL     1     -44.365  57.290 -56.050  1.00  0.00     0.220 C 
HETATM   17  N   UNL     1     -44.401  57.421 -57.419  1.00  0.00    -0.357 N 
HETATM   18  H   UNL     1     -43.778  56.884 -58.007  1.00  0.00     0.162 HD
HETATM   19  O   UNL     1     -45.200  57.768 -55.288  1.00  0.00    -0.274 OA
BRANCH  17  20
HETATM   20  C   UNL     1     -45.279  58.369 -58.069  1.00  0.00     0.161 C 
BRANCH  20  21
HETATM   21  C   UNL     1     -45.988  57.794 -59.266  1.00  0.00    -0.038 A 
HETATM   22  C   UNL     1     -46.923  58.562 -59.980  1.00  0.00     0.048 A 
HETATM   23  C   UNL     1     -47.604  57.959 -61.017  1.00  0.00     0.105 A 
HETATM   24  C   UNL     1     -47.381  56.648 -61.369  1.00  0.00     0.105 A 
HETATM   25  O   UNL     1     -48.562  58.545 -61.786  1.00  0.00    -0.323 OA
HETATM   26  O   UNL     1     -48.169  56.245 -62.401  1.00  0.00    -0.323 OA
HETATM   27  C   UNL     1     -46.461  55.867 -60.707  1.00  0.00     0.040 A 
HETATM   28  C   UNL     1     -48.944  57.439 -62.631  1.00  0.00     0.352 A 
HETATM   29  C   UNL     1     -45.764  56.449 -59.644  1.00  0.00     0.012 A 
ENDBRANCH  20  21
ENDBRANCH  17  20
ENDBRANCH  15  16
ENDBRANCH  12  15
BRANCH   6  30
HETATM   30  S   UNL     1     -41.756  56.485 -50.540  1.00  0.00    -0.082 SA
BRANCH  30  31
HETATM   31  C   UNL     1     -40.870  57.690 -51.554  1.00  0.00     0.185 C 
BRANCH  31  32
HETATM   32  C   UNL     1     -41.683  58.970 -51.633  1.00  0.00     0.231 C 
HETATM   33  N   UNL     1     -42.858  58.912 -50.898  1.00  0.00    -0.327 N 
HETATM   34  H   UNL     1     -43.032  58.063 -50.373  1.00  0.00     0.169 HD
HETATM   35  O   UNL     1     -41.294  59.919 -52.307  1.00  0.00    -0.272 OA
BRANCH  33  36
HETATM   36  C   UNL     1     -43.830  59.924 -50.767  1.00  0.00     0.034 A 
HETATM   37  C   UNL     1     -43.644  61.093 -50.023  1.00  0.00     0.032 A 
HETATM   38  C   UNL     1     -44.660  62.050 -49.939  1.00  0.00     0.044 A 
HETATM   39  C   UNL     1     -45.857  61.840 -50.610  1.00  0.00     0.116 A 
HETATM   40  F   UNL     1     -46.828  62.759 -50.536  1.00  0.00    -0.206 F 
HETATM   41  C   UNL     1     -46.062  60.686 -51.355  1.00  0.00     0.044 A 
HETATM   42  C   UNL     1     -45.051  59.724 -51.426  1.00  0.00     0.032 A 
ENDBRANCH  33  36
ENDBRANCH  31  32
ENDBRANCH  30  31
ENDBRANCH   6  30
TORSDOF 8
ENDMDL
MODEL 7
REMARK VINA RESULT:      -9.0      4.335      9.417
REMARK  8 active torsions:
REMARK  status: ('A' for Active; 'I' for Inactive)
REMARK    1  A    between atoms: C_6  and  S_7 
REMARK    2  A    between atoms: S_7  and  C_8 
REMARK    3  A    between atoms: C_8  and  C_9 
REMARK       I    between atoms: C_9  and  N_10 
REMARK    4  A    between atoms: N_10  and  C_11 
REMARK    5  A    between atoms: C_24  and  C_25 
REMARK    6  A    between atoms: C_25  and  C_26 
REMARK       I    between atoms: C_26  and  N_27 
REMARK    7  A    between atoms: N_27  and  C_28 
REMARK    8  A    between atoms: C_28  and  C_29 
ROOT
HETATM    1  C   UNL     1     -43.643  56.896 -57.915  1.00  0.00     0.001 A 
HETATM    2  C   UNL     1     -43.797  57.900 -56.960  1.00  0.00     0.018 A 
HETATM    3  C   UNL     1     -43.294  57.697 -55.674  1.00  0.00     0.039 A 
HETATM    4  C   UNL     1     -42.643  56.508 -55.318  1.00  0.00     0.073 A 
HETATM    5  N   UNL     1     -42.092  56.299 -54.039  1.00  0.00    -0.223 NA
HETATM    6  C   UNL     1     -42.245  57.236 -53.158  1.00  0.00     0.178 C 
HETATM    7  N   UNL     1     -42.977  58.387 -53.392  1.00  0.00    -0.241 N 
HETATM    8  C   UNL     1     -43.448  58.704 -54.622  1.00  0.00     0.147 C 
HETATM    9  N   UNL     1     -43.997  59.870 -54.769  1.00  0.00    -0.256 NA
HETATM   10  C   UNL     1     -43.388  59.369 -52.527  1.00  0.00     0.257 C 
HETATM   11  O   UNL     1     -43.438  59.326 -51.309  1.00  0.00    -0.270 OA
HETATM   12  C   UNL     1     -43.935  60.483 -53.404  1.00  0.00     0.211 C 
HETATM   13  C   UNL     1     -42.494  55.515 -56.287  1.00  0.00     0.032 A 
HETATM   14  C   UNL     1     -42.992  55.707 -57.579  1.00  0.00     0.002 A 
ENDROOT
BRANCH  12  15
HETATM   15  C   UNL     1     -43.000  61.687 -53.404  1.00  0.00     0.140 C 
BRANCH  15  16
HETATM   16  C   UNL     1     -43.658  62.792 -52.611  1.00  0.00     0.220 C 
HETATM   17  N   UNL     1     -43.760  62.532 -51.263  1.00  0.00    -0.357 N 
HETATM   18  H   UNL     1     -43.219  61.793 -50.837  1.00  0.00     0.162 HD
HETATM   19  O   UNL     1     -44.141  63.776 -53.164  1.00  0.00    -0.274 OA
BRANCH  17  20
HETATM   20  C   UNL     1     -44.684  63.257 -50.418  1.00  0.00     0.161 C 
BRANCH  20  21
HETATM   21  C   UNL     1     -44.953  62.566 -49.108  1.00  0.00    -0.038 A 
HETATM   22  C   UNL     1     -45.455  61.253 -49.082  1.00  0.00     0.048 A 
HETATM   23  C   UNL     1     -45.762  60.699 -47.857  1.00  0.00     0.105 A 
HETATM   24  C   UNL     1     -45.576  61.387 -46.680  1.00  0.00     0.105 A 
HETATM   25  O   UNL     1     -46.286  59.460 -47.654  1.00  0.00    -0.323 OA
HETATM   26  O   UNL     1     -45.960  60.668 -45.591  1.00  0.00    -0.323 OA
HETATM   27  C   UNL     1     -45.070  62.666 -46.661  1.00  0.00     0.040 A 
HETATM   28  C   UNL     1     -46.448  59.466 -46.220  1.00  0.00     0.352 A 
HETATM   29  C   UNL     1     -44.761  63.259 -47.889  1.00  0.00     0.012 A 
ENDBRANCH  20  21
ENDBRANCH  17  20
ENDBRANCH  15  16
ENDBRANCH  12  15
BRANCH   6  30
HETATM   30  S   UNL     1     -41.395  57.094 -51.646  1.00  0.00    -0.082 SA
BRANCH  30  31
HETATM   31  C   UNL     1     -42.504  55.950 -50.793  1.00  0.00     0.185 C 
BRANCH  31  32
HETATM   32  C   UNL     1     -42.346  54.564 -51.392  1.00  0.00     0.231 C 
HETATM   33  N   UNL     1     -41.036  54.269 -51.740  1.00  0.00    -0.327 N 
HETATM   34  H   UNL     1     -40.336  54.972 -51.535  1.00  0.00     0.169 HD
HETATM   35  O   UNL     1     -43.319  53.830 -51.539  1.00  0.00    -0.272 OA
BRANCH  33  36
HETATM   36  C   UNL     1     -40.558  53.076 -52.318  1.00  0.00     0.034 A 
HETATM   37  C   UNL     1     -39.883  52.079 -51.607  1.00  0.00     0.032 A 
HETATM   38  C   UNL     1     -39.436  50.924 -52.255  1.00  0.00     0.044 A 
HETATM   39  C   UNL     1     -39.675  50.763 -53.613  1.00  0.00     0.116 A 
HETATM   40  F   UNL     1     -39.254  49.653 -54.233  1.00  0.00    -0.206 F 
HETATM   41  C   UNL     1     -40.344  51.740 -54.337  1.00  0.00     0.044 A 
HETATM   42  C   UNL     1     -40.777  52.901 -53.692  1.00  0.00     0.032 A 
ENDBRANCH  33  36
ENDBRANCH  31  32
ENDBRANCH  30  31
ENDBRANCH   6  30
TORSDOF 8
ENDMDL
MODEL 8
REMARK VINA RESULT:      -9.0      3.534      8.204
REMARK  8 active torsions:
REMARK  status: ('A' for Active; 'I' for Inactive)
REMARK    1  A    between atoms: C_6  and  S_7 
REMARK    2  A    between atoms: S_7  and  C_8 
REMARK    3  A    between atoms: C_8  and  C_9 
REMARK       I    between atoms: C_9  and  N_10 
REMARK    4  A    between atoms: N_10  and  C_11 
REMARK    5  A    between atoms: C_24  and  C_25 
REMARK    6  A    between atoms: C_25  and  C_26 
REMARK       I    between atoms: C_26  and  N_27 
REMARK    7  A    between atoms: N_27  and  C_28 
REMARK    8  A    between atoms: C_28  and  C_29 
ROOT
HETATM    1  C   UNL     1     -43.310  55.528 -59.303  1.00  0.00     0.001 A 
HETATM    2  C   UNL     1     -43.078  55.477 -57.929  1.00  0.00     0.018 A 
HETATM    3  C   UNL     1     -43.318  56.615 -57.157  1.00  0.00     0.039 A 
HETATM    4  C   UNL     1     -43.781  57.808 -57.730  1.00  0.00     0.073 A 
HETATM    5  N   UNL     1     -44.069  58.955 -56.964  1.00  0.00    -0.223 NA
HETATM    6  C   UNL     1     -43.846  58.897 -55.689  1.00  0.00     0.178 C 
HETATM    7  N   UNL     1     -43.279  57.800 -55.065  1.00  0.00    -0.241 N 
HETATM    8  C   UNL     1     -43.070  56.630 -55.714  1.00  0.00     0.147 C 
HETATM    9  N   UNL     1     -42.667  55.618 -55.009  1.00  0.00    -0.256 NA
HETATM   10  C   UNL     1     -42.809  57.651 -53.785  1.00  0.00     0.257 C 
HETATM   11  O   UNL     1     -42.535  58.524 -52.977  1.00  0.00    -0.270 OA
HETATM   12  C   UNL     1     -42.536  56.165 -53.620  1.00  0.00     0.211 C 
HETATM   13  C   UNL     1     -44.012  57.841 -59.105  1.00  0.00     0.032 A 
HETATM   14  C   UNL     1     -43.776  56.707 -59.889  1.00  0.00     0.002 A 
ENDROOT
BRANCH  12  15
HETATM   15  C   UNL     1     -43.563  55.520 -52.697  1.00  0.00     0.140 C 
BRANCH  15  16
HETATM   16  C   UNL     1     -42.832  54.968 -51.495  1.00  0.00     0.220 C 
HETATM   17  N   UNL     1     -41.461  55.015 -51.601  1.00  0.00    -0.357 N 
HETATM   18  H   UNL     1     -41.016  55.591 -52.301  1.00  0.00     0.162 HD
HETATM   19  O   UNL     1     -43.436  54.438 -50.567  1.00  0.00    -0.274 OA
BRANCH  17  20
HETATM   20  C   UNL     1     -40.607  54.200 -50.765  1.00  0.00     0.161 C 
BRANCH  20  21
HETATM   21  C   UNL     1     -40.245  52.882 -51.396  1.00  0.00    -0.038 A 
HETATM   22  C   UNL     1     -40.219  52.742 -52.794  1.00  0.00     0.048 A 
HETATM   23  C   UNL     1     -39.963  51.492 -53.318  1.00  0.00     0.105 A 
HETATM   24  C   UNL     1     -39.721  50.402 -52.514  1.00  0.00     0.105 A 
HETATM   25  O   UNL     1     -39.934  51.176 -54.641  1.00  0.00    -0.323 OA
HETATM   26  O   UNL     1     -39.512  49.265 -53.229  1.00  0.00    -0.323 OA
HETATM   27  C   UNL     1     -39.719  50.501 -51.142  1.00  0.00     0.040 A 
HETATM   28  C   UNL     1     -39.691  49.754 -54.573  1.00  0.00     0.352 A 
HETATM   29  C   UNL     1     -39.988  51.754 -50.582  1.00  0.00     0.012 A 
ENDBRANCH  20  21
ENDBRANCH  17  20
ENDBRANCH  15  16
ENDBRANCH  12  15
BRANCH   6  30
HETATM   30  S   UNL     1     -44.390  60.219 -54.696  1.00  0.00    -0.082 SA
BRANCH  30  31
HETATM   31  C   UNL     1     -43.004  61.354 -54.934  1.00  0.00     0.185 C 
BRANCH  31  32
HETATM   32  C   UNL     1     -42.954  61.781 -56.390  1.00  0.00     0.231 C 
HETATM   33  N   UNL     1     -41.790  61.386 -57.032  1.00  0.00    -0.327 N 
HETATM   34  H   UNL     1     -41.129  60.841 -56.491  1.00  0.00     0.169 HD
HETATM   35  O   UNL     1     -43.875  62.423 -56.887  1.00  0.00    -0.272 OA
BRANCH  33  36
HETATM   36  C   UNL     1     -41.434  61.627 -58.374  1.00  0.00     0.034 A 
HETATM   37  C   UNL     1     -42.064  61.026 -59.468  1.00  0.00     0.032 A 
HETATM   38  C   UNL     1     -41.650  61.315 -60.772  1.00  0.00     0.044 A 
HETATM   39  C   UNL     1     -40.613  62.214 -60.979  1.00  0.00     0.116 A 
HETATM   40  F   UNL     1     -40.221  62.497 -62.227  1.00  0.00    -0.206 F 
HETATM   41  C   UNL     1     -39.975  62.822 -59.906  1.00  0.00     0.044 A 
HETATM   42  C   UNL     1     -40.380  62.522 -58.603  1.00  0.00     0.032 A 
ENDBRANCH  33  36
ENDBRANCH  31  32
ENDBRANCH  30  31
ENDBRANCH   6  30
TORSDOF 8
ENDMDL
MODEL 9
REMARK VINA RESULT:      -8.9      3.567      7.852
REMARK  8 active torsions:
REMARK  status: ('A' for Active; 'I' for Inactive)
REMARK    1  A    between atoms: C_6  and  S_7 
REMARK    2  A    between atoms: S_7  and  C_8 
REMARK    3  A    between atoms: C_8  and  C_9 
REMARK       I    between atoms: C_9  and  N_10 
REMARK    4  A    between atoms: N_10  and  C_11 
REMARK    5  A    between atoms: C_24  and  C_25 
REMARK    6  A    between atoms: C_25  and  C_26 
REMARK       I    between atoms: C_26  and  N_27 
REMARK    7  A    between atoms: N_27  and  C_28 
REMARK    8  A    between atoms: C_28  and  C_29 
ROOT
HETATM    1  C   UNL     1     -43.508  55.318 -59.111  1.00  0.00     0.001 A 
HETATM    2  C   UNL     1     -43.148  55.669 -57.811  1.00  0.00     0.018 A 
HETATM    3  C   UNL     1     -42.998  57.019 -57.488  1.00  0.00     0.039 A 
HETATM    4  C   UNL     1     -43.197  58.029 -58.440  1.00  0.00     0.073 A 
HETATM    5  N   UNL     1     -43.091  59.398 -58.126  1.00  0.00    -0.223 NA
HETATM    6  C   UNL     1     -42.752  59.712 -56.916  1.00  0.00     0.178 C 
HETATM    7  N   UNL     1     -42.423  58.776 -55.951  1.00  0.00    -0.241 N 
HETATM    8  C   UNL     1     -42.598  57.447 -56.147  1.00  0.00     0.147 C 
HETATM    9  N   UNL     1     -42.395  56.662 -55.134  1.00  0.00    -0.256 NA
HETATM   10  C   UNL     1     -41.870  58.940 -54.706  1.00  0.00     0.257 C 
HETATM   11  O   UNL     1     -41.292  59.919 -54.263  1.00  0.00    -0.270 OA
HETATM   12  C   UNL     1     -41.975  57.584 -54.030  1.00  0.00     0.211 C 
HETATM   13  C   UNL     1     -43.561  57.661 -59.735  1.00  0.00     0.032 A 
HETATM   14  C   UNL     1     -43.715  56.312 -60.070  1.00  0.00     0.002 A 
ENDROOT
BRANCH  12  15
HETATM   15  C   UNL     1     -43.026  57.603 -52.926  1.00  0.00     0.140 C 
BRANCH  15  16
HETATM   16  C   UNL     1     -42.559  56.687 -51.818  1.00  0.00     0.220 C 
HETATM   17  N   UNL     1     -41.299  56.169 -52.010  1.00  0.00    -0.357 N 
HETATM   18  H   UNL     1     -40.674  56.571 -52.694  1.00  0.00     0.162 HD
HETATM   19  O   UNL     1     -43.303  56.372 -50.894  1.00  0.00    -0.274 OA
BRANCH  17  20
HETATM   20  C   UNL     1     -40.842  54.999 -51.295  1.00  0.00     0.161 C 
BRANCH  20  21
HETATM   21  C   UNL     1     -40.637  53.802 -52.186  1.00  0.00    -0.038 A 
HETATM   22  C   UNL     1     -40.240  52.568 -51.645  1.00  0.00     0.048 A 
HETATM   23  C   UNL     1     -39.985  51.528 -52.515  1.00  0.00     0.105 A 
HETATM   24  C   UNL     1     -40.123  51.669 -53.877  1.00  0.00     0.105 A 
HETATM   25  O   UNL     1     -39.563  50.284 -52.164  1.00  0.00    -0.323 OA
HETATM   26  O   UNL     1     -39.804  50.533 -54.552  1.00  0.00    -0.323 OA
HETATM   27  C   UNL     1     -40.527  52.856 -54.445  1.00  0.00     0.040 A 
HETATM   28  C   UNL     1     -39.409  49.674 -53.464  1.00  0.00     0.352 A 
HETATM   29  C   UNL     1     -40.780  53.931 -53.588  1.00  0.00     0.012 A 
ENDBRANCH  20  21
ENDBRANCH  17  20
ENDBRANCH  15  16
ENDBRANCH  12  15
BRANCH   6  30
HETATM   30  S   UNL     1     -42.822  61.387 -56.447  1.00  0.00    -0.082 SA
BRANCH  30  31
HETATM   31  C   UNL     1     -44.575  61.499 -56.022  1.00  0.00     0.185 C 
BRANCH  31  32
HETATM   32  C   UNL     1     -44.710  61.934 -54.574  1.00  0.00     0.231 C 
HETATM   33  N   UNL     1     -44.369  60.936 -53.673  1.00  0.00    -0.327 N 
HETATM   34  H   UNL     1     -44.043  60.058 -54.060  1.00  0.00     0.169 HD
HETATM   35  O   UNL     1     -45.100  63.064 -54.293  1.00  0.00    -0.272 OA
BRANCH  33  36
HETATM   36  C   UNL     1     -44.390  61.016 -52.266  1.00  0.00     0.034 A 
HETATM   37  C   UNL     1     -45.542  60.845 -51.492  1.00  0.00     0.032 A 
HETATM   38  C   UNL     1     -45.480  60.943 -50.098  1.00  0.00     0.044 A 
HETATM   39  C   UNL     1     -44.264  61.202 -49.482  1.00  0.00     0.116 A 
HETATM   40  F   UNL     1     -44.203  61.289 -48.147  1.00  0.00    -0.206 F 
HETATM   41  C   UNL     1     -43.109  61.375 -50.232  1.00  0.00     0.044 A 
HETATM   42  C   UNL     1     -43.174  61.291 -51.625  1.00  0.00     0.032 A 
ENDBRANCH  33  36
ENDBRANCH  31  32
ENDBRANCH  30  31
ENDBRANCH   6  30
TORSDOF 8
ENDMDL
MODEL 10
REMARK VINA RESULT:      -8.9      3.148      6.795
REMARK  8 active torsions:
REMARK  status: ('A' for Active; 'I' for Inactive)
REMARK    1  A    between atoms: C_6  and  S_7 
REMARK    2  A    between atoms: S_7  and  C_8 
REMARK    3  A    between atoms: C_8  and  C_9 
REMARK       I    between atoms: C_9  and  N_10 
REMARK    4  A    between atoms: N_10  and  C_11 
REMARK    5  A    between atoms: C_24  and  C_25 
REMARK    6  A    between atoms: C_25  and  C_26 
REMARK       I    between atoms: C_26  and  N_27 
REMARK    7  A    between atoms: N_27  and  C_28 
REMARK    8  A    between atoms: C_28  and  C_29 
ROOT
HETATM    1  C   UNL     1     -43.797  60.914 -61.018  1.00  0.00     0.001 A 
HETATM    2  C   UNL     1     -43.646  59.539 -60.846  1.00  0.00     0.018 A 
HETATM    3  C   UNL     1     -43.665  59.011 -59.553  1.00  0.00     0.039 A 
HETATM    4  C   UNL     1     -43.828  59.829 -58.427  1.00  0.00     0.073 A 
HETATM    5  N   UNL     1     -43.891  59.313 -57.118  1.00  0.00    -0.223 NA
HETATM    6  C   UNL     1     -43.745  58.034 -56.969  1.00  0.00     0.178 C 
HETATM    7  N   UNL     1     -43.462  57.174 -58.015  1.00  0.00    -0.241 N 
HETATM    8  C   UNL     1     -43.486  57.579 -59.308  1.00  0.00     0.147 C 
HETATM    9  N   UNL     1     -43.348  56.668 -60.222  1.00  0.00    -0.256 NA
HETATM   10  C   UNL     1     -43.097  55.852 -58.004  1.00  0.00     0.257 C 
HETATM   11  O   UNL     1     -42.675  55.196 -57.066  1.00  0.00    -0.270 OA
HETATM   12  C   UNL     1     -43.165  55.396 -59.452  1.00  0.00     0.211 C 
HETATM   13  C   UNL     1     -43.982  61.202 -58.618  1.00  0.00     0.032 A 
HETATM   14  C   UNL     1     -43.965  61.743 -59.908  1.00  0.00     0.002 A 
ENDROOT
BRANCH  12  15
HETATM   15  C   UNL     1     -44.350  54.464 -59.676  1.00  0.00     0.140 C 
BRANCH  15  16
HETATM   16  C   UNL     1     -45.226  55.071 -60.749  1.00  0.00     0.220 C 
HETATM   17  N   UNL     1     -46.227  55.880 -60.265  1.00  0.00    -0.357 N 
HETATM   18  H   UNL     1     -46.203  56.222 -59.315  1.00  0.00     0.162 HD
HETATM   19  O   UNL     1     -45.094  54.765 -61.930  1.00  0.00    -0.274 OA
BRANCH  17  20
HETATM   20  C   UNL     1     -47.380  56.224 -61.068  1.00  0.00     0.161 C 
BRANCH  20  21
HETATM   21  C   UNL     1     -47.656  57.704 -61.103  1.00  0.00    -0.038 A 
HETATM   22  C   UNL     1     -48.343  58.277 -62.187  1.00  0.00     0.048 A 
HETATM   23  C   UNL     1     -48.495  59.648 -62.208  1.00  0.00     0.105 A 
HETATM   24  C   UNL     1     -48.011  60.450 -61.201  1.00  0.00     0.105 A 
HETATM   25  O   UNL     1     -49.102  60.364 -63.194  1.00  0.00    -0.323 OA
HETATM   26  O   UNL     1     -48.249  61.769 -61.426  1.00  0.00    -0.323 OA
HETATM   27  C   UNL     1     -47.349  59.926 -60.114  1.00  0.00     0.040 A 
HETATM   28  C   UNL     1     -48.902  61.710 -62.710  1.00  0.00     0.352 A 
HETATM   29  C   UNL     1     -47.169  58.540 -60.072  1.00  0.00     0.012 A 
ENDBRANCH  20  21
ENDBRANCH  17  20
ENDBRANCH  15  16
ENDBRANCH  12  15
BRANCH   6  30
HETATM   30  S   UNL     1     -44.030  57.349 -55.395  1.00  0.00    -0.082 SA
BRANCH  30  31
HETATM   31  C   UNL     1     -42.719  58.182 -54.471  1.00  0.00     0.185 C 
BRANCH  31  32
HETATM   32  C   UNL     1     -41.697  57.154 -54.019  1.00  0.00     0.231 C 
HETATM   33  N   UNL     1     -42.156  55.850 -54.125  1.00  0.00    -0.327 N 
HETATM   34  H   UNL     1     -43.083  55.718 -54.512  1.00  0.00     0.169 HD
HETATM   35  O   UNL     1     -40.598  57.506 -53.599  1.00  0.00    -0.272 OA
BRANCH  33  36
HETATM   36  C   UNL     1     -41.459  54.673 -53.786  1.00  0.00     0.034 A 
HETATM   37  C   UNL     1     -40.813  53.853 -54.716  1.00  0.00     0.032 A 
HETATM   38  C   UNL     1     -40.143  52.698 -54.300  1.00  0.00     0.044 A 
HETATM   39  C   UNL     1     -40.114  52.371 -52.951  1.00  0.00     0.116 A 
HETATM   40  F   UNL     1     -39.467  51.269 -52.551  1.00  0.00    -0.206 F 
HETATM   41  C   UNL     1     -40.748  53.171 -52.011  1.00  0.00     0.044 A 
HETATM   42  C   UNL     1     -41.428  54.318 -52.430  1.00  0.00     0.032 A 
ENDBRANCH  33  36
ENDBRANCH  31  32
ENDBRANCH  30  31
ENDBRANCH   6  30
TORSDOF 8
ENDMDL
