MODEL 1
REMARK VINA RESULT:      -8.2      0.000      0.000
REMARK  10 active torsions:
REMARK  status: ('A' for Active; 'I' for Inactive)
REMARK    1  A    between atoms: C_2  and  O_3 
REMARK    2  A    between atoms: O_3  and  C_4 
REMARK    3  A    between atoms: C_9  and  C_10 
REMARK    4  A    between atoms: C_10  and  O_11 
REMARK    5  A    between atoms: O_11  and  C_12 
REMARK    6  A    between atoms: C_12  and  C_13 
REMARK       I    between atoms: C_13  and  N_14 
REMARK    7  A    between atoms: N_14  and  C_15 
REMARK    8  A    between atoms: C_16  and  C_17 
REMARK       I    between atoms: C_17  and  N_18 
REMARK    9  A    between atoms: N_18  and  C_19 
REMARK   10  A    between atoms: C_19  and  C_20 
ROOT
HETATM    1  C   UNL     1     -44.298  57.448 -53.327  1.00  0.00     0.050 A 
HETATM    2  C   UNL     1     -43.757  58.136 -54.433  1.00  0.00     0.058 A 
HETATM    3  C   UNL     1     -43.900  59.528 -54.552  1.00  0.00     0.019 A 
HETATM    4  C   UNL     1     -44.615  60.243 -53.596  1.00  0.00     0.001 A 
HETATM    5  C   UNL     1     -45.191  59.569 -52.524  1.00  0.00     0.002 A 
HETATM    6  C   UNL     1     -45.033  58.185 -52.390  1.00  0.00     0.030 A 
ENDROOT
BRANCH   1   7
HETATM    7  N   UNL     1     -44.020  56.067 -53.149  1.00  0.00    -0.324 N 
HETATM    8  C   UNL     1     -43.003  55.507 -52.394  1.00  0.00     0.246 C 
HETATM    9  O   UNL     1     -42.296  56.106 -51.586  1.00  0.00    -0.271 OA
HETATM   10  H   UNL     1     -44.554  55.435 -53.743  1.00  0.00     0.169 HD
BRANCH   8  11
HETATM   11  C   UNL     1     -42.811  54.004 -52.640  1.00  0.00     0.282 C 
BRANCH  11  12
HETATM   12  O   UNL     1     -42.191  53.742 -53.898  1.00  0.00    -0.308 OA
BRANCH  12  13
HETATM   13  C   UNL     1     -40.843  53.635 -53.841  1.00  0.00     0.298 C 
HETATM   14  O   UNL     1     -40.060  54.526 -54.138  1.00  0.00    -0.259 OA
BRANCH  13  15
HETATM   15  C   UNL     1     -40.394  52.282 -53.450  1.00  0.00     0.092 A 
HETATM   16  C   UNL     1     -39.808  51.959 -52.228  1.00  0.00     0.180 A 
HETATM   17  N   UNL     1     -39.390  50.703 -51.918  1.00  0.00    -0.236 NA
HETATM   18  C   UNL     1     -39.548  49.743 -52.853  1.00  0.00     0.119 A 
HETATM   19  C   UNL     1     -40.105  49.968 -54.098  1.00  0.00     0.020 A 
HETATM   20  C   UNL     1     -40.532  51.259 -54.398  1.00  0.00     0.023 A 
BRANCH  16  21
HETATM   21  O   UNL     1     -39.592  52.956 -51.301  1.00  0.00    -0.334 OA
BRANCH  21  22
HETATM   22  C   UNL     1     -40.332  52.805 -50.090  1.00  0.00     0.173 C 
HETATM   23  C   UNL     1     -40.192  54.090 -49.294  1.00  0.00     0.034 C 
ENDBRANCH  21  22
ENDBRANCH  16  21
ENDBRANCH  13  15
ENDBRANCH  12  13
ENDBRANCH  11  12
ENDBRANCH   8  11
ENDBRANCH   1   7
BRANCH   2  24
HETATM   24  C   UNL     1     -43.076  57.451 -55.564  1.00  0.00     0.254 C 
HETATM   25  N   UNL     1     -43.646  57.656 -56.802  1.00  0.00    -0.349 N 
HETATM   26  H   UNL     1     -44.476  58.233 -56.873  1.00  0.00     0.163 HD
HETATM   27  O   UNL     1     -42.053  56.807 -55.377  1.00  0.00    -0.268 OA
BRANCH  25  28
HETATM   28  C   UNL     1     -43.122  57.047 -58.012  1.00  0.00     0.114 C 
HETATM   29  C   UNL     1     -42.125  57.993 -58.685  1.00  0.00     0.037 C 
BRANCH  28  30
HETATM   30  C   UNL     1     -44.274  56.620 -58.907  1.00  0.00    -0.036 A 
HETATM   31  C   UNL     1     -44.194  55.530 -59.786  1.00  0.00     0.009 A 
HETATM   32  C   UNL     1     -45.284  55.183 -60.591  1.00  0.00     0.001 A 
HETATM   33  C   UNL     1     -46.460  55.929 -60.538  1.00  0.00     0.000 A 
HETATM   34  C   UNL     1     -46.549  57.025 -59.686  1.00  0.00     0.001 A 
HETATM   35  C   UNL     1     -45.462  57.372 -58.883  1.00  0.00     0.009 A 
ENDBRANCH  28  30
ENDBRANCH  25  28
ENDBRANCH   2  24
TORSDOF 10
ENDMDL
MODEL 2
REMARK VINA RESULT:      -8.1      2.422      8.277
REMARK  10 active torsions:
REMARK  status: ('A' for Active; 'I' for Inactive)
REMARK    1  A    between atoms: C_2  and  O_3 
REMARK    2  A    between atoms: O_3  and  C_4 
REMARK    3  A    between atoms: C_9  and  C_10 
REMARK    4  A    between atoms: C_10  and  O_11 
REMARK    5  A    between atoms: O_11  and  C_12 
REMARK    6  A    between atoms: C_12  and  C_13 
REMARK       I    between atoms: C_13  and  N_14 
REMARK    7  A    between atoms: N_14  and  C_15 
REMARK    8  A    between atoms: C_16  and  C_17 
REMARK       I    between atoms: C_17  and  N_18 
REMARK    9  A    between atoms: N_18  and  C_19 
REMARK   10  A    between atoms: C_19  and  C_20 
ROOT
HETATM    1  C   UNL     1     -41.424  57.116 -52.823  1.00  0.00     0.050 A 
HETATM    2  C   UNL     1     -41.343  56.961 -51.423  1.00  0.00     0.058 A 
HETATM    3  C   UNL     1     -40.779  57.967 -50.621  1.00  0.00     0.019 A 
HETATM    4  C   UNL     1     -40.255  59.117 -51.205  1.00  0.00     0.001 A 
HETATM    5  C   UNL     1     -40.290  59.261 -52.587  1.00  0.00     0.002 A 
HETATM    6  C   UNL     1     -40.870  58.271 -53.389  1.00  0.00     0.030 A 
ENDROOT
BRANCH   1   7
HETATM    7  N   UNL     1     -42.126  56.157 -53.600  1.00  0.00    -0.324 N 
HETATM    8  C   UNL     1     -41.588  55.237 -54.483  1.00  0.00     0.246 C 
HETATM    9  O   UNL     1     -40.395  54.957 -54.589  1.00  0.00    -0.271 OA
HETATM   10  H   UNL     1     -43.141  56.249 -53.592  1.00  0.00     0.169 HD
BRANCH   8  11
HETATM   11  C   UNL     1     -42.636  54.545 -55.366  1.00  0.00     0.282 C 
BRANCH  11  12
HETATM   12  O   UNL     1     -42.629  55.049 -56.701  1.00  0.00    -0.308 OA
BRANCH  12  13
HETATM   13  C   UNL     1     -43.221  56.257 -56.841  1.00  0.00     0.298 C 
HETATM   14  O   UNL     1     -44.017  56.739 -56.047  1.00  0.00    -0.259 OA
BRANCH  13  15
HETATM   15  C   UNL     1     -42.866  56.923 -58.112  1.00  0.00     0.092 A 
HETATM   16  C   UNL     1     -43.149  56.423 -59.381  1.00  0.00     0.180 A 
HETATM   17  N   UNL     1     -42.786  57.061 -60.525  1.00  0.00    -0.236 NA
HETATM   18  C   UNL     1     -42.109  58.222 -60.404  1.00  0.00     0.119 A 
HETATM   19  C   UNL     1     -41.769  58.791 -59.191  1.00  0.00     0.020 A 
HETATM   20  C   UNL     1     -42.153  58.127 -58.030  1.00  0.00     0.023 A 
BRANCH  16  21
HETATM   21  O   UNL     1     -43.785  55.206 -59.498  1.00  0.00    -0.334 OA
BRANCH  21  22
HETATM   22  C   UNL     1     -44.686  55.115 -60.601  1.00  0.00     0.173 C 
HETATM   23  C   UNL     1     -46.011  55.721 -60.173  1.00  0.00     0.034 C 
ENDBRANCH  21  22
ENDBRANCH  16  21
ENDBRANCH  13  15
ENDBRANCH  12  13
ENDBRANCH  11  12
ENDBRANCH   8  11
ENDBRANCH   1   7
BRANCH   2  24
HETATM   24  C   UNL     1     -41.768  55.724 -50.715  1.00  0.00     0.254 C 
HETATM   25  N   UNL     1     -40.742  54.891 -50.322  1.00  0.00    -0.349 N 
HETATM   26  H   UNL     1     -39.787  55.151 -50.537  1.00  0.00     0.163 HD
HETATM   27  O   UNL     1     -42.950  55.523 -50.469  1.00  0.00    -0.268 OA
BRANCH  25  28
HETATM   28  C   UNL     1     -40.979  53.633 -49.637  1.00  0.00     0.114 C 
HETATM   29  C   UNL     1     -40.426  53.701 -48.211  1.00  0.00     0.037 C 
BRANCH  28  30
HETATM   30  C   UNL     1     -40.420  52.489 -50.466  1.00  0.00    -0.036 A 
HETATM   31  C   UNL     1     -39.998  52.644 -51.796  1.00  0.00     0.009 A 
HETATM   32  C   UNL     1     -39.496  51.555 -52.514  1.00  0.00     0.001 A 
HETATM   33  C   UNL     1     -39.421  50.297 -51.920  1.00  0.00     0.000 A 
HETATM   34  C   UNL     1     -39.854  50.121 -50.610  1.00  0.00     0.001 A 
HETATM   35  C   UNL     1     -40.356  51.207 -49.892  1.00  0.00     0.009 A 
ENDBRANCH  28  30
ENDBRANCH  25  28
ENDBRANCH   2  24
TORSDOF 10
ENDMDL
MODEL 3
REMARK VINA RESULT:      -7.9      2.059      7.898
REMARK  10 active torsions:
REMARK  status: ('A' for Active; 'I' for Inactive)
REMARK    1  A    between atoms: C_2  and  O_3 
REMARK    2  A    between atoms: O_3  and  C_4 
REMARK    3  A    between atoms: C_9  and  C_10 
REMARK    4  A    between atoms: C_10  and  O_11 
REMARK    5  A    between atoms: O_11  and  C_12 
REMARK    6  A    between atoms: C_12  and  C_13 
REMARK       I    between atoms: C_13  and  N_14 
REMARK    7  A    between atoms: N_14  and  C_15 
REMARK    8  A    between atoms: C_16  and  C_17 
REMARK       I    between atoms: C_17  and  N_18 
REMARK    9  A    between atoms: N_18  and  C_19 
REMARK   10  A    between atoms: C_19  and  C_20 
ROOT
HETATM    1  C   UNL     1     -43.375  57.615 -53.567  1.00  0.00     0.050 A 
HETATM    2  C   UNL     1     -42.714  56.617 -52.820  1.00  0.00     0.058 A 
HETATM    3  C   UNL     1     -43.175  56.252 -51.545  1.00  0.00     0.019 A 
HETATM    4  C   UNL     1     -44.271  56.901 -50.983  1.00  0.00     0.001 A 
HETATM    5  C   UNL     1     -44.904  57.916 -51.692  1.00  0.00     0.002 A 
HETATM    6  C   UNL     1     -44.462  58.269 -52.972  1.00  0.00     0.030 A 
ENDROOT
BRANCH   1   7
HETATM    7  N   UNL     1     -42.985  57.868 -54.908  1.00  0.00    -0.324 N 
HETATM    8  C   UNL     1     -42.239  58.937 -55.377  1.00  0.00     0.246 C 
HETATM    9  O   UNL     1     -41.615  59.736 -54.682  1.00  0.00    -0.271 OA
HETATM   10  H   UNL     1     -43.408  57.260 -55.607  1.00  0.00     0.169 HD
BRANCH   8  11
HETATM   11  C   UNL     1     -42.235  59.059 -56.907  1.00  0.00     0.282 C 
BRANCH  11  12
HETATM   12  O   UNL     1     -42.271  57.784 -57.547  1.00  0.00    -0.308 OA
BRANCH  12  13
HETATM   13  C   UNL     1     -42.470  57.840 -58.884  1.00  0.00     0.298 C 
HETATM   14  O   UNL     1     -41.858  58.572 -59.650  1.00  0.00    -0.259 OA
BRANCH  13  15
HETATM   15  C   UNL     1     -43.574  56.966 -59.334  1.00  0.00     0.092 A 
HETATM   16  C   UNL     1     -44.911  57.349 -59.413  1.00  0.00     0.180 A 
HETATM   17  N   UNL     1     -45.899  56.505 -59.814  1.00  0.00    -0.236 NA
HETATM   18  C   UNL     1     -45.549  55.241 -60.133  1.00  0.00     0.119 A 
HETATM   19  C   UNL     1     -44.253  54.764 -60.073  1.00  0.00     0.020 A 
HETATM   20  C   UNL     1     -43.254  55.642 -59.665  1.00  0.00     0.023 A 
BRANCH  16  21
HETATM   21  O   UNL     1     -45.271  58.621 -59.026  1.00  0.00    -0.334 OA
BRANCH  21  22
HETATM   22  C   UNL     1     -46.418  58.678 -58.178  1.00  0.00     0.173 C 
HETATM   23  C   UNL     1     -45.964  58.380 -56.759  1.00  0.00     0.034 C 
ENDBRANCH  21  22
ENDBRANCH  16  21
ENDBRANCH  13  15
ENDBRANCH  12  13
ENDBRANCH  11  12
ENDBRANCH   8  11
ENDBRANCH   1   7
BRANCH   2  24
HETATM   24  C   UNL     1     -41.469  55.947 -53.281  1.00  0.00     0.254 C 
HETATM   25  N   UNL     1     -41.446  54.578 -53.118  1.00  0.00    -0.349 N 
HETATM   26  H   UNL     1     -42.245  54.118 -52.698  1.00  0.00     0.163 HD
HETATM   27  O   UNL     1     -40.575  56.591 -53.813  1.00  0.00    -0.268 OA
BRANCH  25  28
HETATM   28  C   UNL     1     -40.302  53.768 -53.496  1.00  0.00     0.114 C 
HETATM   29  C   UNL     1     -40.418  53.349 -54.963  1.00  0.00     0.037 C 
BRANCH  28  30
HETATM   30  C   UNL     1     -40.159  52.606 -52.528  1.00  0.00    -0.036 A 
HETATM   31  C   UNL     1     -40.447  52.711 -51.159  1.00  0.00     0.009 A 
HETATM   32  C   UNL     1     -40.294  51.610 -50.311  1.00  0.00     0.001 A 
HETATM   33  C   UNL     1     -39.840  50.393 -50.817  1.00  0.00     0.000 A 
HETATM   34  C   UNL     1     -39.530  50.277 -52.169  1.00  0.00     0.001 A 
HETATM   35  C   UNL     1     -39.682  51.376 -53.015  1.00  0.00     0.009 A 
ENDBRANCH  28  30
ENDBRANCH  25  28
ENDBRANCH   2  24
TORSDOF 10
ENDMDL
MODEL 4
REMARK VINA RESULT:      -7.9      2.201      8.569
REMARK  10 active torsions:
REMARK  status: ('A' for Active; 'I' for Inactive)
REMARK    1  A    between atoms: C_2  and  O_3 
REMARK    2  A    between atoms: O_3  and  C_4 
REMARK    3  A    between atoms: C_9  and  C_10 
REMARK    4  A    between atoms: C_10  and  O_11 
REMARK    5  A    between atoms: O_11  and  C_12 
REMARK    6  A    between atoms: C_12  and  C_13 
REMARK       I    between atoms: C_13  and  N_14 
REMARK    7  A    between atoms: N_14  and  C_15 
REMARK    8  A    between atoms: C_16  and  C_17 
REMARK       I    between atoms: C_17  and  N_18 
REMARK    9  A    between atoms: N_18  and  C_19 
REMARK   10  A    between atoms: C_19  and  C_20 
ROOT
HETATM    1  C   UNL     1     -40.218  52.368 -53.589  1.00  0.00     0.050 A 
HETATM    2  C   UNL     1     -40.137  52.238 -52.186  1.00  0.00     0.058 A 
HETATM    3  C   UNL     1     -39.767  51.017 -51.599  1.00  0.00     0.019 A 
HETATM    4  C   UNL     1     -39.516  49.904 -52.395  1.00  0.00     0.001 A 
HETATM    5  C   UNL     1     -39.636  50.008 -53.777  1.00  0.00     0.002 A 
HETATM    6  C   UNL     1     -39.983  51.228 -54.369  1.00  0.00     0.030 A 
ENDROOT
BRANCH   1   7
HETATM    7  N   UNL     1     -40.450  53.643 -54.168  1.00  0.00    -0.324 N 
HETATM    8  C   UNL     1     -41.600  54.080 -54.803  1.00  0.00     0.246 C 
HETATM    9  O   UNL     1     -42.688  53.507 -54.790  1.00  0.00    -0.271 OA
HETATM   10  H   UNL     1     -39.633  54.249 -54.227  1.00  0.00     0.169 HD
BRANCH   8  11
HETATM   11  C   UNL     1     -41.421  55.404 -55.559  1.00  0.00     0.282 C 
BRANCH  11  12
HETATM   12  O   UNL     1     -42.388  55.563 -56.596  1.00  0.00    -0.308 OA
BRANCH  12  13
HETATM   13  C   UNL     1     -43.153  56.672 -56.475  1.00  0.00     0.298 C 
HETATM   14  O   UNL     1     -43.933  56.885 -55.557  1.00  0.00    -0.259 OA
BRANCH  13  15
HETATM   15  C   UNL     1     -43.011  57.592 -57.625  1.00  0.00     0.092 A 
HETATM   16  C   UNL     1     -43.648  57.435 -58.854  1.00  0.00     0.180 A 
HETATM   17  N   UNL     1     -43.472  58.295 -59.891  1.00  0.00    -0.236 NA
HETATM   18  C   UNL     1     -42.631  59.334 -59.706  1.00  0.00     0.119 A 
HETATM   19  C   UNL     1     -41.943  59.565 -58.530  1.00  0.00     0.020 A 
HETATM   20  C   UNL     1     -42.138  58.678 -57.476  1.00  0.00     0.023 A 
BRANCH  16  21
HETATM   21  O   UNL     1     -44.457  56.339 -59.058  1.00  0.00    -0.334 OA
BRANCH  21  22
HETATM   22  C   UNL     1     -43.880  55.325 -59.881  1.00  0.00     0.173 C 
HETATM   23  C   UNL     1     -44.928  54.891 -60.891  1.00  0.00     0.034 C 
ENDBRANCH  21  22
ENDBRANCH  16  21
ENDBRANCH  13  15
ENDBRANCH  12  13
ENDBRANCH  11  12
ENDBRANCH   8  11
ENDBRANCH   1   7
BRANCH   2  24
HETATM   24  C   UNL     1     -40.496  53.333 -51.246  1.00  0.00     0.254 C 
HETATM   25  N   UNL     1     -41.811  53.743 -51.299  1.00  0.00    -0.349 N 
HETATM   26  H   UNL     1     -42.439  53.301 -51.959  1.00  0.00     0.163 HD
HETATM   27  O   UNL     1     -39.670  53.773 -50.458  1.00  0.00    -0.268 OA
BRANCH  25  28
HETATM   28  C   UNL     1     -42.328  54.813 -50.464  1.00  0.00     0.114 C 
HETATM   29  C   UNL     1     -43.847  54.683 -50.326  1.00  0.00     0.037 C 
BRANCH  28  30
HETATM   30  C   UNL     1     -41.867  56.153 -51.012  1.00  0.00    -0.036 A 
HETATM   31  C   UNL     1     -40.959  56.984 -50.337  1.00  0.00     0.009 A 
HETATM   32  C   UNL     1     -40.573  58.210 -50.886  1.00  0.00     0.001 A 
HETATM   33  C   UNL     1     -41.097  58.629 -52.107  1.00  0.00     0.000 A 
HETATM   34  C   UNL     1     -42.014  57.827 -52.780  1.00  0.00     0.001 A 
HETATM   35  C   UNL     1     -42.400  56.603 -52.233  1.00  0.00     0.009 A 
ENDBRANCH  28  30
ENDBRANCH  25  28
ENDBRANCH   2  24
TORSDOF 10
ENDMDL
MODEL 5
REMARK VINA RESULT:      -7.8      2.273      8.259
REMARK  10 active torsions:
REMARK  status: ('A' for Active; 'I' for Inactive)
REMARK    1  A    between atoms: C_2  and  O_3 
REMARK    2  A    between atoms: O_3  and  C_4 
REMARK    3  A    between atoms: C_9  and  C_10 
REMARK    4  A    between atoms: C_10  and  O_11 
REMARK    5  A    between atoms: O_11  and  C_12 
REMARK    6  A    between atoms: C_12  and  C_13 
REMARK       I    between atoms: C_13  and  N_14 
REMARK    7  A    between atoms: N_14  and  C_15 
REMARK    8  A    between atoms: C_16  and  C_17 
REMARK       I    between atoms: C_17  and  N_18 
REMARK    9  A    between atoms: N_18  and  C_19 
REMARK   10  A    between atoms: C_19  and  C_20 
ROOT
HETATM    1  C   UNL     1     -40.134  52.245 -53.421  1.00  0.00     0.050 A 
HETATM    2  C   UNL     1     -40.131  52.143 -52.013  1.00  0.00     0.058 A 
HETATM    3  C   UNL     1     -39.819  50.927 -51.383  1.00  0.00     0.019 A 
HETATM    4  C   UNL     1     -39.547  49.793 -52.143  1.00  0.00     0.001 A 
HETATM    5  C   UNL     1     -39.590  49.871 -53.531  1.00  0.00     0.002 A 
HETATM    6  C   UNL     1     -39.879  51.085 -54.164  1.00  0.00     0.030 A 
ENDROOT
BRANCH   1   7
HETATM    7  N   UNL     1     -40.308  53.512 -54.037  1.00  0.00    -0.324 N 
HETATM    8  C   UNL     1     -41.487  54.055 -54.519  1.00  0.00     0.246 C 
HETATM    9  O   UNL     1     -42.616  53.618 -54.310  1.00  0.00    -0.271 OA
HETATM   10  H   UNL     1     -39.448  54.013 -54.253  1.00  0.00     0.169 HD
BRANCH   8  11
HETATM   11  C   UNL     1     -41.280  55.314 -55.373  1.00  0.00     0.282 C 
BRANCH  11  12
HETATM   12  O   UNL     1     -42.260  55.429 -56.404  1.00  0.00    -0.308 OA
BRANCH  12  13
HETATM   13  C   UNL     1     -42.991  56.565 -56.350  1.00  0.00     0.298 C 
HETATM   14  O   UNL     1     -43.897  56.774 -55.554  1.00  0.00    -0.259 OA
BRANCH  13  15
HETATM   15  C   UNL     1     -42.637  57.525 -57.417  1.00  0.00     0.092 A 
HETATM   16  C   UNL     1     -42.065  58.777 -57.205  1.00  0.00     0.180 A 
HETATM   17  N   UNL     1     -41.773  59.637 -58.217  1.00  0.00    -0.236 NA
HETATM   18  C   UNL     1     -42.071  59.246 -59.474  1.00  0.00     0.119 A 
HETATM   19  C   UNL     1     -42.653  58.031 -59.783  1.00  0.00     0.020 A 
HETATM   20  C   UNL     1     -42.941  57.161 -58.736  1.00  0.00     0.023 A 
BRANCH  16  21
HETATM   21  O   UNL     1     -41.820  59.195 -55.916  1.00  0.00    -0.334 OA
BRANCH  21  22
HETATM   22  C   UNL     1     -42.376  60.470 -55.594  1.00  0.00     0.173 C 
HETATM   23  C   UNL     1     -43.792  60.250 -55.093  1.00  0.00     0.034 C 
ENDBRANCH  21  22
ENDBRANCH  16  21
ENDBRANCH  13  15
ENDBRANCH  12  13
ENDBRANCH  11  12
ENDBRANCH   8  11
ENDBRANCH   1   7
BRANCH   2  24
HETATM   24  C   UNL     1     -40.519  53.263 -51.116  1.00  0.00     0.254 C 
HETATM   25  N   UNL     1     -41.842  53.644 -51.193  1.00  0.00    -0.349 N 
HETATM   26  H   UNL     1     -42.455  53.167 -51.841  1.00  0.00     0.163 HD
HETATM   27  O   UNL     1     -39.708  53.747 -50.338  1.00  0.00    -0.268 OA
BRANCH  25  28
HETATM   28  C   UNL     1     -42.386  54.733 -50.401  1.00  0.00     0.114 C 
HETATM   29  C   UNL     1     -43.905  54.589 -50.286  1.00  0.00     0.037 C 
BRANCH  28  30
HETATM   30  C   UNL     1     -41.931  56.061 -50.981  1.00  0.00    -0.036 A 
HETATM   31  C   UNL     1     -40.970  56.877 -50.363  1.00  0.00     0.009 A 
HETATM   32  C   UNL     1     -40.591  58.093 -50.940  1.00  0.00     0.001 A 
HETATM   33  C   UNL     1     -41.175  58.517 -52.132  1.00  0.00     0.000 A 
HETATM   34  C   UNL     1     -42.144  57.730 -52.747  1.00  0.00     0.001 A 
HETATM   35  C   UNL     1     -42.523  56.517 -52.172  1.00  0.00     0.009 A 
ENDBRANCH  28  30
ENDBRANCH  25  28
ENDBRANCH   2  24
TORSDOF 10
ENDMDL
MODEL 6
REMARK VINA RESULT:      -7.8      2.369      8.172
REMARK  10 active torsions:
REMARK  status: ('A' for Active; 'I' for Inactive)
REMARK    1  A    between atoms: C_2  and  O_3 
REMARK    2  A    between atoms: O_3  and  C_4 
REMARK    3  A    between atoms: C_9  and  C_10 
REMARK    4  A    between atoms: C_10  and  O_11 
REMARK    5  A    between atoms: O_11  and  C_12 
REMARK    6  A    between atoms: C_12  and  C_13 
REMARK       I    between atoms: C_13  and  N_14 
REMARK    7  A    between atoms: N_14  and  C_15 
REMARK    8  A    between atoms: C_16  and  C_17 
REMARK       I    between atoms: C_17  and  N_18 
REMARK    9  A    between atoms: N_18  and  C_19 
REMARK   10  A    between atoms: C_19  and  C_20 
ROOT
HETATM    1  C   UNL     1     -41.247  52.950 -53.842  1.00  0.00     0.050 A 
HETATM    2  C   UNL     1     -41.438  53.437 -52.531  1.00  0.00     0.058 A 
HETATM    3  C   UNL     1     -40.599  53.024 -51.484  1.00  0.00     0.019 A 
HETATM    4  C   UNL     1     -39.591  52.094 -51.718  1.00  0.00     0.001 A 
HETATM    5  C   UNL     1     -39.422  51.574 -52.997  1.00  0.00     0.002 A 
HETATM    6  C   UNL     1     -40.241  51.999 -54.049  1.00  0.00     0.030 A 
ENDROOT
BRANCH   1   7
HETATM    7  N   UNL     1     -42.009  53.488 -54.913  1.00  0.00    -0.324 N 
HETATM    8  C   UNL     1     -41.910  54.757 -55.458  1.00  0.00     0.246 C 
HETATM    9  O   UNL     1     -41.006  55.562 -55.242  1.00  0.00    -0.271 OA
HETATM   10  H   UNL     1     -42.791  52.913 -55.223  1.00  0.00     0.169 HD
BRANCH   8  11
HETATM   11  C   UNL     1     -43.063  55.109 -56.409  1.00  0.00     0.282 C 
BRANCH  11  12
HETATM   12  O   UNL     1     -43.147  56.513 -56.649  1.00  0.00    -0.308 OA
BRANCH  12  13
HETATM   13  C   UNL     1     -42.894  56.873 -57.929  1.00  0.00     0.298 C 
HETATM   14  O   UNL     1     -41.909  57.499 -58.295  1.00  0.00    -0.259 OA
BRANCH  13  15
HETATM   15  C   UNL     1     -43.984  56.497 -58.854  1.00  0.00     0.092 A 
HETATM   16  C   UNL     1     -45.140  57.243 -59.069  1.00  0.00     0.180 A 
HETATM   17  N   UNL     1     -46.128  56.848 -59.917  1.00  0.00    -0.236 NA
HETATM   18  C   UNL     1     -45.967  55.671 -60.559  1.00  0.00     0.119 A 
HETATM   19  C   UNL     1     -44.862  54.855 -60.400  1.00  0.00     0.020 A 
HETATM   20  C   UNL     1     -43.859  55.276 -59.533  1.00  0.00     0.023 A 
BRANCH  16  21
HETATM   21  O   UNL     1     -45.328  58.411 -58.364  1.00  0.00    -0.334 OA
BRANCH  21  22
HETATM   22  C   UNL     1     -46.235  58.299 -57.267  1.00  0.00     0.173 C 
HETATM   23  C   UNL     1     -45.568  58.906 -56.046  1.00  0.00     0.034 C 
ENDBRANCH  21  22
ENDBRANCH  16  21
ENDBRANCH  13  15
ENDBRANCH  12  13
ENDBRANCH  11  12
ENDBRANCH   8  11
ENDBRANCH   1   7
BRANCH   2  24
HETATM   24  C   UNL     1     -42.556  54.343 -52.155  1.00  0.00     0.254 C 
HETATM   25  N   UNL     1     -42.300  55.688 -52.315  1.00  0.00    -0.349 N 
HETATM   26  H   UNL     1     -41.393  55.979 -52.657  1.00  0.00     0.163 HD
HETATM   27  O   UNL     1     -43.630  53.886 -51.786  1.00  0.00    -0.268 OA
BRANCH  25  28
HETATM   28  C   UNL     1     -43.273  56.712 -51.976  1.00  0.00     0.114 C 
HETATM   29  C   UNL     1     -44.142  57.031 -53.195  1.00  0.00     0.037 C 
BRANCH  28  30
HETATM   30  C   UNL     1     -42.560  57.917 -51.390  1.00  0.00    -0.036 A 
HETATM   31  C   UNL     1     -43.112  59.208 -51.391  1.00  0.00     0.009 A 
HETATM   32  C   UNL     1     -42.409  60.284 -50.841  1.00  0.00     0.001 A 
HETATM   33  C   UNL     1     -41.142  60.089 -50.296  1.00  0.00     0.000 A 
HETATM   34  C   UNL     1     -40.571  58.820 -50.305  1.00  0.00     0.001 A 
HETATM   35  C   UNL     1     -41.271  57.745 -50.854  1.00  0.00     0.009 A 
ENDBRANCH  28  30
ENDBRANCH  25  28
ENDBRANCH   2  24
TORSDOF 10
ENDMDL
MODEL 7
REMARK VINA RESULT:      -7.7      2.278      7.854
REMARK  10 active torsions:
REMARK  status: ('A' for Active; 'I' for Inactive)
REMARK    1  A    between atoms: C_2  and  O_3 
REMARK    2  A    between atoms: O_3  and  C_4 
REMARK    3  A    between atoms: C_9  and  C_10 
REMARK    4  A    between atoms: C_10  and  O_11 
REMARK    5  A    between atoms: O_11  and  C_12 
REMARK    6  A    between atoms: C_12  and  C_13 
REMARK       I    between atoms: C_13  and  N_14 
REMARK    7  A    between atoms: N_14  and  C_15 
REMARK    8  A    between atoms: C_16  and  C_17 
REMARK       I    between atoms: C_17  and  N_18 
REMARK    9  A    between atoms: N_18  and  C_19 
REMARK   10  A    between atoms: C_19  and  C_20 
ROOT
HETATM    1  C   UNL     1     -42.065  57.911 -52.525  1.00  0.00     0.050 A 
HETATM    2  C   UNL     1     -41.845  57.283 -51.281  1.00  0.00     0.058 A 
HETATM    3  C   UNL     1     -41.257  57.986 -50.217  1.00  0.00     0.019 A 
HETATM    4  C   UNL     1     -40.846  59.305 -50.391  1.00  0.00     0.001 A 
HETATM    5  C   UNL     1     -41.018  59.920 -51.626  1.00  0.00     0.002 A 
HETATM    6  C   UNL     1     -41.623  59.231 -52.683  1.00  0.00     0.030 A 
ENDROOT
BRANCH   1   7
HETATM    7  N   UNL     1     -42.791  57.232 -53.540  1.00  0.00    -0.324 N 
HETATM    8  C   UNL     1     -42.272  56.525 -54.612  1.00  0.00     0.246 C 
HETATM    9  O   UNL     1     -41.097  56.193 -54.750  1.00  0.00    -0.271 OA
HETATM   10  H   UNL     1     -43.797  57.394 -53.538  1.00  0.00     0.169 HD
BRANCH   8  11
HETATM   11  C   UNL     1     -43.321  56.156 -55.670  1.00  0.00     0.282 C 
BRANCH  11  12
HETATM   12  O   UNL     1     -42.722  55.787 -56.911  1.00  0.00    -0.308 OA
BRANCH  12  13
HETATM   13  C   UNL     1     -42.845  56.717 -57.886  1.00  0.00     0.298 C 
HETATM   14  O   UNL     1     -42.178  57.740 -57.962  1.00  0.00    -0.259 OA
BRANCH  13  15
HETATM   15  C   UNL     1     -43.941  56.414 -58.830  1.00  0.00     0.092 A 
HETATM   16  C   UNL     1     -45.157  57.091 -58.885  1.00  0.00     0.180 A 
HETATM   17  N   UNL     1     -46.146  56.764 -59.758  1.00  0.00    -0.236 NA
HETATM   18  C   UNL     1     -45.926  55.726 -60.592  1.00  0.00     0.119 A 
HETATM   19  C   UNL     1     -44.759  54.984 -60.603  1.00  0.00     0.020 A 
HETATM   20  C   UNL     1     -43.755  55.335 -59.706  1.00  0.00     0.023 A 
BRANCH  16  21
HETATM   21  O   UNL     1     -45.401  58.109 -57.990  1.00  0.00    -0.334 OA
BRANCH  21  22
HETATM   22  C   UNL     1     -45.845  59.327 -58.588  1.00  0.00     0.173 C 
HETATM   23  C   UNL     1     -44.619  60.105 -59.031  1.00  0.00     0.034 C 
ENDBRANCH  21  22
ENDBRANCH  16  21
ENDBRANCH  13  15
ENDBRANCH  12  13
ENDBRANCH  11  12
ENDBRANCH   8  11
ENDBRANCH   1   7
BRANCH   2  24
HETATM   24  C   UNL     1     -42.141  55.848 -51.030  1.00  0.00     0.254 C 
HETATM   25  N   UNL     1     -41.036  55.043 -50.854  1.00  0.00    -0.349 N 
HETATM   26  H   UNL     1     -40.113  55.454 -50.913  1.00  0.00     0.163 HD
HETATM   27  O   UNL     1     -43.298  55.458 -50.938  1.00  0.00    -0.268 OA
BRANCH  25  28
HETATM   28  C   UNL     1     -41.143  53.614 -50.618  1.00  0.00     0.114 C 
HETATM   29  C   UNL     1     -40.385  53.235 -49.344  1.00  0.00     0.037 C 
BRANCH  28  30
HETATM   30  C   UNL     1     -40.691  52.859 -51.857  1.00  0.00    -0.036 A 
HETATM   31  C   UNL     1     -41.164  53.152 -53.146  1.00  0.00     0.009 A 
HETATM   32  C   UNL     1     -40.718  52.422 -54.251  1.00  0.00     0.001 A 
HETATM   33  C   UNL     1     -39.806  51.382 -54.083  1.00  0.00     0.000 A 
HETATM   34  C   UNL     1     -39.343  51.064 -52.810  1.00  0.00     0.001 A 
HETATM   35  C   UNL     1     -39.787  51.793 -51.706  1.00  0.00     0.009 A 
ENDBRANCH  28  30
ENDBRANCH  25  28
ENDBRANCH   2  24
TORSDOF 10
ENDMDL
MODEL 8
REMARK VINA RESULT:      -7.6      2.527      6.835
REMARK  10 active torsions:
REMARK  status: ('A' for Active; 'I' for Inactive)
REMARK    1  A    between atoms: C_2  and  O_3 
REMARK    2  A    between atoms: O_3  and  C_4 
REMARK    3  A    between atoms: C_9  and  C_10 
REMARK    4  A    between atoms: C_10  and  O_11 
REMARK    5  A    between atoms: O_11  and  C_12 
REMARK    6  A    between atoms: C_12  and  C_13 
REMARK       I    between atoms: C_13  and  N_14 
REMARK    7  A    between atoms: N_14  and  C_15 
REMARK    8  A    between atoms: C_16  and  C_17 
REMARK       I    between atoms: C_17  and  N_18 
REMARK    9  A    between atoms: N_18  and  C_19 
REMARK   10  A    between atoms: C_19  and  C_20 
ROOT
HETATM    1  C   UNL     1     -41.942  54.108 -52.693  1.00  0.00     0.050 A 
HETATM    2  C   UNL     1     -41.972  53.929 -54.092  1.00  0.00     0.058 A 
HETATM    3  C   UNL     1     -41.059  53.069 -54.725  1.00  0.00     0.019 A 
HETATM    4  C   UNL     1     -40.084  52.412 -53.981  1.00  0.00     0.001 A 
HETATM    5  C   UNL     1     -40.017  52.615 -52.607  1.00  0.00     0.002 A 
HETATM    6  C   UNL     1     -40.938  53.454 -51.968  1.00  0.00     0.030 A 
ENDROOT
BRANCH   1   7
HETATM    7  N   UNL     1     -42.962  54.864 -52.056  1.00  0.00    -0.324 N 
HETATM    8  C   UNL     1     -42.992  56.234 -51.862  1.00  0.00     0.246 C 
HETATM    9  O   UNL     1     -42.240  57.050 -52.390  1.00  0.00    -0.271 OA
HETATM   10  H   UNL     1     -43.681  54.316 -51.587  1.00  0.00     0.169 HD
BRANCH   8  11
HETATM   11  C   UNL     1     -44.093  56.695 -50.896  1.00  0.00     0.282 C 
BRANCH  11  12
HETATM   12  O   UNL     1     -45.145  57.382 -51.572  1.00  0.00    -0.308 OA
BRANCH  12  13
HETATM   13  C   UNL     1     -45.432  58.600 -51.059  1.00  0.00     0.298 C 
HETATM   14  O   UNL     1     -46.125  58.795 -50.070  1.00  0.00    -0.259 OA
BRANCH  13  15
HETATM   15  C   UNL     1     -44.877  59.706 -51.868  1.00  0.00     0.092 A 
HETATM   16  C   UNL     1     -43.664  60.345 -51.620  1.00  0.00     0.180 A 
HETATM   17  N   UNL     1     -43.202  61.373 -52.380  1.00  0.00    -0.236 NA
HETATM   18  C   UNL     1     -43.973  61.787 -53.408  1.00  0.00     0.119 A 
HETATM   19  C   UNL     1     -45.196  61.227 -53.723  1.00  0.00     0.020 A 
HETATM   20  C   UNL     1     -45.653  60.172 -52.939  1.00  0.00     0.023 A 
BRANCH  16  21
HETATM   21  O   UNL     1     -42.911  59.960 -50.533  1.00  0.00    -0.334 OA
BRANCH  21  22
HETATM   22  C   UNL     1     -41.575  60.462 -50.534  1.00  0.00     0.173 C 
HETATM   23  C   UNL     1     -40.649  59.328 -50.131  1.00  0.00     0.034 C 
ENDBRANCH  21  22
ENDBRANCH  16  21
ENDBRANCH  13  15
ENDBRANCH  12  13
ENDBRANCH  11  12
ENDBRANCH   8  11
ENDBRANCH   1   7
BRANCH   2  24
HETATM   24  C   UNL     1     -42.898  54.671 -54.988  1.00  0.00     0.254 C 
HETATM   25  N   UNL     1     -42.293  55.344 -56.029  1.00  0.00    -0.349 N 
HETATM   26  H   UNL     1     -41.286  55.307 -56.119  1.00  0.00     0.163 HD
HETATM   27  O   UNL     1     -44.108  54.619 -54.814  1.00  0.00    -0.268 OA
BRANCH  25  28
HETATM   28  C   UNL     1     -43.045  56.135 -56.987  1.00  0.00     0.114 C 
HETATM   29  C   UNL     1     -42.919  55.524 -58.384  1.00  0.00     0.037 C 
BRANCH  28  30
HETATM   30  C   UNL     1     -42.608  57.587 -56.902  1.00  0.00    -0.036 A 
HETATM   31  C   UNL     1     -42.608  58.317 -55.703  1.00  0.00     0.009 A 
HETATM   32  C   UNL     1     -42.199  59.654 -55.683  1.00  0.00     0.001 A 
HETATM   33  C   UNL     1     -41.799  60.283 -56.860  1.00  0.00     0.000 A 
HETATM   34  C   UNL     1     -41.813  59.580 -58.061  1.00  0.00     0.001 A 
HETATM   35  C   UNL     1     -42.221  58.246 -58.082  1.00  0.00     0.009 A 
ENDBRANCH  28  30
ENDBRANCH  25  28
ENDBRANCH   2  24
TORSDOF 10
ENDMDL
MODEL 9
REMARK VINA RESULT:      -7.5      2.479      5.916
REMARK  10 active torsions:
REMARK  status: ('A' for Active; 'I' for Inactive)
REMARK    1  A    between atoms: C_2  and  O_3 
REMARK    2  A    between atoms: O_3  and  C_4 
REMARK    3  A    between atoms: C_9  and  C_10 
REMARK    4  A    between atoms: C_10  and  O_11 
REMARK    5  A    between atoms: O_11  and  C_12 
REMARK    6  A    between atoms: C_12  and  C_13 
REMARK       I    between atoms: C_13  and  N_14 
REMARK    7  A    between atoms: N_14  and  C_15 
REMARK    8  A    between atoms: C_16  and  C_17 
REMARK       I    between atoms: C_17  and  N_18 
REMARK    9  A    between atoms: N_18  and  C_19 
REMARK   10  A    between atoms: C_19  and  C_20 
ROOT
HETATM    1  C   UNL     1     -42.434  57.981 -57.335  1.00  0.00     0.050 A 
HETATM    2  C   UNL     1     -43.380  58.850 -56.751  1.00  0.00     0.058 A 
HETATM    3  C   UNL     1     -43.919  59.921 -57.484  1.00  0.00     0.019 A 
HETATM    4  C   UNL     1     -43.493  60.162 -58.787  1.00  0.00     0.001 A 
HETATM    5  C   UNL     1     -42.529  59.338 -59.357  1.00  0.00     0.002 A 
HETATM    6  C   UNL     1     -42.005  58.257 -58.639  1.00  0.00     0.030 A 
ENDROOT
BRANCH   1   7
HETATM    7  N   UNL     1     -42.011  56.823 -56.631  1.00  0.00    -0.324 N 
HETATM    8  C   UNL     1     -42.555  55.551 -56.705  1.00  0.00     0.246 C 
HETATM    9  O   UNL     1     -43.365  55.166 -57.545  1.00  0.00    -0.271 OA
HETATM   10  H   UNL     1     -41.313  56.984 -55.907  1.00  0.00     0.169 HD
BRANCH   8  11
HETATM   11  C   UNL     1     -42.046  54.601 -55.612  1.00  0.00     0.282 C 
BRANCH  11  12
HETATM   12  O   UNL     1     -41.492  55.307 -54.503  1.00  0.00    -0.308 OA
BRANCH  12  13
HETATM   13  C   UNL     1     -42.193  55.173 -53.354  1.00  0.00     0.298 C 
HETATM   14  O   UNL     1     -43.383  55.427 -53.228  1.00  0.00    -0.259 OA
BRANCH  13  15
HETATM   15  C   UNL     1     -41.348  54.751 -52.216  1.00  0.00     0.092 A 
HETATM   16  C   UNL     1     -40.657  53.544 -52.140  1.00  0.00     0.180 A 
HETATM   17  N   UNL     1     -39.907  53.188 -51.064  1.00  0.00    -0.236 NA
HETATM   18  C   UNL     1     -39.853  54.051 -50.027  1.00  0.00     0.119 A 
HETATM   19  C   UNL     1     -40.515  55.264 -50.003  1.00  0.00     0.020 A 
HETATM   20  C   UNL     1     -41.275  55.615 -51.114  1.00  0.00     0.023 A 
BRANCH  16  21
HETATM   21  O   UNL     1     -40.766  52.640 -53.174  1.00  0.00    -0.334 OA
BRANCH  21  22
HETATM   22  C   UNL     1     -39.673  51.728 -53.277  1.00  0.00     0.173 C 
HETATM   23  C   UNL     1     -40.103  50.585 -54.180  1.00  0.00     0.034 C 
ENDBRANCH  21  22
ENDBRANCH  16  21
ENDBRANCH  13  15
ENDBRANCH  12  13
ENDBRANCH  11  12
ENDBRANCH   8  11
ENDBRANCH   1   7
BRANCH   2  24
HETATM   24  C   UNL     1     -43.813  58.748 -55.332  1.00  0.00     0.254 C 
HETATM   25  N   UNL     1     -43.185  59.615 -54.464  1.00  0.00    -0.349 N 
HETATM   26  H   UNL     1     -42.479  60.246 -54.822  1.00  0.00     0.163 HD
HETATM   27  O   UNL     1     -44.705  57.976 -55.008  1.00  0.00    -0.268 OA
BRANCH  25  28
HETATM   28  C   UNL     1     -43.472  59.636 -53.040  1.00  0.00     0.114 C 
HETATM   29  C   UNL     1     -44.237  60.911 -52.679  1.00  0.00     0.037 C 
BRANCH  28  30
HETATM   30  C   UNL     1     -42.184  59.442 -52.258  1.00  0.00    -0.036 A 
HETATM   31  C   UNL     1     -42.084  59.677 -50.878  1.00  0.00     0.009 A 
HETATM   32  C   UNL     1     -40.871  59.487 -50.209  1.00  0.00     0.001 A 
HETATM   33  C   UNL     1     -39.741  59.073 -50.910  1.00  0.00     0.000 A 
HETATM   34  C   UNL     1     -39.817  58.855 -52.282  1.00  0.00     0.001 A 
HETATM   35  C   UNL     1     -41.026  59.045 -52.951  1.00  0.00     0.009 A 
ENDBRANCH  28  30
ENDBRANCH  25  28
ENDBRANCH   2  24
TORSDOF 10
ENDMDL
MODEL 10
REMARK VINA RESULT:      -7.5      1.718      2.223
REMARK  10 active torsions:
REMARK  status: ('A' for Active; 'I' for Inactive)
REMARK    1  A    between atoms: C_2  and  O_3 
REMARK    2  A    between atoms: O_3  and  C_4 
REMARK    3  A    between atoms: C_9  and  C_10 
REMARK    4  A    between atoms: C_10  and  O_11 
REMARK    5  A    between atoms: O_11  and  C_12 
REMARK    6  A    between atoms: C_12  and  C_13 
REMARK       I    between atoms: C_13  and  N_14 
REMARK    7  A    between atoms: N_14  and  C_15 
REMARK    8  A    between atoms: C_16  and  C_17 
REMARK       I    between atoms: C_17  and  N_18 
REMARK    9  A    between atoms: N_18  and  C_19 
REMARK   10  A    between atoms: C_19  and  C_20 
ROOT
HETATM    1  C   UNL     1     -44.437  59.262 -53.627  1.00  0.00     0.050 A 
HETATM    2  C   UNL     1     -43.498  60.185 -54.133  1.00  0.00     0.058 A 
HETATM    3  C   UNL     1     -43.598  61.552 -53.825  1.00  0.00     0.019 A 
HETATM    4  C   UNL     1     -44.653  62.019 -53.046  1.00  0.00     0.001 A 
HETATM    5  C   UNL     1     -45.608  61.124 -52.578  1.00  0.00     0.002 A 
HETATM    6  C   UNL     1     -45.502  59.758 -52.864  1.00  0.00     0.030 A 
ENDROOT
BRANCH   1   7
HETATM    7  N   UNL     1     -44.238  57.870 -53.827  1.00  0.00    -0.324 N 
HETATM    8  C   UNL     1     -43.605  56.982 -52.975  1.00  0.00     0.246 C 
HETATM    9  O   UNL     1     -43.290  57.209 -51.808  1.00  0.00    -0.271 OA
HETATM   10  H   UNL     1     -44.482  57.524 -54.754  1.00  0.00     0.169 HD
BRANCH   8  11
HETATM   11  C   UNL     1     -43.313  55.617 -53.614  1.00  0.00     0.282 C 
BRANCH  11  12
HETATM   12  O   UNL     1     -42.412  54.839 -52.827  1.00  0.00    -0.308 OA
BRANCH  12  13
HETATM   13  C   UNL     1     -41.178  54.707 -53.365  1.00  0.00     0.298 C 
HETATM   14  O   UNL     1     -40.591  55.582 -53.987  1.00  0.00    -0.259 OA
BRANCH  13  15
HETATM   15  C   UNL     1     -40.622  53.348 -53.192  1.00  0.00     0.092 A 
HETATM   16  C   UNL     1     -40.000  52.882 -52.036  1.00  0.00     0.180 A 
HETATM   17  N   UNL     1     -39.484  51.629 -51.928  1.00  0.00    -0.236 NA
HETATM   18  C   UNL     1     -39.577  50.820 -53.004  1.00  0.00     0.119 A 
HETATM   19  C   UNL     1     -40.162  51.196 -54.199  1.00  0.00     0.020 A 
HETATM   20  C   UNL     1     -40.689  52.481 -54.291  1.00  0.00     0.023 A 
BRANCH  16  21
HETATM   21  O   UNL     1     -39.853  53.733 -50.962  1.00  0.00    -0.334 OA
BRANCH  21  22
HETATM   22  C   UNL     1     -40.469  53.275 -49.758  1.00  0.00     0.173 C 
HETATM   23  C   UNL     1     -41.267  54.427 -49.174  1.00  0.00     0.034 C 
ENDBRANCH  21  22
ENDBRANCH  16  21
ENDBRANCH  13  15
ENDBRANCH  12  13
ENDBRANCH  11  12
ENDBRANCH   8  11
ENDBRANCH   1   7
BRANCH   2  24
HETATM   24  C   UNL     1     -42.404  59.805 -55.065  1.00  0.00     0.254 C 
HETATM   25  N   UNL     1     -42.701  59.941 -56.405  1.00  0.00    -0.349 N 
HETATM   26  H   UNL     1     -43.620  60.272 -56.674  1.00  0.00     0.163 HD
HETATM   27  O   UNL     1     -41.313  59.453 -54.635  1.00  0.00    -0.268 OA
BRANCH  25  28
HETATM   28  C   UNL     1     -41.756  59.597 -57.452  1.00  0.00     0.114 C 
HETATM   29  C   UNL     1     -41.617  60.760 -58.436  1.00  0.00     0.037 C 
BRANCH  28  30
HETATM   30  C   UNL     1     -42.167  58.284 -58.096  1.00  0.00    -0.036 A 
HETATM   31  C   UNL     1     -42.724  57.218 -57.372  1.00  0.00     0.009 A 
HETATM   32  C   UNL     1     -43.080  56.029 -58.016  1.00  0.00     0.001 A 
HETATM   33  C   UNL     1     -42.872  55.884 -59.386  1.00  0.00     0.000 A 
HETATM   34  C   UNL     1     -42.302  56.923 -60.115  1.00  0.00     0.001 A 
HETATM   35  C   UNL     1     -41.946  58.109 -59.474  1.00  0.00     0.009 A 
ENDBRANCH  28  30
ENDBRANCH  25  28
ENDBRANCH   2  24
TORSDOF 10
ENDMDL
