MODEL 1
REMARK VINA RESULT:      -7.6      0.000      0.000
REMARK  8 active torsions:
REMARK  status: ('A' for Active; 'I' for Inactive)
REMARK    1  A    between atoms: N_4  and  C_5 
REMARK    2  A    between atoms: C_5  and  C_6 
REMARK    3  A    between atoms: C_6  and  C_7 
REMARK    4  A    between atoms: C_7  and  N_8 
REMARK       I    between atoms: N_8  and  C_9 
REMARK       I    between atoms: C_9  and  N_10 
REMARK    5  A    between atoms: N_10  and  N_11 
REMARK       I    between atoms: N_11  and  C_12 
REMARK    6  A    between atoms: C_12  and  C_13 
REMARK    7  A    between atoms: C_13  and  O_14 
REMARK    8  A    between atoms: O_14  and  C_15 
ROOT
HETATM    1  N   UNL     1     -44.642  57.343 -55.627  1.00  0.00    -0.341 N 
HETATM    2  C   UNL     1     -44.665  57.404 -54.255  1.00  0.00     0.334 C 
HETATM    3  N   UNL     1     -44.350  56.183 -53.690  1.00  0.00    -0.249 N 
HETATM    4  O   UNL     1     -44.886  58.424 -53.616  1.00  0.00    -0.246 OA
HETATM    5  H   UNL     1     -44.858  56.455 -56.057  1.00  0.00     0.164 HD
HETATM    6  H   UNL     1     -43.849  55.504 -54.251  1.00  0.00     0.192 HD
ENDROOT
BRANCH   1   7
HETATM    7  C   UNL     1     -44.714  58.526 -56.461  1.00  0.00     0.130 C 
BRANCH   7   8
HETATM    8  C   UNL     1     -43.367  58.971 -57.056  1.00  0.00     0.019 C 
HETATM    9  C   UNL     1     -42.619  59.940 -56.137  1.00  0.00     0.013 C 
BRANCH   8  10
HETATM   10  C   UNL     1     -42.476  57.740 -57.316  1.00  0.00     0.156 C 
BRANCH  10  11
HETATM   11  N   UNL     1     -42.895  56.967 -58.475  1.00  0.00    -0.274 N 
HETATM   12  N   UNL     1     -43.563  55.817 -58.259  1.00  0.00    -0.177 NA
HETATM   13  C   UNL     1     -43.855  55.367 -59.482  1.00  0.00     0.053 A 
HETATM   14  C   UNL     1     -44.637  54.120 -59.659  1.00  0.00     0.072 C 
HETATM   15  C   UNL     1     -43.347  56.223 -60.482  1.00  0.00     0.055 A 
HETATM   16  C   UNL     1     -42.727  57.255 -59.805  1.00  0.00     0.028 A 
HETATM   17  C   UNL     1     -42.035  58.457 -60.327  1.00  0.00     0.070 C 
ENDBRANCH  10  11
ENDBRANCH   8  10
ENDBRANCH   7   8
ENDBRANCH   1   7
BRANCH   3  18
HETATM   18  N   UNL     1     -44.220  56.072 -52.303  1.00  0.00    -0.264 N 
HETATM   19  C   UNL     1     -43.027  56.011 -51.619  1.00  0.00     0.260 C 
HETATM   20  O   UNL     1     -43.051  56.001 -50.384  1.00  0.00    -0.269 OA
HETATM   21  H   UNL     1     -45.040  56.281 -51.741  1.00  0.00     0.190 HD
BRANCH  19  22
HETATM   22  C   UNL     1     -41.715  55.927 -52.396  1.00  0.00     0.280 C 
BRANCH  22  23
HETATM   23  O   UNL     1     -40.807  55.124 -51.643  1.00  0.00    -0.342 OA
BRANCH  23  24
HETATM   24  C   UNL     1     -40.534  53.915 -52.213  1.00  0.00     0.069 A 
HETATM   25  C   UNL     1     -40.805  53.797 -53.578  1.00  0.00     0.038 A 
HETATM   26  C   UNL     1     -40.543  52.599 -54.243  1.00  0.00     0.022 A 
HETATM   27  C   UNL     1     -39.988  51.532 -53.541  1.00  0.00     0.011 A 
HETATM   28 BR   UNL     1     -39.642  49.904 -54.436  1.00  0.00    -0.051 Br
HETATM   29  C   UNL     1     -39.685  51.656 -52.185  1.00  0.00     0.022 A 
HETATM   30  C   UNL     1     -39.954  52.854 -51.519  1.00  0.00     0.038 A 
ENDBRANCH  23  24
ENDBRANCH  22  23
ENDBRANCH  19  22
ENDBRANCH   3  18
TORSDOF 8
ENDMDL
MODEL 2
REMARK VINA RESULT:      -7.5      1.560      1.886
REMARK  8 active torsions:
REMARK  status: ('A' for Active; 'I' for Inactive)
REMARK    1  A    between atoms: N_4  and  C_5 
REMARK    2  A    between atoms: C_5  and  C_6 
REMARK    3  A    between atoms: C_6  and  C_7 
REMARK    4  A    between atoms: C_7  and  N_8 
REMARK       I    between atoms: N_8  and  C_9 
REMARK       I    between atoms: C_9  and  N_10 
REMARK    5  A    between atoms: N_10  and  N_11 
REMARK       I    between atoms: N_11  and  C_12 
REMARK    6  A    between atoms: C_12  and  C_13 
REMARK    7  A    between atoms: C_13  and  O_14 
REMARK    8  A    between atoms: O_14  and  C_15 
ROOT
HETATM    1  N   UNL     1     -45.462  57.754 -56.631  1.00  0.00    -0.341 N 
HETATM    2  C   UNL     1     -45.317  57.868 -55.269  1.00  0.00     0.334 C 
HETATM    3  N   UNL     1     -45.017  56.650 -54.691  1.00  0.00    -0.249 N 
HETATM    4  O   UNL     1     -45.394  58.923 -54.655  1.00  0.00    -0.246 OA
HETATM    5  H   UNL     1     -45.785  56.868 -56.993  1.00  0.00     0.164 HD
HETATM    6  H   UNL     1     -44.631  55.917 -55.276  1.00  0.00     0.192 HD
ENDROOT
BRANCH   1   7
HETATM    7  C   UNL     1     -45.557  58.908 -57.503  1.00  0.00     0.130 C 
BRANCH   7   8
HETATM    8  C   UNL     1     -46.456  58.706 -58.734  1.00  0.00     0.019 C 
HETATM    9  C   UNL     1     -47.376  59.904 -58.983  1.00  0.00     0.013 C 
BRANCH   8  10
HETATM   10  C   UNL     1     -45.587  58.475 -59.986  1.00  0.00     0.156 C 
BRANCH  10  11
HETATM   11  N   UNL     1     -44.723  57.309 -59.875  1.00  0.00    -0.274 N 
HETATM   12  N   UNL     1     -45.299  56.119 -59.618  1.00  0.00    -0.177 NA
HETATM   13  C   UNL     1     -44.285  55.250 -59.626  1.00  0.00     0.053 A 
HETATM   14  C   UNL     1     -44.532  53.803 -59.419  1.00  0.00     0.072 C 
HETATM   15  C   UNL     1     -43.054  55.896 -59.865  1.00  0.00     0.055 A 
HETATM   16  C   UNL     1     -43.362  57.233 -60.022  1.00  0.00     0.028 A 
HETATM   17  C   UNL     1     -42.479  58.386 -60.315  1.00  0.00     0.070 C 
ENDBRANCH  10  11
ENDBRANCH   8  10
ENDBRANCH   7   8
ENDBRANCH   1   7
BRANCH   3  18
HETATM   18  N   UNL     1     -44.730  56.581 -53.325  1.00  0.00    -0.264 N 
HETATM   19  C   UNL     1     -43.468  56.504 -52.781  1.00  0.00     0.260 C 
HETATM   20  O   UNL     1     -43.348  56.536 -51.552  1.00  0.00    -0.269 OA
HETATM   21  H   UNL     1     -45.473  56.836 -52.680  1.00  0.00     0.190 HD
BRANCH  19  22
HETATM   22  C   UNL     1     -42.258  56.351 -53.699  1.00  0.00     0.280 C 
BRANCH  22  23
HETATM   23  O   UNL     1     -41.159  55.900 -52.910  1.00  0.00    -0.342 OA
BRANCH  23  24
HETATM   24  C   UNL     1     -40.825  54.594 -53.123  1.00  0.00     0.069 A 
HETATM   25  C   UNL     1     -40.735  54.184 -54.454  1.00  0.00     0.038 A 
HETATM   26  C   UNL     1     -40.387  52.869 -54.762  1.00  0.00     0.022 A 
HETATM   27  C   UNL     1     -40.107  51.975 -53.731  1.00  0.00     0.011 A 
HETATM   28 BR   UNL     1     -39.645  50.189 -54.142  1.00  0.00    -0.051 Br
HETATM   29  C   UNL     1     -40.163  52.388 -52.399  1.00  0.00     0.022 A 
HETATM   30  C   UNL     1     -40.519  53.705 -52.093  1.00  0.00     0.038 A 
ENDBRANCH  23  24
ENDBRANCH  22  23
ENDBRANCH  19  22
ENDBRANCH   3  18
TORSDOF 8
ENDMDL
MODEL 3
REMARK VINA RESULT:      -7.3      3.291      6.942
REMARK  8 active torsions:
REMARK  status: ('A' for Active; 'I' for Inactive)
REMARK    1  A    between atoms: N_4  and  C_5 
REMARK    2  A    between atoms: C_5  and  C_6 
REMARK    3  A    between atoms: C_6  and  C_7 
REMARK    4  A    between atoms: C_7  and  N_8 
REMARK       I    between atoms: N_8  and  C_9 
REMARK       I    between atoms: C_9  and  N_10 
REMARK    5  A    between atoms: N_10  and  N_11 
REMARK       I    between atoms: N_11  and  C_12 
REMARK    6  A    between atoms: C_12  and  C_13 
REMARK    7  A    between atoms: C_13  and  O_14 
REMARK    8  A    between atoms: O_14  and  C_15 
ROOT
HETATM    1  N   UNL     1     -42.468  56.189 -51.226  1.00  0.00    -0.341 N 
HETATM    2  C   UNL     1     -42.998  57.419 -51.533  1.00  0.00     0.334 C 
HETATM    3  N   UNL     1     -42.037  58.410 -51.475  1.00  0.00    -0.249 N 
HETATM    4  O   UNL     1     -44.161  57.604 -51.864  1.00  0.00    -0.246 OA
HETATM    5  H   UNL     1     -41.678  56.165 -50.599  1.00  0.00     0.164 HD
HETATM    6  H   UNL     1     -41.061  58.144 -51.542  1.00  0.00     0.192 HD
ENDROOT
BRANCH   1   7
HETATM    7  C   UNL     1     -43.201  54.954 -51.428  1.00  0.00     0.130 C 
BRANCH   7   8
HETATM    8  C   UNL     1     -42.841  54.203 -52.721  1.00  0.00     0.019 C 
HETATM    9  C   UNL     1     -43.617  54.727 -53.931  1.00  0.00     0.013 C 
BRANCH   8  10
HETATM   10  C   UNL     1     -41.331  54.333 -53.001  1.00  0.00     0.156 C 
BRANCH  10  11
HETATM   11  N   UNL     1     -40.604  53.088 -52.808  1.00  0.00    -0.274 N 
HETATM   12  N   UNL     1     -40.538  52.228 -53.843  1.00  0.00    -0.177 NA
HETATM   13  C   UNL     1     -39.780  51.224 -53.394  1.00  0.00     0.053 A 
HETATM   14  C   UNL     1     -39.440  50.084 -54.278  1.00  0.00     0.072 C 
HETATM   15  C   UNL     1     -39.383  51.435 -52.056  1.00  0.00     0.055 A 
HETATM   16  C   UNL     1     -39.930  52.651 -51.696  1.00  0.00     0.028 A 
HETATM   17  C   UNL     1     -39.834  53.398 -50.419  1.00  0.00     0.070 C 
ENDBRANCH  10  11
ENDBRANCH   8  10
ENDBRANCH   7   8
ENDBRANCH   1   7
BRANCH   3  18
HETATM   18  N   UNL     1     -42.361  59.715 -51.856  1.00  0.00    -0.264 N 
HETATM   19  C   UNL     1     -42.159  60.251 -53.108  1.00  0.00     0.260 C 
HETATM   20  O   UNL     1     -42.570  61.392 -53.338  1.00  0.00    -0.269 OA
HETATM   21  H   UNL     1     -42.993  60.232 -51.252  1.00  0.00     0.190 HD
BRANCH  19  22
HETATM   22  C   UNL     1     -41.412  59.440 -54.164  1.00  0.00     0.280 C 
BRANCH  22  23
HETATM   23  O   UNL     1     -41.761  59.958 -55.447  1.00  0.00    -0.342 OA
BRANCH  23  24
HETATM   24  C   UNL     1     -42.115  59.001 -56.353  1.00  0.00     0.069 A 
HETATM   25  C   UNL     1     -41.974  59.339 -57.699  1.00  0.00     0.038 A 
HETATM   26  C   UNL     1     -42.300  58.415 -58.692  1.00  0.00     0.022 A 
HETATM   27  C   UNL     1     -42.745  57.146 -58.328  1.00  0.00     0.011 A 
HETATM   28 BR   UNL     1     -43.199  55.894 -59.670  1.00  0.00    -0.051 Br
HETATM   29  C   UNL     1     -42.856  56.792 -56.983  1.00  0.00     0.022 A 
HETATM   30  C   UNL     1     -42.534  57.722 -55.990  1.00  0.00     0.038 A 
ENDBRANCH  23  24
ENDBRANCH  22  23
ENDBRANCH  19  22
ENDBRANCH   3  18
TORSDOF 8
ENDMDL
MODEL 4
REMARK VINA RESULT:      -7.3      2.193      3.016
REMARK  8 active torsions:
REMARK  status: ('A' for Active; 'I' for Inactive)
REMARK    1  A    between atoms: N_4  and  C_5 
REMARK    2  A    between atoms: C_5  and  C_6 
REMARK    3  A    between atoms: C_6  and  C_7 
REMARK    4  A    between atoms: C_7  and  N_8 
REMARK       I    between atoms: N_8  and  C_9 
REMARK       I    between atoms: C_9  and  N_10 
REMARK    5  A    between atoms: N_10  and  N_11 
REMARK       I    between atoms: N_11  and  C_12 
REMARK    6  A    between atoms: C_12  and  C_13 
REMARK    7  A    between atoms: C_13  and  O_14 
REMARK    8  A    between atoms: O_14  and  C_15 
ROOT
HETATM    1  N   UNL     1     -41.947  58.806 -52.006  1.00  0.00    -0.341 N 
HETATM    2  C   UNL     1     -42.392  57.819 -51.161  1.00  0.00     0.334 C 
HETATM    3  N   UNL     1     -41.368  57.333 -50.370  1.00  0.00    -0.249 N 
HETATM    4  O   UNL     1     -43.557  57.453 -51.083  1.00  0.00    -0.246 OA
HETATM    5  H   UNL     1     -40.982  58.766 -52.302  1.00  0.00     0.164 HD
HETATM    6  H   UNL     1     -40.542  57.906 -50.241  1.00  0.00     0.192 HD
ENDROOT
BRANCH   1   7
HETATM    7  C   UNL     1     -42.851  59.635 -52.779  1.00  0.00     0.130 C 
BRANCH   7   8
HETATM    8  C   UNL     1     -43.399  58.968 -54.051  1.00  0.00     0.019 C 
HETATM    9  C   UNL     1     -44.391  59.866 -54.795  1.00  0.00     0.013 C 
BRANCH   8  10
HETATM   10  C   UNL     1     -42.237  58.613 -55.000  1.00  0.00     0.156 C 
BRANCH  10  11
HETATM   11  N   UNL     1     -42.484  57.409 -55.779  1.00  0.00    -0.274 N 
HETATM   12  N   UNL     1     -42.776  56.275 -55.113  1.00  0.00    -0.177 NA
HETATM   13  C   UNL     1     -42.999  55.373 -56.073  1.00  0.00     0.053 A 
HETATM   14  C   UNL     1     -43.397  53.988 -55.726  1.00  0.00     0.072 C 
HETATM   15  C   UNL     1     -42.822  55.931 -57.356  1.00  0.00     0.055 A 
HETATM   16  C   UNL     1     -42.486  57.253 -57.142  1.00  0.00     0.028 A 
HETATM   17  C   UNL     1     -42.204  58.335 -58.115  1.00  0.00     0.070 C 
ENDBRANCH  10  11
ENDBRANCH   8  10
ENDBRANCH   7   8
ENDBRANCH   1   7
BRANCH   3  18
HETATM   18  N   UNL     1     -41.646  56.395 -49.372  1.00  0.00    -0.264 N 
HETATM   19  C   UNL     1     -41.000  55.190 -49.214  1.00  0.00     0.260 C 
HETATM   20  O   UNL     1     -41.283  54.489 -48.237  1.00  0.00    -0.269 OA
HETATM   21  H   UNL     1     -42.192  56.710 -48.576  1.00  0.00     0.190 HD
BRANCH  19  22
HETATM   22  C   UNL     1     -39.979  54.737 -50.255  1.00  0.00     0.280 C 
BRANCH  22  23
HETATM   23  O   UNL     1     -40.624  54.722 -51.528  1.00  0.00    -0.342 OA
BRANCH  23  24
HETATM   24  C   UNL     1     -40.364  53.605 -52.266  1.00  0.00     0.069 A 
HETATM   25  C   UNL     1     -39.868  52.502 -51.569  1.00  0.00     0.038 A 
HETATM   26  C   UNL     1     -39.587  51.314 -52.244  1.00  0.00     0.022 A 
HETATM   27  C   UNL     1     -39.829  51.230 -53.614  1.00  0.00     0.011 A 
HETATM   28 BR   UNL     1     -39.441  49.626 -54.535  1.00  0.00    -0.051 Br
HETATM   29  C   UNL     1     -40.357  52.319 -54.309  1.00  0.00     0.022 A 
HETATM   30  C   UNL     1     -40.631  53.510 -53.631  1.00  0.00     0.038 A 
ENDBRANCH  23  24
ENDBRANCH  22  23
ENDBRANCH  19  22
ENDBRANCH   3  18
TORSDOF 8
ENDMDL
MODEL 5
REMARK VINA RESULT:      -7.3      1.535      2.959
REMARK  8 active torsions:
REMARK  status: ('A' for Active; 'I' for Inactive)
REMARK    1  A    between atoms: N_4  and  C_5 
REMARK    2  A    between atoms: C_5  and  C_6 
REMARK    3  A    between atoms: C_6  and  C_7 
REMARK    4  A    between atoms: C_7  and  N_8 
REMARK       I    between atoms: N_8  and  C_9 
REMARK       I    between atoms: C_9  and  N_10 
REMARK    5  A    between atoms: N_10  and  N_11 
REMARK       I    between atoms: N_11  and  C_12 
REMARK    6  A    between atoms: C_12  and  C_13 
REMARK    7  A    between atoms: C_13  and  O_14 
REMARK    8  A    between atoms: O_14  and  C_15 
ROOT
HETATM    1  N   UNL     1     -43.632  55.583 -56.528  1.00  0.00    -0.341 N 
HETATM    2  C   UNL     1     -43.725  56.528 -55.534  1.00  0.00     0.334 C 
HETATM    3  N   UNL     1     -44.378  56.028 -54.423  1.00  0.00    -0.249 N 
HETATM    4  O   UNL     1     -43.245  57.651 -55.605  1.00  0.00    -0.246 OA
HETATM    5  H   UNL     1     -44.358  54.882 -56.573  1.00  0.00     0.164 HD
HETATM    6  H   UNL     1     -44.429  55.023 -54.302  1.00  0.00     0.192 HD
ENDROOT
BRANCH   1   7
HETATM    7  C   UNL     1     -42.805  55.769 -57.703  1.00  0.00     0.130 C 
BRANCH   7   8
HETATM    8  C   UNL     1     -43.581  55.795 -59.032  1.00  0.00     0.019 C 
HETATM    9  C   UNL     1     -44.286  54.467 -59.317  1.00  0.00     0.013 C 
BRANCH   8  10
HETATM   10  C   UNL     1     -44.631  56.923 -59.005  1.00  0.00     0.156 C 
BRANCH  10  11
HETATM   11  N   UNL     1     -44.068  58.235 -59.284  1.00  0.00    -0.274 N 
HETATM   12  N   UNL     1     -43.155  58.333 -60.269  1.00  0.00    -0.177 NA
HETATM   13  C   UNL     1     -42.867  59.636 -60.327  1.00  0.00     0.053 A 
HETATM   14  C   UNL     1     -41.913  60.152 -61.338  1.00  0.00     0.072 C 
HETATM   15  C   UNL     1     -43.583  60.367 -59.356  1.00  0.00     0.055 A 
HETATM   16  C   UNL     1     -44.356  59.437 -58.689  1.00  0.00     0.028 A 
HETATM   17  C   UNL     1     -45.326  59.620 -57.584  1.00  0.00     0.070 C 
ENDBRANCH  10  11
ENDBRANCH   8  10
ENDBRANCH   7   8
ENDBRANCH   1   7
BRANCH   3  18
HETATM   18  N   UNL     1     -44.479  56.808 -53.268  1.00  0.00    -0.264 N 
HETATM   19  C   UNL     1     -43.895  56.513 -52.057  1.00  0.00     0.260 C 
HETATM   20  O   UNL     1     -43.991  57.331 -51.137  1.00  0.00    -0.269 OA
HETATM   21  H   UNL     1     -44.806  57.763 -53.379  1.00  0.00     0.190 HD
BRANCH  19  22
HETATM   22  C   UNL     1     -43.173  55.180 -51.872  1.00  0.00     0.280 C 
BRANCH  22  23
HETATM   23  O   UNL     1     -41.890  55.284 -52.486  1.00  0.00    -0.342 OA
BRANCH  23  24
HETATM   24  C   UNL     1     -41.340  54.082 -52.826  1.00  0.00     0.069 A 
HETATM   25  C   UNL     1     -41.717  53.554 -54.062  1.00  0.00     0.038 A 
HETATM   26  C   UNL     1     -41.192  52.336 -54.494  1.00  0.00     0.022 A 
HETATM   27  C   UNL     1     -40.273  51.662 -53.692  1.00  0.00     0.011 A 
HETATM   28 BR   UNL     1     -39.568  50.006 -54.268  1.00  0.00    -0.051 Br
HETATM   29  C   UNL     1     -39.868  52.202 -52.471  1.00  0.00     0.022 A 
HETATM   30  C   UNL     1     -40.400  53.419 -52.037  1.00  0.00     0.038 A 
ENDBRANCH  23  24
ENDBRANCH  22  23
ENDBRANCH  19  22
ENDBRANCH   3  18
TORSDOF 8
ENDMDL
MODEL 6
REMARK VINA RESULT:      -7.3      1.722      3.202
REMARK  8 active torsions:
REMARK  status: ('A' for Active; 'I' for Inactive)
REMARK    1  A    between atoms: N_4  and  C_5 
REMARK    2  A    between atoms: C_5  and  C_6 
REMARK    3  A    between atoms: C_6  and  C_7 
REMARK    4  A    between atoms: C_7  and  N_8 
REMARK       I    between atoms: N_8  and  C_9 
REMARK       I    between atoms: C_9  and  N_10 
REMARK    5  A    between atoms: N_10  and  N_11 
REMARK       I    between atoms: N_11  and  C_12 
REMARK    6  A    between atoms: C_12  and  C_13 
REMARK    7  A    between atoms: C_13  and  O_14 
REMARK    8  A    between atoms: O_14  and  C_15 
ROOT
HETATM    1  N   UNL     1     -43.343  55.606 -57.086  1.00  0.00    -0.341 N 
HETATM    2  C   UNL     1     -43.627  56.293 -55.930  1.00  0.00     0.334 C 
HETATM    3  N   UNL     1     -43.910  55.430 -54.888  1.00  0.00    -0.249 N 
HETATM    4  O   UNL     1     -43.583  57.511 -55.825  1.00  0.00    -0.246 OA
HETATM    5  H   UNL     1     -43.777  54.703 -57.210  1.00  0.00     0.164 HD
HETATM    6  H   UNL     1     -43.591  54.470 -54.953  1.00  0.00     0.192 HD
ENDROOT
BRANCH   1   7
HETATM    7  C   UNL     1     -42.798  56.255 -58.262  1.00  0.00     0.130 C 
BRANCH   7   8
HETATM    8  C   UNL     1     -43.333  55.710 -59.597  1.00  0.00     0.019 C 
HETATM    9  C   UNL     1     -44.264  54.511 -59.403  1.00  0.00     0.013 C 
BRANCH   8  10
HETATM   10  C   UNL     1     -44.096  56.818 -60.349  1.00  0.00     0.156 C 
BRANCH  10  11
HETATM   11  N   UNL     1     -45.147  57.430 -59.549  1.00  0.00    -0.274 N 
HETATM   12  N   UNL     1     -44.791  58.365 -58.648  1.00  0.00    -0.177 NA
HETATM   13  C   UNL     1     -45.948  58.773 -58.117  1.00  0.00     0.053 A 
HETATM   14  C   UNL     1     -45.970  59.848 -57.096  1.00  0.00     0.072 C 
HETATM   15  C   UNL     1     -47.043  58.075 -58.668  1.00  0.00     0.055 A 
HETATM   16  C   UNL     1     -46.500  57.207 -59.595  1.00  0.00     0.028 A 
HETATM   17  C   UNL     1     -47.165  56.238 -60.497  1.00  0.00     0.070 C 
ENDBRANCH  10  11
ENDBRANCH   8  10
ENDBRANCH   7   8
ENDBRANCH   1   7
BRANCH   3  18
HETATM   18  N   UNL     1     -44.123  55.938 -53.603  1.00  0.00    -0.264 N 
HETATM   19  C   UNL     1     -43.137  56.384 -52.753  1.00  0.00     0.260 C 
HETATM   20  O   UNL     1     -43.468  56.891 -51.676  1.00  0.00    -0.269 OA
HETATM   21  H   UNL     1     -45.071  56.213 -53.364  1.00  0.00     0.190 HD
BRANCH  19  22
HETATM   22  C   UNL     1     -41.671  56.219 -53.144  1.00  0.00     0.280 C 
BRANCH  22  23
HETATM   23  O   UNL     1     -41.059  55.341 -52.200  1.00  0.00    -0.342 OA
BRANCH  23  24
HETATM   24  C   UNL     1     -40.698  54.133 -52.720  1.00  0.00     0.069 A 
HETATM   25  C   UNL     1     -40.273  53.166 -51.808  1.00  0.00     0.038 A 
HETATM   26  C   UNL     1     -39.899  51.898 -52.252  1.00  0.00     0.022 A 
HETATM   27  C   UNL     1     -39.974  51.598 -53.611  1.00  0.00     0.011 A 
HETATM   28 BR   UNL     1     -39.457  49.885 -54.220  1.00  0.00    -0.051 Br
HETATM   29  C   UNL     1     -40.430  52.550 -54.523  1.00  0.00     0.022 A 
HETATM   30  C   UNL     1     -40.798  53.822 -54.076  1.00  0.00     0.038 A 
ENDBRANCH  23  24
ENDBRANCH  22  23
ENDBRANCH  19  22
ENDBRANCH   3  18
TORSDOF 8
ENDMDL
MODEL 7
REMARK VINA RESULT:      -7.2      4.325      8.698
REMARK  8 active torsions:
REMARK  status: ('A' for Active; 'I' for Inactive)
REMARK    1  A    between atoms: N_4  and  C_5 
REMARK    2  A    between atoms: C_5  and  C_6 
REMARK    3  A    between atoms: C_6  and  C_7 
REMARK    4  A    between atoms: C_7  and  N_8 
REMARK       I    between atoms: N_8  and  C_9 
REMARK       I    between atoms: C_9  and  N_10 
REMARK    5  A    between atoms: N_10  and  N_11 
REMARK       I    between atoms: N_11  and  C_12 
REMARK    6  A    between atoms: C_12  and  C_13 
REMARK    7  A    between atoms: C_13  and  O_14 
REMARK    8  A    between atoms: O_14  and  C_15 
ROOT
HETATM    1  N   UNL     1     -44.033  56.132 -54.917  1.00  0.00    -0.341 N 
HETATM    2  C   UNL     1     -43.121  56.444 -55.896  1.00  0.00     0.334 C 
HETATM    3  N   UNL     1     -43.274  55.634 -57.004  1.00  0.00    -0.249 N 
HETATM    4  O   UNL     1     -42.311  57.358 -55.815  1.00  0.00    -0.246 OA
HETATM    5  H   UNL     1     -44.359  55.177 -54.871  1.00  0.00     0.164 HD
HETATM    6  H   UNL     1     -44.158  55.158 -57.139  1.00  0.00     0.192 HD
ENDROOT
BRANCH   1   7
HETATM    7  C   UNL     1     -44.240  56.967 -53.751  1.00  0.00     0.130 C 
BRANCH   7   8
HETATM    8  C   UNL     1     -43.379  56.587 -52.534  1.00  0.00     0.019 C 
HETATM    9  C   UNL     1     -43.685  57.459 -51.313  1.00  0.00     0.013 C 
BRANCH   8  10
HETATM   10  C   UNL     1     -43.615  55.110 -52.164  1.00  0.00     0.156 C 
BRANCH  10  11
HETATM   11  N   UNL     1     -42.412  54.296 -52.266  1.00  0.00    -0.274 N 
HETATM   12  N   UNL     1     -42.099  53.781 -53.470  1.00  0.00    -0.177 NA
HETATM   13  C   UNL     1     -40.943  53.142 -53.268  1.00  0.00     0.053 A 
HETATM   14  C   UNL     1     -40.248  52.470 -54.391  1.00  0.00     0.072 C 
HETATM   15  C   UNL     1     -40.533  53.231 -51.921  1.00  0.00     0.055 A 
HETATM   16  C   UNL     1     -41.502  53.984 -51.288  1.00  0.00     0.028 A 
HETATM   17  C   UNL     1     -41.597  54.424 -49.876  1.00  0.00     0.070 C 
ENDBRANCH  10  11
ENDBRANCH   8  10
ENDBRANCH   7   8
ENDBRANCH   1   7
BRANCH   3  18
HETATM   18  N   UNL     1     -42.504  55.867 -58.147  1.00  0.00    -0.264 N 
HETATM   19  C   UNL     1     -42.990  55.929 -59.433  1.00  0.00     0.260 C 
HETATM   20  O   UNL     1     -42.214  56.229 -60.347  1.00  0.00    -0.269 OA
HETATM   21  H   UNL     1     -41.570  56.243 -58.010  1.00  0.00     0.190 HD
BRANCH  19  22
HETATM   22  C   UNL     1     -44.456  55.601 -59.703  1.00  0.00     0.280 C 
BRANCH  22  23
HETATM   23  O   UNL     1     -45.248  56.683 -59.215  1.00  0.00    -0.342 OA
BRANCH  23  24
HETATM   24  C   UNL     1     -46.246  57.065 -60.063  1.00  0.00     0.069 A 
HETATM   25  C   UNL     1     -46.513  58.434 -60.130  1.00  0.00     0.038 A 
HETATM   26  C   UNL     1     -47.509  58.913 -60.981  1.00  0.00     0.022 A 
HETATM   27  C   UNL     1     -48.218  58.018 -61.779  1.00  0.00     0.011 A 
HETATM   28 BR   UNL     1     -49.576  58.662 -62.926  1.00  0.00    -0.051 Br
HETATM   29  C   UNL     1     -47.932  56.653 -61.740  1.00  0.00     0.022 A 
HETATM   30  C   UNL     1     -46.939  56.174 -60.881  1.00  0.00     0.038 A 
ENDBRANCH  23  24
ENDBRANCH  22  23
ENDBRANCH  19  22
ENDBRANCH   3  18
TORSDOF 8
ENDMDL
MODEL 8
REMARK VINA RESULT:      -7.2      3.403      6.837
REMARK  8 active torsions:
REMARK  status: ('A' for Active; 'I' for Inactive)
REMARK    1  A    between atoms: N_4  and  C_5 
REMARK    2  A    between atoms: C_5  and  C_6 
REMARK    3  A    between atoms: C_6  and  C_7 
REMARK    4  A    between atoms: C_7  and  N_8 
REMARK       I    between atoms: N_8  and  C_9 
REMARK       I    between atoms: C_9  and  N_10 
REMARK    5  A    between atoms: N_10  and  N_11 
REMARK       I    between atoms: N_11  and  C_12 
REMARK    6  A    between atoms: C_12  and  C_13 
REMARK    7  A    between atoms: C_13  and  O_14 
REMARK    8  A    between atoms: O_14  and  C_15 
ROOT
HETATM    1  N   UNL     1     -43.976  55.818 -55.107  1.00  0.00    -0.341 N 
HETATM    2  C   UNL     1     -44.533  56.968 -54.602  1.00  0.00     0.334 C 
HETATM    3  N   UNL     1     -45.018  57.778 -55.611  1.00  0.00    -0.249 N 
HETATM    4  O   UNL     1     -44.632  57.217 -53.409  1.00  0.00    -0.246 OA
HETATM    5  H   UNL     1     -43.572  55.863 -56.032  1.00  0.00     0.164 HD
HETATM    6  H   UNL     1     -45.216  57.362 -56.514  1.00  0.00     0.192 HD
ENDROOT
BRANCH   1   7
HETATM    7  C   UNL     1     -43.597  54.701 -54.264  1.00  0.00     0.130 C 
BRANCH   7   8
HETATM    8  C   UNL     1     -42.151  54.215 -54.461  1.00  0.00     0.019 C 
HETATM    9  C   UNL     1     -41.382  55.074 -55.468  1.00  0.00     0.013 C 
BRANCH   8  10
HETATM   10  C   UNL     1     -41.403  54.235 -53.113  1.00  0.00     0.156 C 
BRANCH  10  11
HETATM   11  N   UNL     1     -40.654  53.013 -52.857  1.00  0.00    -0.274 N 
HETATM   12  N   UNL     1     -40.570  52.105 -53.849  1.00  0.00    -0.177 NA
HETATM   13  C   UNL     1     -39.795  51.138 -53.350  1.00  0.00     0.053 A 
HETATM   14  C   UNL     1     -39.431  49.963 -54.176  1.00  0.00     0.072 C 
HETATM   15  C   UNL     1     -39.406  51.422 -52.023  1.00  0.00     0.055 A 
HETATM   16  C   UNL     1     -39.976  52.643 -51.724  1.00  0.00     0.028 A 
HETATM   17  C   UNL     1     -39.898  53.454 -50.486  1.00  0.00     0.070 C 
ENDBRANCH  10  11
ENDBRANCH   8  10
ENDBRANCH   7   8
ENDBRANCH   1   7
BRANCH   3  18
HETATM   18  N   UNL     1     -45.714  58.947 -55.289  1.00  0.00    -0.264 N 
HETATM   19  C   UNL     1     -45.230  60.226 -55.440  1.00  0.00     0.260 C 
HETATM   20  O   UNL     1     -45.981  61.176 -55.199  1.00  0.00    -0.269 OA
HETATM   21  H   UNL     1     -46.718  58.868 -55.156  1.00  0.00     0.190 HD
BRANCH  19  22
HETATM   22  C   UNL     1     -43.780  60.439 -55.867  1.00  0.00     0.280 C 
BRANCH  22  23
HETATM   23  O   UNL     1     -43.084  61.048 -54.781  1.00  0.00    -0.342 OA
BRANCH  23  24
HETATM   24  C   UNL     1     -42.554  60.157 -53.894  1.00  0.00     0.069 A 
HETATM   25  C   UNL     1     -42.989  60.264 -52.572  1.00  0.00     0.038 A 
HETATM   26  C   UNL     1     -42.508  59.384 -51.602  1.00  0.00     0.022 A 
HETATM   27  C   UNL     1     -41.608  58.386 -51.968  1.00  0.00     0.011 A 
HETATM   28 BR   UNL     1     -40.945  57.199 -50.655  1.00  0.00    -0.051 Br
HETATM   29  C   UNL     1     -41.195  58.255 -53.294  1.00  0.00     0.022 A 
HETATM   30  C   UNL     1     -41.674  59.141 -54.263  1.00  0.00     0.038 A 
ENDBRANCH  23  24
ENDBRANCH  22  23
ENDBRANCH  19  22
ENDBRANCH   3  18
TORSDOF 8
ENDMDL
MODEL 9
REMARK VINA RESULT:      -7.2      3.286      7.322
REMARK  8 active torsions:
REMARK  status: ('A' for Active; 'I' for Inactive)
REMARK    1  A    between atoms: N_4  and  C_5 
REMARK    2  A    between atoms: C_5  and  C_6 
REMARK    3  A    between atoms: C_6  and  C_7 
REMARK    4  A    between atoms: C_7  and  N_8 
REMARK       I    between atoms: N_8  and  C_9 
REMARK       I    between atoms: C_9  and  N_10 
REMARK    5  A    between atoms: N_10  and  N_11 
REMARK       I    between atoms: N_11  and  C_12 
REMARK    6  A    between atoms: C_12  and  C_13 
REMARK    7  A    between atoms: C_13  and  O_14 
REMARK    8  A    between atoms: O_14  and  C_15 
ROOT
HETATM    1  N   UNL     1     -41.220  56.496 -51.104  1.00  0.00    -0.341 N 
HETATM    2  C   UNL     1     -41.183  57.866 -51.199  1.00  0.00     0.334 C 
HETATM    3  N   UNL     1     -41.505  58.292 -52.473  1.00  0.00    -0.249 N 
HETATM    4  O   UNL     1     -40.945  58.614 -50.260  1.00  0.00    -0.246 OA
HETATM    5  H   UNL     1     -41.017  55.965 -51.938  1.00  0.00     0.164 HD
HETATM    6  H   UNL     1     -42.018  57.662 -53.079  1.00  0.00     0.192 HD
ENDROOT
BRANCH   1   7
HETATM    7  C   UNL     1     -41.144  55.802 -49.834  1.00  0.00     0.130 C 
BRANCH   7   8
HETATM    8  C   UNL     1     -40.353  54.483 -49.873  1.00  0.00     0.019 C 
HETATM    9  C   UNL     1     -39.965  53.998 -48.474  1.00  0.00     0.013 C 
BRANCH   8  10
HETATM   10  C   UNL     1     -41.189  53.390 -50.567  1.00  0.00     0.156 C 
BRANCH  10  11
HETATM   11  N   UNL     1     -40.674  53.024 -51.878  1.00  0.00    -0.274 N 
HETATM   12  N   UNL     1     -40.892  53.872 -52.902  1.00  0.00    -0.177 NA
HETATM   13  C   UNL     1     -40.272  53.306 -53.941  1.00  0.00     0.053 A 
HETATM   14  C   UNL     1     -40.253  53.977 -55.262  1.00  0.00     0.072 C 
HETATM   15  C   UNL     1     -39.677  52.079 -53.581  1.00  0.00     0.055 A 
HETATM   16  C   UNL     1     -39.952  51.914 -52.237  1.00  0.00     0.028 A 
HETATM   17  C   UNL     1     -39.564  50.824 -51.312  1.00  0.00     0.070 C 
ENDBRANCH  10  11
ENDBRANCH   8  10
ENDBRANCH   7   8
ENDBRANCH   1   7
BRANCH   3  18
HETATM   18  N   UNL     1     -41.621  59.659 -52.741  1.00  0.00    -0.264 N 
HETATM   19  C   UNL     1     -42.375  60.208 -53.753  1.00  0.00     0.260 C 
HETATM   20  O   UNL     1     -42.462  61.438 -53.827  1.00  0.00    -0.269 OA
HETATM   21  H   UNL     1     -41.325  60.302 -52.012  1.00  0.00     0.190 HD
BRANCH  19  22
HETATM   22  C   UNL     1     -43.055  59.294 -54.769  1.00  0.00     0.280 C 
BRANCH  22  23
HETATM   23  O   UNL     1     -42.071  58.874 -55.713  1.00  0.00    -0.342 OA
BRANCH  23  24
HETATM   24  C   UNL     1     -42.554  58.044 -56.683  1.00  0.00     0.069 A 
HETATM   25  C   UNL     1     -42.597  56.684 -56.370  1.00  0.00     0.038 A 
HETATM   26  C   UNL     1     -43.088  55.766 -57.298  1.00  0.00     0.022 A 
HETATM   27  C   UNL     1     -43.555  56.220 -58.530  1.00  0.00     0.011 A 
HETATM   28 BR   UNL     1     -44.211  54.979 -59.795  1.00  0.00    -0.051 Br
HETATM   29  C   UNL     1     -43.545  57.581 -58.834  1.00  0.00     0.022 A 
HETATM   30  C   UNL     1     -43.046  58.498 -57.905  1.00  0.00     0.038 A 
ENDBRANCH  23  24
ENDBRANCH  22  23
ENDBRANCH  19  22
ENDBRANCH   3  18
TORSDOF 8
ENDMDL
MODEL 10
REMARK VINA RESULT:      -7.2      2.203      2.778
REMARK  8 active torsions:
REMARK  status: ('A' for Active; 'I' for Inactive)
REMARK    1  A    between atoms: N_4  and  C_5 
REMARK    2  A    between atoms: C_5  and  C_6 
REMARK    3  A    between atoms: C_6  and  C_7 
REMARK    4  A    between atoms: C_7  and  N_8 
REMARK       I    between atoms: N_8  and  C_9 
REMARK       I    between atoms: C_9  and  N_10 
REMARK    5  A    between atoms: N_10  and  N_11 
REMARK       I    between atoms: N_11  and  C_12 
REMARK    6  A    between atoms: C_12  and  C_13 
REMARK    7  A    between atoms: C_13  and  O_14 
REMARK    8  A    between atoms: O_14  and  C_15 
ROOT
HETATM    1  N   UNL     1     -44.774  59.338 -55.056  1.00  0.00    -0.341 N 
HETATM    2  C   UNL     1     -43.561  59.935 -54.806  1.00  0.00     0.334 C 
HETATM    3  N   UNL     1     -42.793  59.174 -53.946  1.00  0.00    -0.249 N 
HETATM    4  O   UNL     1     -43.191  60.981 -55.321  1.00  0.00    -0.246 OA
HETATM    5  H   UNL     1     -45.161  58.749 -54.333  1.00  0.00     0.164 HD
HETATM    6  H   UNL     1     -43.008  58.189 -53.847  1.00  0.00     0.192 HD
ENDROOT
BRANCH   1   7
HETATM    7  C   UNL     1     -45.674  59.808 -56.090  1.00  0.00     0.130 C 
BRANCH   7   8
HETATM    8  C   UNL     1     -46.008  58.763 -57.168  1.00  0.00     0.019 C 
HETATM    9  C   UNL     1     -47.402  58.970 -57.764  1.00  0.00     0.013 C 
BRANCH   8  10
HETATM   10  C   UNL     1     -44.966  58.827 -58.302  1.00  0.00     0.156 C 
BRANCH  10  11
HETATM   11  N   UNL     1     -44.516  57.515 -58.740  1.00  0.00    -0.274 N 
HETATM   12  N   UNL     1     -45.170  56.932 -59.764  1.00  0.00    -0.177 NA
HETATM   13  C   UNL     1     -44.513  55.787 -59.970  1.00  0.00     0.053 A 
HETATM   14  C   UNL     1     -44.918  54.874 -61.064  1.00  0.00     0.072 C 
HETATM   15  C   UNL     1     -43.450  55.630 -59.056  1.00  0.00     0.055 A 
HETATM   16  C   UNL     1     -43.471  56.763 -58.266  1.00  0.00     0.028 A 
HETATM   17  C   UNL     1     -42.581  57.164 -57.151  1.00  0.00     0.070 C 
ENDBRANCH  10  11
ENDBRANCH   8  10
ENDBRANCH   7   8
ENDBRANCH   1   7
BRANCH   3  18
HETATM   18  N   UNL     1     -41.483  59.565 -53.654  1.00  0.00    -0.264 N 
HETATM   19  C   UNL     1     -40.521  58.759 -53.089  1.00  0.00     0.260 C 
HETATM   20  O   UNL     1     -39.376  59.203 -52.963  1.00  0.00    -0.269 OA
HETATM   21  H   UNL     1     -41.144  60.417 -54.092  1.00  0.00     0.190 HD
BRANCH  19  22
HETATM   22  C   UNL     1     -40.896  57.360 -52.609  1.00  0.00     0.280 C 
BRANCH  22  23
HETATM   23  O   UNL     1     -41.392  56.626 -53.727  1.00  0.00    -0.342 OA
BRANCH  23  24
HETATM   24  C   UNL     1     -41.063  55.302 -53.711  1.00  0.00     0.069 A 
HETATM   25  C   UNL     1     -40.555  54.774 -54.899  1.00  0.00     0.038 A 
HETATM   26  C   UNL     1     -40.181  53.432 -54.967  1.00  0.00     0.022 A 
HETATM   27  C   UNL     1     -40.298  52.630 -53.834  1.00  0.00     0.011 A 
HETATM   28 BR   UNL     1     -39.803  50.808 -53.924  1.00  0.00    -0.051 Br
HETATM   29  C   UNL     1     -40.774  53.161 -52.635  1.00  0.00     0.022 A 
HETATM   30  C   UNL     1     -41.154  54.505 -52.571  1.00  0.00     0.038 A 
ENDBRANCH  23  24
ENDBRANCH  22  23
ENDBRANCH  19  22
ENDBRANCH   3  18
TORSDOF 8
ENDMDL
