MODEL 1
REMARK VINA RESULT:      -8.5      0.000      0.000
REMARK  6 active torsions:
REMARK  status: ('A' for Active; 'I' for Inactive)
REMARK    1  A    between atoms: C_3  and  C_4 
REMARK    2  A    between atoms: C_4  and  N_5 
REMARK    3  A    between atoms: N_5  and  C_8 
REMARK    4  A    between atoms: C_8  and  C_9 
REMARK    5  A    between atoms: N_12  and  C_13 
REMARK    6  A    between atoms: C_28  and  O_29 
ROOT
HETATM    1  N   UNL     1     -43.869  56.589 -53.135  1.00  0.00    -0.062 N 
HETATM    2  H   UNL     1     -44.274  56.687 -52.196  1.00  0.00     0.278 HD
HETATM    3  H   UNL     1     -44.032  55.610 -53.393  1.00  0.00     0.278 HD
ENDROOT
BRANCH   1   4
HETATM    4  C   UNL     1     -44.672  57.442 -54.049  1.00  0.00     0.290 C 
BRANCH   4   5
HETATM    5  C   UNL     1     -44.045  57.461 -55.391  1.00  0.00     0.042 A 
HETATM    6  C   UNL     1     -43.439  58.490 -56.104  1.00  0.00    -0.025 A 
HETATM    7  C   UNL     1     -43.247  59.910 -55.692  1.00  0.00     0.051 C 
HETATM    8  C   UNL     1     -43.040  57.947 -57.367  1.00  0.00     0.001 A 
HETATM    9  C   UNL     1     -43.420  56.610 -57.391  1.00  0.00     0.043 A 
HETATM   10  C   UNL     1     -42.403  58.482 -58.506  1.00  0.00     0.051 A 
HETATM   11  N   UNL     1     -44.030  56.339 -56.192  1.00  0.00    -0.357 N 
HETATM   12  C   UNL     1     -43.193  55.779 -58.494  1.00  0.00     0.033 A 
HETATM   13  H   UNL     1     -44.430  55.435 -55.968  1.00  0.00     0.166 HD
HETATM   14  C   UNL     1     -42.566  56.338 -59.615  1.00  0.00     0.039 A 
HETATM   15  C   UNL     1     -42.180  57.677 -59.631  1.00  0.00     0.069 A 
BRANCH  15  16
HETATM   16  O   UNL     1     -41.572  58.323 -60.673  1.00  0.00    -0.356 OA
HETATM   17  C   UNL     1     -41.930  59.684 -60.883  1.00  0.00     0.210 C 
ENDBRANCH  15  16
ENDBRANCH   4   5
ENDBRANCH   1   4
BRANCH   1  18
HETATM   18  C   UNL     1     -42.397  56.846 -53.036  1.00  0.00     0.218 C 
HETATM   19  C   UNL     1     -42.053  57.463 -51.683  1.00  0.00     0.045 C 
BRANCH  18  20
HETATM   20  C   UNL     1     -41.603  55.633 -53.396  1.00  0.00     0.015 C 
HETATM   21  C   UNL     1     -41.510  54.424 -52.707  1.00  0.00     0.042 C 
HETATM   22  C   UNL     1     -42.150  54.036 -51.420  1.00  0.00     0.071 C 
HETATM   23  N   UNL     1     -40.636  53.609 -53.439  1.00  0.00    -0.238 N 
HETATM   24  N   UNL     1     -40.067  54.328 -54.444  1.00  0.00    -0.179 NA
HETATM   25  C   UNL     1     -40.726  55.474 -54.485  1.00  0.00     0.150 C 
BRANCH  23  26
HETATM   26  C   UNL     1     -40.261  52.242 -53.271  1.00  0.00     0.058 A 
HETATM   27  C   UNL     1     -39.732  51.748 -52.073  1.00  0.00     0.031 A 
HETATM   28  C   UNL     1     -39.379  50.398 -51.961  1.00  0.00     0.002 A 
HETATM   29  C   UNL     1     -39.558  49.531 -53.036  1.00  0.00     0.000 A 
HETATM   30  C   UNL     1     -40.106  50.005 -54.223  1.00  0.00     0.002 A 
HETATM   31  C   UNL     1     -40.466  51.349 -54.338  1.00  0.00     0.031 A 
ENDBRANCH  23  26
ENDBRANCH  18  20
ENDBRANCH   1  18
TORSDOF 6
ENDMDL
MODEL 2
REMARK VINA RESULT:      -8.4      1.958      2.643
REMARK  6 active torsions:
REMARK  status: ('A' for Active; 'I' for Inactive)
REMARK    1  A    between atoms: C_3  and  C_4 
REMARK    2  A    between atoms: C_4  and  N_5 
REMARK    3  A    between atoms: N_5  and  C_8 
REMARK    4  A    between atoms: C_8  and  C_9 
REMARK    5  A    between atoms: N_12  and  C_13 
REMARK    6  A    between atoms: C_28  and  O_29 
ROOT
HETATM    1  N   UNL     1     -42.339  57.518 -54.344  1.00  0.00    -0.062 N 
HETATM    2  H   UNL     1     -43.037  57.842 -53.664  1.00  0.00     0.278 HD
HETATM    3  H   UNL     1     -42.711  56.632 -54.704  1.00  0.00     0.278 HD
ENDROOT
BRANCH   1   4
HETATM    4  C   UNL     1     -42.328  58.496 -55.462  1.00  0.00     0.290 C 
BRANCH   4   5
HETATM    5  C   UNL     1     -43.004  57.911 -56.643  1.00  0.00     0.042 A 
HETATM    6  C   UNL     1     -44.283  58.100 -57.152  1.00  0.00    -0.025 A 
HETATM    7  C   UNL     1     -45.366  58.980 -56.626  1.00  0.00     0.051 C 
HETATM    8  C   UNL     1     -44.410  57.249 -58.297  1.00  0.00     0.001 A 
HETATM    9  C   UNL     1     -43.210  56.563 -58.446  1.00  0.00     0.043 A 
HETATM   10  C   UNL     1     -45.450  56.986 -59.212  1.00  0.00     0.051 A 
HETATM   11  N   UNL     1     -42.378  56.972 -57.435  1.00  0.00    -0.357 N 
HETATM   12  C   UNL     1     -42.995  55.629 -59.467  1.00  0.00     0.033 A 
HETATM   13  H   UNL     1     -41.447  56.595 -57.300  1.00  0.00     0.166 HD
HETATM   14  C   UNL     1     -44.048  55.381 -60.357  1.00  0.00     0.039 A 
HETATM   15  C   UNL     1     -45.268  56.042 -60.232  1.00  0.00     0.069 A 
BRANCH  15  16
HETATM   16  O   UNL     1     -46.360  55.868 -61.038  1.00  0.00    -0.356 OA
HETATM   17  C   UNL     1     -47.357  56.882 -60.998  1.00  0.00     0.210 C 
ENDBRANCH  15  16
ENDBRANCH   4   5
ENDBRANCH   1   4
BRANCH   1  18
HETATM   18  C   UNL     1     -41.057  57.266 -53.610  1.00  0.00     0.218 C 
HETATM   19  C   UNL     1     -40.824  58.346 -52.559  1.00  0.00     0.045 C 
BRANCH  18  20
HETATM   20  C   UNL     1     -40.984  55.863 -53.101  1.00  0.00     0.015 C 
HETATM   21  C   UNL     1     -40.584  54.715 -53.783  1.00  0.00     0.042 C 
HETATM   22  C   UNL     1     -40.154  54.579 -55.203  1.00  0.00     0.071 C 
HETATM   23  N   UNL     1     -40.699  53.648 -52.882  1.00  0.00    -0.238 N 
HETATM   24  N   UNL     1     -41.309  54.072 -51.742  1.00  0.00    -0.179 NA
HETATM   25  C   UNL     1     -41.365  55.391 -51.832  1.00  0.00     0.150 C 
BRANCH  23  26
HETATM   26  C   UNL     1     -40.325  52.276 -52.995  1.00  0.00     0.058 A 
HETATM   27  C   UNL     1     -40.480  51.547 -54.180  1.00  0.00     0.031 A 
HETATM   28  C   UNL     1     -40.098  50.202 -54.237  1.00  0.00     0.002 A 
HETATM   29  C   UNL     1     -39.552  49.576 -53.120  1.00  0.00     0.000 A 
HETATM   30  C   UNL     1     -39.371  50.296 -51.943  1.00  0.00     0.002 A 
HETATM   31  C   UNL     1     -39.744  51.640 -51.883  1.00  0.00     0.031 A 
ENDBRANCH  23  26
ENDBRANCH  18  20
ENDBRANCH   1  18
TORSDOF 6
ENDMDL
MODEL 3
REMARK VINA RESULT:      -8.3      2.795      7.201
REMARK  6 active torsions:
REMARK  status: ('A' for Active; 'I' for Inactive)
REMARK    1  A    between atoms: C_3  and  C_4 
REMARK    2  A    between atoms: C_4  and  N_5 
REMARK    3  A    between atoms: N_5  and  C_8 
REMARK    4  A    between atoms: C_8  and  C_9 
REMARK    5  A    between atoms: N_12  and  C_13 
REMARK    6  A    between atoms: C_28  and  O_29 
ROOT
HETATM    1  N   UNL     1     -42.635  57.554 -50.687  1.00  0.00    -0.062 N 
HETATM    2  H   UNL     1     -43.057  56.862 -51.318  1.00  0.00     0.278 HD
HETATM    3  H   UNL     1     -43.190  57.501 -49.827  1.00  0.00     0.278 HD
ENDROOT
BRANCH   1   4
HETATM    4  C   UNL     1     -41.261  57.082 -50.376  1.00  0.00     0.290 C 
BRANCH   4   5
HETATM    5  C   UNL     1     -41.007  55.797 -51.066  1.00  0.00     0.042 A 
HETATM    6  C   UNL     1     -40.466  54.602 -50.606  1.00  0.00    -0.025 A 
HETATM    7  C   UNL     1     -39.976  54.277 -49.235  1.00  0.00     0.051 C 
HETATM    8  C   UNL     1     -40.423  53.703 -51.720  1.00  0.00     0.001 A 
HETATM    9  C   UNL     1     -40.931  54.378 -52.825  1.00  0.00     0.043 A 
HETATM   10  C   UNL     1     -39.978  52.376 -51.892  1.00  0.00     0.051 A 
HETATM   11  N   UNL     1     -41.272  55.641 -52.410  1.00  0.00    -0.357 N 
HETATM   12  C   UNL     1     -41.020  53.791 -54.093  1.00  0.00     0.033 A 
HETATM   13  H   UNL     1     -41.638  56.347 -53.037  1.00  0.00     0.166 HD
HETATM   14  C   UNL     1     -40.563  52.475 -54.237  1.00  0.00     0.039 A 
HETATM   15  C   UNL     1     -40.039  51.771 -53.155  1.00  0.00     0.069 A 
BRANCH  15  16
HETATM   16  O   UNL     1     -39.558  50.490 -53.188  1.00  0.00    -0.356 OA
HETATM   17  C   UNL     1     -39.590  49.824 -54.445  1.00  0.00     0.210 C 
ENDBRANCH  15  16
ENDBRANCH   4   5
ENDBRANCH   1   4
BRANCH   1  18
HETATM   18  C   UNL     1     -42.796  58.908 -51.309  1.00  0.00     0.218 C 
HETATM   19  C   UNL     1     -41.972  59.944 -50.551  1.00  0.00     0.045 C 
BRANCH  18  20
HETATM   20  C   UNL     1     -42.554  58.866 -52.783  1.00  0.00     0.015 C 
HETATM   21  C   UNL     1     -43.258  58.155 -53.754  1.00  0.00     0.042 C 
HETATM   22  C   UNL     1     -44.411  57.229 -53.577  1.00  0.00     0.071 C 
HETATM   23  N   UNL     1     -42.644  58.433 -54.983  1.00  0.00    -0.238 N 
HETATM   24  N   UNL     1     -41.502  59.143 -54.777  1.00  0.00    -0.179 NA
HETATM   25  C   UNL     1     -41.520  59.493 -53.501  1.00  0.00     0.150 C 
BRANCH  23  26
HETATM   26  C   UNL     1     -43.003  58.075 -56.317  1.00  0.00     0.058 A 
HETATM   27  C   UNL     1     -43.671  58.953 -57.179  1.00  0.00     0.031 A 
HETATM   28  C   UNL     1     -44.000  58.551 -58.478  1.00  0.00     0.002 A 
HETATM   29  C   UNL     1     -43.662  57.278 -58.931  1.00  0.00     0.000 A 
HETATM   30  C   UNL     1     -42.976  56.406 -58.092  1.00  0.00     0.002 A 
HETATM   31  C   UNL     1     -42.639  56.804 -56.797  1.00  0.00     0.031 A 
ENDBRANCH  23  26
ENDBRANCH  18  20
ENDBRANCH   1  18
TORSDOF 6
ENDMDL
MODEL 4
REMARK VINA RESULT:      -8.2      2.541      7.030
REMARK  6 active torsions:
REMARK  status: ('A' for Active; 'I' for Inactive)
REMARK    1  A    between atoms: C_3  and  C_4 
REMARK    2  A    between atoms: C_4  and  N_5 
REMARK    3  A    between atoms: N_5  and  C_8 
REMARK    4  A    between atoms: C_8  and  C_9 
REMARK    5  A    between atoms: N_12  and  C_13 
REMARK    6  A    between atoms: C_28  and  O_29 
ROOT
HETATM    1  N   UNL     1     -43.372  57.448 -50.883  1.00  0.00    -0.062 N 
HETATM    2  H   UNL     1     -43.655  57.794 -49.958  1.00  0.00     0.278 HD
HETATM    3  H   UNL     1     -42.358  57.314 -50.817  1.00  0.00     0.278 HD
ENDROOT
BRANCH   1   4
HETATM    4  C   UNL     1     -43.999  56.114 -51.063  1.00  0.00     0.290 C 
BRANCH   4   5
HETATM    5  C   UNL     1     -42.976  55.139 -51.507  1.00  0.00     0.042 A 
HETATM    6  C   UNL     1     -42.783  54.507 -52.730  1.00  0.00    -0.025 A 
HETATM    7  C   UNL     1     -43.587  54.647 -53.978  1.00  0.00     0.051 C 
HETATM    8  C   UNL     1     -41.657  53.636 -52.580  1.00  0.00     0.001 A 
HETATM    9  C   UNL     1     -41.202  53.756 -51.272  1.00  0.00     0.043 A 
HETATM   10  C   UNL     1     -40.992  52.737 -53.440  1.00  0.00     0.051 A 
HETATM   11  N   UNL     1     -42.016  54.663 -50.639  1.00  0.00    -0.357 N 
HETATM   12  C   UNL     1     -40.114  53.026 -50.780  1.00  0.00     0.033 A 
HETATM   13  H   UNL     1     -41.915  54.906 -49.661  1.00  0.00     0.166 HD
HETATM   14  C   UNL     1     -39.477  52.135 -51.652  1.00  0.00     0.039 A 
HETATM   15  C   UNL     1     -39.911  51.980 -52.968  1.00  0.00     0.069 A 
BRANCH  15  16
HETATM   16  O   UNL     1     -39.369  51.134 -53.896  1.00  0.00    -0.356 OA
HETATM   17  C   UNL     1     -40.153  50.010 -54.278  1.00  0.00     0.210 C 
ENDBRANCH  15  16
ENDBRANCH   4   5
ENDBRANCH   1   4
BRANCH   1  18
HETATM   18  C   UNL     1     -43.675  58.515 -51.890  1.00  0.00     0.218 C 
HETATM   19  C   UNL     1     -43.395  59.896 -51.305  1.00  0.00     0.045 C 
BRANCH  18  20
HETATM   20  C   UNL     1     -43.010  58.238 -53.199  1.00  0.00     0.015 C 
HETATM   21  C   UNL     1     -43.603  58.056 -54.449  1.00  0.00     0.042 C 
HETATM   22  C   UNL     1     -45.050  58.060 -54.802  1.00  0.00     0.071 C 
HETATM   23  N   UNL     1     -42.564  57.813 -55.357  1.00  0.00    -0.238 N 
HETATM   24  N   UNL     1     -41.389  57.673 -54.686  1.00  0.00    -0.179 NA
HETATM   25  C   UNL     1     -41.639  58.040 -53.440  1.00  0.00     0.150 C 
BRANCH  23  26
HETATM   26  C   UNL     1     -42.569  57.670 -56.777  1.00  0.00     0.058 A 
HETATM   27  C   UNL     1     -42.216  58.714 -57.641  1.00  0.00     0.031 A 
HETATM   28  C   UNL     1     -42.239  58.521 -59.026  1.00  0.00     0.002 A 
HETATM   29  C   UNL     1     -42.605  57.288 -59.561  1.00  0.00     0.000 A 
HETATM   30  C   UNL     1     -42.935  56.237 -58.713  1.00  0.00     0.002 A 
HETATM   31  C   UNL     1     -42.907  56.422 -57.329  1.00  0.00     0.031 A 
ENDBRANCH  23  26
ENDBRANCH  18  20
ENDBRANCH   1  18
TORSDOF 6
ENDMDL
MODEL 5
REMARK VINA RESULT:      -8.0      1.994      3.028
REMARK  6 active torsions:
REMARK  status: ('A' for Active; 'I' for Inactive)
REMARK    1  A    between atoms: C_3  and  C_4 
REMARK    2  A    between atoms: C_4  and  N_5 
REMARK    3  A    between atoms: N_5  and  C_8 
REMARK    4  A    between atoms: C_8  and  C_9 
REMARK    5  A    between atoms: N_12  and  C_13 
REMARK    6  A    between atoms: C_28  and  O_29 
ROOT
HETATM    1  N   UNL     1     -42.043  57.699 -52.036  1.00  0.00    -0.062 N 
HETATM    2  H   UNL     1     -41.643  58.553 -51.629  1.00  0.00     0.278 HD
HETATM    3  H   UNL     1     -42.871  58.015 -52.553  1.00  0.00     0.278 HD
ENDROOT
BRANCH   1   4
HETATM    4  C   UNL     1     -41.060  57.181 -53.022  1.00  0.00     0.290 C 
BRANCH   4   5
HETATM    5  C   UNL     1     -41.737  56.929 -54.315  1.00  0.00     0.042 A 
HETATM    6  C   UNL     1     -41.607  55.890 -55.229  1.00  0.00    -0.025 A 
HETATM    7  C   UNL     1     -40.715  54.697 -55.150  1.00  0.00     0.051 C 
HETATM    8  C   UNL     1     -42.484  56.180 -56.323  1.00  0.00     0.001 A 
HETATM    9  C   UNL     1     -43.115  57.387 -56.048  1.00  0.00     0.043 A 
HETATM   10  C   UNL     1     -42.784  55.528 -57.537  1.00  0.00     0.051 A 
HETATM   11  N   UNL     1     -42.645  57.826 -54.836  1.00  0.00    -0.357 N 
HETATM   12  C   UNL     1     -44.034  57.976 -56.925  1.00  0.00     0.033 A 
HETATM   13  H   UNL     1     -42.927  58.706 -54.421  1.00  0.00     0.166 HD
HETATM   14  C   UNL     1     -44.309  57.312 -58.127  1.00  0.00     0.039 A 
HETATM   15  C   UNL     1     -43.688  56.105 -58.441  1.00  0.00     0.069 A 
BRANCH  15  16
HETATM   16  O   UNL     1     -43.875  55.381 -59.587  1.00  0.00    -0.356 OA
HETATM   17  C   UNL     1     -45.206  55.300 -60.086  1.00  0.00     0.210 C 
ENDBRANCH  15  16
ENDBRANCH   4   5
ENDBRANCH   1   4
BRANCH   1  18
HETATM   18  C   UNL     1     -42.462  56.800 -50.913  1.00  0.00     0.218 C 
HETATM   19  C   UNL     1     -43.958  56.513 -50.989  1.00  0.00     0.045 C 
BRANCH  18  20
HETATM   20  C   UNL     1     -41.590  55.590 -50.827  1.00  0.00     0.015 C 
HETATM   21  C   UNL     1     -41.756  54.358 -51.461  1.00  0.00     0.042 C 
HETATM   22  C   UNL     1     -42.856  53.916 -52.362  1.00  0.00     0.071 C 
HETATM   23  N   UNL     1     -40.687  53.548 -51.055  1.00  0.00    -0.238 N 
HETATM   24  N   UNL     1     -39.978  54.175 -50.077  1.00  0.00    -0.179 NA
HETATM   25  C   UNL     1     -40.442  55.414 -50.034  1.00  0.00     0.150 C 
BRANCH  23  26
HETATM   26  C   UNL     1     -40.285  52.242 -51.468  1.00  0.00     0.058 A 
HETATM   27  C   UNL     1     -39.970  51.936 -52.797  1.00  0.00     0.031 A 
HETATM   28  C   UNL     1     -39.583  50.638 -53.149  1.00  0.00     0.002 A 
HETATM   29  C   UNL     1     -39.499  49.640 -52.182  1.00  0.00     0.000 A 
HETATM   30  C   UNL     1     -39.786  49.938 -50.854  1.00  0.00     0.002 A 
HETATM   31  C   UNL     1     -40.166  51.233 -50.496  1.00  0.00     0.031 A 
ENDBRANCH  23  26
ENDBRANCH  18  20
ENDBRANCH   1  18
TORSDOF 6
ENDMDL
MODEL 6
REMARK VINA RESULT:      -8.0      4.674      9.259
REMARK  6 active torsions:
REMARK  status: ('A' for Active; 'I' for Inactive)
REMARK    1  A    between atoms: C_3  and  C_4 
REMARK    2  A    between atoms: C_4  and  N_5 
REMARK    3  A    between atoms: N_5  and  C_8 
REMARK    4  A    between atoms: C_8  and  C_9 
REMARK    5  A    between atoms: N_12  and  C_13 
REMARK    6  A    between atoms: C_28  and  O_29 
ROOT
HETATM    1  N   UNL     1     -43.262  57.523 -52.305  1.00  0.00    -0.062 N 
HETATM    2  H   UNL     1     -43.633  56.835 -52.972  1.00  0.00     0.278 HD
HETATM    3  H   UNL     1     -43.536  57.171 -51.382  1.00  0.00     0.278 HD
ENDROOT
BRANCH   1   4
HETATM    4  C   UNL     1     -41.780  57.464 -52.395  1.00  0.00     0.290 C 
BRANCH   4   5
HETATM    5  C   UNL     1     -41.339  56.050 -52.435  1.00  0.00     0.042 A 
HETATM    6  C   UNL     1     -41.095  55.138 -51.415  1.00  0.00    -0.025 A 
HETATM    7  C   UNL     1     -41.219  55.344 -49.943  1.00  0.00     0.051 C 
HETATM    8  C   UNL     1     -40.656  53.924 -52.033  1.00  0.00     0.001 A 
HETATM    9  C   UNL     1     -40.637  54.133 -53.407  1.00  0.00     0.043 A 
HETATM   10  C   UNL     1     -40.252  52.665 -51.542  1.00  0.00     0.051 A 
HETATM   11  N   UNL     1     -41.047  55.424 -53.628  1.00  0.00    -0.357 N 
HETATM   12  C   UNL     1     -40.238  53.147 -54.317  1.00  0.00     0.033 A 
HETATM   13  H   UNL     1     -41.090  55.839 -54.551  1.00  0.00     0.166 HD
HETATM   14  C   UNL     1     -39.835  51.908 -53.802  1.00  0.00     0.039 A 
HETATM   15  C   UNL     1     -39.831  51.665 -52.430  1.00  0.00     0.069 A 
BRANCH  15  16
HETATM   16  O   UNL     1     -39.448  50.500 -51.823  1.00  0.00    -0.356 OA
HETATM   17  C   UNL     1     -39.950  50.261 -50.513  1.00  0.00     0.210 C 
ENDBRANCH  15  16
ENDBRANCH   4   5
ENDBRANCH   1   4
BRANCH   1  18
HETATM   18  C   UNL     1     -43.936  58.835 -52.566  1.00  0.00     0.218 C 
HETATM   19  C   UNL     1     -44.858  58.729 -53.777  1.00  0.00     0.045 C 
BRANCH  18  20
HETATM   20  C   UNL     1     -44.577  59.377 -51.331  1.00  0.00     0.015 C 
HETATM   21  C   UNL     1     -44.078  60.331 -50.445  1.00  0.00     0.042 C 
HETATM   22  C   UNL     1     -42.767  61.037 -50.480  1.00  0.00     0.071 C 
HETATM   23  N   UNL     1     -45.042  60.494 -49.441  1.00  0.00    -0.238 N 
HETATM   24  N   UNL     1     -46.022  59.562 -49.587  1.00  0.00    -0.179 NA
HETATM   25  C   UNL     1     -45.804  58.991 -50.761  1.00  0.00     0.150 C 
BRANCH  23  26
HETATM   26  C   UNL     1     -45.118  61.410 -48.349  1.00  0.00     0.058 A 
HETATM   27  C   UNL     1     -45.209  62.795 -48.532  1.00  0.00     0.031 A 
HETATM   28  C   UNL     1     -45.280  63.649 -47.426  1.00  0.00     0.002 A 
HETATM   29  C   UNL     1     -45.269  63.132 -46.133  1.00  0.00     0.000 A 
HETATM   30  C   UNL     1     -45.203  61.756 -45.939  1.00  0.00     0.002 A 
HETATM   31  C   UNL     1     -45.139  60.899 -47.039  1.00  0.00     0.031 A 
ENDBRANCH  23  26
ENDBRANCH  18  20
ENDBRANCH   1  18
TORSDOF 6
ENDMDL
MODEL 7
REMARK VINA RESULT:      -7.9      2.644      7.103
REMARK  6 active torsions:
REMARK  status: ('A' for Active; 'I' for Inactive)
REMARK    1  A    between atoms: C_3  and  C_4 
REMARK    2  A    between atoms: C_4  and  N_5 
REMARK    3  A    between atoms: N_5  and  C_8 
REMARK    4  A    between atoms: C_8  and  C_9 
REMARK    5  A    between atoms: N_12  and  C_13 
REMARK    6  A    between atoms: C_28  and  O_29 
ROOT
HETATM    1  N   UNL     1     -43.203  58.498 -52.915  1.00  0.00    -0.062 N 
HETATM    2  H   UNL     1     -43.575  57.602 -53.254  1.00  0.00     0.278 HD
HETATM    3  H   UNL     1     -43.802  58.749 -52.121  1.00  0.00     0.278 HD
ENDROOT
BRANCH   1   4
HETATM    4  C   UNL     1     -41.837  58.236 -52.393  1.00  0.00     0.290 C 
BRANCH   4   5
HETATM    5  C   UNL     1     -41.467  56.825 -52.650  1.00  0.00     0.042 A 
HETATM    6  C   UNL     1     -41.343  55.740 -51.791  1.00  0.00    -0.025 A 
HETATM    7  C   UNL     1     -41.560  55.701 -50.316  1.00  0.00     0.051 C 
HETATM    8  C   UNL     1     -40.924  54.623 -52.582  1.00  0.00     0.001 A 
HETATM    9  C   UNL     1     -40.797  55.060 -53.895  1.00  0.00     0.043 A 
HETATM   10  C   UNL     1     -40.621  53.276 -52.293  1.00  0.00     0.051 A 
HETATM   11  N   UNL     1     -41.124  56.393 -53.914  1.00  0.00    -0.357 N 
HETATM   12  C   UNL     1     -40.386  54.219 -54.936  1.00  0.00     0.033 A 
HETATM   13  H   UNL     1     -41.080  56.960 -54.752  1.00  0.00     0.166 HD
HETATM   14  C   UNL     1     -40.084  52.888 -54.620  1.00  0.00     0.039 A 
HETATM   15  C   UNL     1     -40.190  52.417 -53.313  1.00  0.00     0.069 A 
BRANCH  15  16
HETATM   16  O   UNL     1     -39.911  51.144 -52.895  1.00  0.00    -0.356 OA
HETATM   17  C   UNL     1     -39.765  50.153 -53.906  1.00  0.00     0.210 C 
ENDBRANCH  15  16
ENDBRANCH   4   5
ENDBRANCH   1   4
BRANCH   1  18
HETATM   18  C   UNL     1     -43.363  59.511 -54.007  1.00  0.00     0.218 C 
HETATM   19  C   UNL     1     -42.422  60.690 -53.782  1.00  0.00     0.045 C 
BRANCH  18  20
HETATM   20  C   UNL     1     -43.271  58.879 -55.358  1.00  0.00     0.015 C 
HETATM   21  C   UNL     1     -44.193  58.042 -55.986  1.00  0.00     0.042 C 
HETATM   22  C   UNL     1     -45.493  57.534 -55.465  1.00  0.00     0.071 C 
HETATM   23  N   UNL     1     -43.649  57.704 -57.232  1.00  0.00    -0.238 N 
HETATM   24  N   UNL     1     -42.370  58.161 -57.316  1.00  0.00    -0.179 NA
HETATM   25  C   UNL     1     -42.199  58.947 -56.266  1.00  0.00     0.150 C 
BRANCH  23  26
HETATM   26  C   UNL     1     -44.195  56.975 -58.331  1.00  0.00     0.058 A 
HETATM   27  C   UNL     1     -45.316  57.414 -59.044  1.00  0.00     0.031 A 
HETATM   28  C   UNL     1     -45.812  56.660 -60.114  1.00  0.00     0.002 A 
HETATM   29  C   UNL     1     -45.192  55.470 -60.485  1.00  0.00     0.000 A 
HETATM   30  C   UNL     1     -44.063  55.035 -59.799  1.00  0.00     0.002 A 
HETATM   31  C   UNL     1     -43.559  55.787 -58.735  1.00  0.00     0.031 A 
ENDBRANCH  23  26
ENDBRANCH  18  20
ENDBRANCH   1  18
TORSDOF 6
ENDMDL
MODEL 8
REMARK VINA RESULT:      -7.8      2.544      7.211
REMARK  6 active torsions:
REMARK  status: ('A' for Active; 'I' for Inactive)
REMARK    1  A    between atoms: C_3  and  C_4 
REMARK    2  A    between atoms: C_4  and  N_5 
REMARK    3  A    between atoms: N_5  and  C_8 
REMARK    4  A    between atoms: C_8  and  C_9 
REMARK    5  A    between atoms: N_12  and  C_13 
REMARK    6  A    between atoms: C_28  and  O_29 
ROOT
HETATM    1  N   UNL     1     -44.513  56.936 -52.130  1.00  0.00    -0.062 N 
HETATM    2  H   UNL     1     -44.485  56.207 -52.853  1.00  0.00     0.278 HD
HETATM    3  H   UNL     1     -45.443  56.850 -51.705  1.00  0.00     0.278 HD
ENDROOT
BRANCH   1   4
HETATM    4  C   UNL     1     -43.505  56.573 -51.101  1.00  0.00     0.290 C 
BRANCH   4   5
HETATM    5  C   UNL     1     -42.706  55.418 -51.573  1.00  0.00     0.042 A 
HETATM    6  C   UNL     1     -41.759  54.634 -50.925  1.00  0.00    -0.025 A 
HETATM    7  C   UNL     1     -41.273  54.746 -49.519  1.00  0.00     0.051 C 
HETATM    8  C   UNL     1     -41.281  53.678 -51.877  1.00  0.00     0.001 A 
HETATM    9  C   UNL     1     -41.943  53.912 -53.077  1.00  0.00     0.043 A 
HETATM   10  C   UNL     1     -40.326  52.641 -51.830  1.00  0.00     0.051 A 
HETATM   11  N   UNL     1     -42.793  54.970 -52.874  1.00  0.00    -0.357 N 
HETATM   12  C   UNL     1     -41.700  53.160 -54.233  1.00  0.00     0.033 A 
HETATM   13  H   UNL     1     -43.370  55.362 -53.608  1.00  0.00     0.166 HD
HETATM   14  C   UNL     1     -40.741  52.142 -54.161  1.00  0.00     0.039 A 
HETATM   15  C   UNL     1     -40.051  51.885 -52.978  1.00  0.00     0.069 A 
BRANCH  15  16
HETATM   16  O   UNL     1     -39.092  50.925 -52.802  1.00  0.00    -0.356 OA
HETATM   17  C   UNL     1     -39.493  49.573 -52.991  1.00  0.00     0.210 C 
ENDBRANCH  15  16
ENDBRANCH   4   5
ENDBRANCH   1   4
BRANCH   1  18
HETATM   18  C   UNL     1     -44.389  58.267 -52.806  1.00  0.00     0.218 C 
HETATM   19  C   UNL     1     -43.208  59.046 -52.237  1.00  0.00     0.045 C 
BRANCH  18  20
HETATM   20  C   UNL     1     -44.395  58.129 -54.294  1.00  0.00     0.015 C 
HETATM   21  C   UNL     1     -43.320  57.864 -55.142  1.00  0.00     0.042 C 
HETATM   22  C   UNL     1     -41.883  57.680 -54.794  1.00  0.00     0.071 C 
HETATM   23  N   UNL     1     -43.831  57.841 -56.446  1.00  0.00    -0.238 N 
HETATM   24  N   UNL     1     -45.130  58.246 -56.440  1.00  0.00    -0.179 NA
HETATM   25  C   UNL     1     -45.485  58.297 -55.166  1.00  0.00     0.150 C 
BRANCH  23  26
HETATM   26  C   UNL     1     -43.218  57.510 -57.692  1.00  0.00     0.058 A 
HETATM   27  C   UNL     1     -42.373  58.393 -58.374  1.00  0.00     0.031 A 
HETATM   28  C   UNL     1     -41.798  58.018 -59.594  1.00  0.00     0.002 A 
HETATM   29  C   UNL     1     -42.054  56.763 -60.139  1.00  0.00     0.000 A 
HETATM   30  C   UNL     1     -42.874  55.868 -59.459  1.00  0.00     0.002 A 
HETATM   31  C   UNL     1     -43.444  56.234 -58.238  1.00  0.00     0.031 A 
ENDBRANCH  23  26
ENDBRANCH  18  20
ENDBRANCH   1  18
TORSDOF 6
ENDMDL
MODEL 9
REMARK VINA RESULT:      -7.7      4.517      9.120
REMARK  6 active torsions:
REMARK  status: ('A' for Active; 'I' for Inactive)
REMARK    1  A    between atoms: C_3  and  C_4 
REMARK    2  A    between atoms: C_4  and  N_5 
REMARK    3  A    between atoms: N_5  and  C_8 
REMARK    4  A    between atoms: C_8  and  C_9 
REMARK    5  A    between atoms: N_12  and  C_13 
REMARK    6  A    between atoms: C_28  and  O_29 
ROOT
HETATM    1  N   UNL     1     -43.278  57.382 -52.433  1.00  0.00    -0.062 N 
HETATM    2  H   UNL     1     -43.375  56.809 -53.280  1.00  0.00     0.278 HD
HETATM    3  H   UNL     1     -43.803  56.878 -51.711  1.00  0.00     0.278 HD
ENDROOT
BRANCH   1   4
HETATM    4  C   UNL     1     -41.842  57.360 -52.052  1.00  0.00     0.290 C 
BRANCH   4   5
HETATM    5  C   UNL     1     -41.318  55.979 -52.162  1.00  0.00     0.042 A 
HETATM    6  C   UNL     1     -41.044  55.190 -53.273  1.00  0.00    -0.025 A 
HETATM    7  C   UNL     1     -41.209  55.536 -54.715  1.00  0.00     0.051 C 
HETATM    8  C   UNL     1     -40.588  53.923 -52.787  1.00  0.00     0.001 A 
HETATM    9  C   UNL     1     -40.605  53.974 -51.398  1.00  0.00     0.043 A 
HETATM   10  C   UNL     1     -40.179  52.725 -53.408  1.00  0.00     0.051 A 
HETATM   11  N   UNL     1     -41.054  55.220 -51.041  1.00  0.00    -0.357 N 
HETATM   12  C   UNL     1     -40.230  52.888 -50.597  1.00  0.00     0.033 A 
HETATM   13  H   UNL     1     -41.190  55.503 -50.078  1.00  0.00     0.166 HD
HETATM   14  C   UNL     1     -39.836  51.708 -51.240  1.00  0.00     0.039 A 
HETATM   15  C   UNL     1     -39.816  51.617 -52.630  1.00  0.00     0.069 A 
BRANCH  15  16
HETATM   16  O   UNL     1     -39.458  50.513 -53.356  1.00  0.00    -0.356 OA
HETATM   17  C   UNL     1     -40.295  50.166 -54.454  1.00  0.00     0.210 C 
ENDBRANCH  15  16
ENDBRANCH   4   5
ENDBRANCH   1   4
BRANCH   1  18
HETATM   18  C   UNL     1     -43.922  58.709 -52.693  1.00  0.00     0.218 C 
HETATM   19  C   UNL     1     -44.797  58.642 -53.940  1.00  0.00     0.045 C 
BRANCH  18  20
HETATM   20  C   UNL     1     -44.603  59.236 -51.472  1.00  0.00     0.015 C 
HETATM   21  C   UNL     1     -44.171  60.241 -50.607  1.00  0.00     0.042 C 
HETATM   22  C   UNL     1     -42.908  61.030 -50.653  1.00  0.00     0.071 C 
HETATM   23  N   UNL     1     -45.148  60.364 -49.610  1.00  0.00    -0.238 N 
HETATM   24  N   UNL     1     -46.065  59.367 -49.738  1.00  0.00    -0.179 NA
HETATM   25  C   UNL     1     -45.805  58.785 -50.898  1.00  0.00     0.150 C 
BRANCH  23  26
HETATM   26  C   UNL     1     -45.289  61.297 -48.540  1.00  0.00     0.058 A 
HETATM   27  C   UNL     1     -44.929  60.992 -47.222  1.00  0.00     0.031 A 
HETATM   28  C   UNL     1     -45.089  61.944 -46.209  1.00  0.00     0.002 A 
HETATM   29  C   UNL     1     -45.600  63.206 -46.500  1.00  0.00     0.000 A 
HETATM   30  C   UNL     1     -45.939  63.529 -47.810  1.00  0.00     0.002 A 
HETATM   31  C   UNL     1     -45.775  62.585 -48.826  1.00  0.00     0.031 A 
ENDBRANCH  23  26
ENDBRANCH  18  20
ENDBRANCH   1  18
TORSDOF 6
ENDMDL
MODEL 10
REMARK VINA RESULT:      -7.6      2.647      7.783
REMARK  6 active torsions:
REMARK  status: ('A' for Active; 'I' for Inactive)
REMARK    1  A    between atoms: C_3  and  C_4 
REMARK    2  A    between atoms: C_4  and  N_5 
REMARK    3  A    between atoms: N_5  and  C_8 
REMARK    4  A    between atoms: C_8  and  C_9 
REMARK    5  A    between atoms: N_12  and  C_13 
REMARK    6  A    between atoms: C_28  and  O_29 
ROOT
HETATM    1  N   UNL     1     -43.121  57.581 -52.722  1.00  0.00    -0.062 N 
HETATM    2  H   UNL     1     -42.924  57.897 -51.764  1.00  0.00     0.278 HD
HETATM    3  H   UNL     1     -42.200  57.436 -53.148  1.00  0.00     0.278 HD
ENDROOT
BRANCH   1   4
HETATM    4  C   UNL     1     -43.790  56.259 -52.618  1.00  0.00     0.290 C 
BRANCH   4   5
HETATM    5  C   UNL     1     -42.779  55.180 -52.716  1.00  0.00     0.042 A 
HETATM    6  C   UNL     1     -42.433  54.343 -53.770  1.00  0.00    -0.025 A 
HETATM    7  C   UNL     1     -43.008  54.304 -55.146  1.00  0.00     0.051 C 
HETATM    8  C   UNL     1     -41.411  53.463 -53.290  1.00  0.00     0.001 A 
HETATM    9  C   UNL     1     -41.170  53.784 -51.959  1.00  0.00     0.043 A 
HETATM   10  C   UNL     1     -40.678  52.405 -53.867  1.00  0.00     0.051 A 
HETATM   11  N   UNL     1     -42.011  54.818 -51.630  1.00  0.00    -0.357 N 
HETATM   12  C   UNL     1     -40.232  53.102 -51.175  1.00  0.00     0.033 A 
HETATM   13  H   UNL     1     -42.055  55.218 -50.701  1.00  0.00     0.166 HD
HETATM   14  C   UNL     1     -39.524  52.050 -51.770  1.00  0.00     0.039 A 
HETATM   15  C   UNL     1     -39.746  51.694 -53.099  1.00  0.00     0.069 A 
BRANCH  15  16
HETATM   16  O   UNL     1     -39.119  50.681 -53.772  1.00  0.00    -0.356 OA
HETATM   17  C   UNL     1     -39.918  49.908 -54.661  1.00  0.00     0.210 C 
ENDBRANCH  15  16
ENDBRANCH   4   5
ENDBRANCH   1   4
BRANCH   1  18
HETATM   18  C   UNL     1     -43.839  58.685 -53.436  1.00  0.00     0.218 C 
HETATM   19  C   UNL     1     -44.141  59.833 -52.478  1.00  0.00     0.045 C 
BRANCH  18  20
HETATM   20  C   UNL     1     -43.129  59.080 -54.690  1.00  0.00     0.015 C 
HETATM   21  C   UNL     1     -43.371  58.647 -55.994  1.00  0.00     0.042 C 
HETATM   22  C   UNL     1     -44.376  57.659 -56.475  1.00  0.00     0.071 C 
HETATM   23  N   UNL     1     -42.436  59.294 -56.813  1.00  0.00    -0.238 N 
HETATM   24  N   UNL     1     -41.535  59.964 -56.046  1.00  0.00    -0.179 NA
HETATM   25  C   UNL     1     -42.017  59.932 -54.814  1.00  0.00     0.150 C 
BRANCH  23  26
HETATM   26  C   UNL     1     -42.287  59.319 -58.233  1.00  0.00     0.058 A 
HETATM   27  C   UNL     1     -41.974  58.176 -58.978  1.00  0.00     0.031 A 
HETATM   28  C   UNL     1     -41.838  58.257 -60.369  1.00  0.00     0.002 A 
HETATM   29  C   UNL     1     -42.021  59.470 -61.027  1.00  0.00     0.000 A 
HETATM   30  C   UNL     1     -42.356  60.608 -60.300  1.00  0.00     0.002 A 
HETATM   31  C   UNL     1     -42.499  60.532 -58.912  1.00  0.00     0.031 A 
ENDBRANCH  23  26
ENDBRANCH  18  20
ENDBRANCH   1  18
TORSDOF 6
ENDMDL
