MODEL 1
REMARK VINA RESULT:      -8.9      0.000      0.000
REMARK  4 active torsions:
REMARK  status: ('A' for Active; 'I' for Inactive)
REMARK    1  A    between atoms: C_2  and  C_3 
REMARK    2  A    between atoms: C_6  and  C_7 
REMARK    3  A    between atoms: N_8  and  N_9 
REMARK       I    between atoms: N_9  and  C_10 
REMARK    4  A    between atoms: C_10  and  C_11 
ROOT
HETATM    1  N   UNL     1     -43.437  55.024 -57.134  1.00  0.00    -0.242 N 
HETATM    2  C   UNL     1     -43.248  56.070 -58.018  1.00  0.00     0.292 C 
HETATM    3  O   UNL     1     -42.393  56.943 -58.005  1.00  0.00    -0.264 OA
HETATM    4  H   UNL     1     -44.190  54.368 -57.341  1.00  0.00     0.192 HD
ENDROOT
BRANCH   1   5
HETATM    5  N   UNL     1     -42.865  54.848 -55.900  1.00  0.00    -0.183 NA
HETATM    6  C   UNL     1     -43.601  54.824 -54.836  1.00  0.00     0.152 C 
BRANCH   6   7
HETATM    7  C   UNL     1     -42.982  54.518 -53.561  1.00  0.00     0.011 A 
HETATM    8  C   UNL     1     -41.903  53.605 -53.325  1.00  0.00     0.004 A 
HETATM    9  C   UNL     1     -41.580  53.670 -51.967  1.00  0.00     0.049 A 
HETATM   10  C   UNL     1     -41.153  52.746 -54.156  1.00  0.00     0.014 A 
HETATM   11  C   UNL     1     -40.529  52.933 -51.387  1.00  0.00    -0.031 A 
HETATM   12  N   UNL     1     -42.463  54.560 -51.394  1.00  0.00    -0.364 N 
HETATM   13  C   UNL     1     -39.811  52.085 -52.252  1.00  0.00     0.009 A 
HETATM   14  C   UNL     1     -40.116  51.989 -53.608  1.00  0.00     0.002 A 
HETATM   15  C   UNL     1     -43.300  55.082 -52.341  1.00  0.00     0.102 A 
HETATM   16  H   UNL     1     -42.474  54.804 -50.414  1.00  0.00     0.165 HD
BRANCH  11  17
HETATM   17  C   UNL     1     -40.156  53.000 -49.927  1.00  0.00     0.036 C 
HETATM   18  C   UNL     1     -39.550  54.344 -49.556  1.00  0.00     0.010 C 
ENDBRANCH  11  17
ENDBRANCH   6   7
ENDBRANCH   1   5
BRANCH   2  19
HETATM   19  C   UNL     1     -44.319  56.101 -59.096  1.00  0.00     0.157 A 
HETATM   20  N   UNL     1     -44.314  55.115 -59.949  1.00  0.00    -0.166 NA
HETATM   21  N   UNL     1     -45.274  55.108 -60.917  1.00  0.00    -0.242 N 
HETATM   22  C   UNL     1     -46.265  56.048 -61.084  1.00  0.00     0.272 A 
HETATM   23  H   UNL     1     -45.240  54.348 -61.591  1.00  0.00     0.192 HD
HETATM   24  O   UNL     1     -47.089  55.978 -61.987  1.00  0.00    -0.266 OA
HETATM   25  C   UNL     1     -46.290  57.146 -60.102  1.00  0.00     0.046 A 
HETATM   26  C   UNL     1     -45.323  57.185 -59.101  1.00  0.00     0.016 A 
HETATM   27  C   UNL     1     -47.286  58.128 -60.168  1.00  0.00     0.018 A 
HETATM   28  C   UNL     1     -45.357  58.210 -58.148  1.00  0.00     0.015 A 
HETATM   29  C   UNL     1     -46.350  59.192 -58.214  1.00  0.00     0.001 A 
HETATM   30  C   UNL     1     -47.312  59.153 -59.221  1.00  0.00     0.001 A 
ENDBRANCH   2  19
TORSDOF 4
ENDMDL
MODEL 2
REMARK VINA RESULT:      -8.7      3.790      4.387
REMARK  4 active torsions:
REMARK  status: ('A' for Active; 'I' for Inactive)
REMARK    1  A    between atoms: C_2  and  C_3 
REMARK    2  A    between atoms: C_6  and  C_7 
REMARK    3  A    between atoms: N_8  and  N_9 
REMARK       I    between atoms: N_9  and  C_10 
REMARK    4  A    between atoms: C_10  and  C_11 
ROOT
HETATM    1  N   UNL     1     -41.365  58.242 -54.666  1.00  0.00    -0.242 N 
HETATM    2  C   UNL     1     -42.520  58.723 -55.256  1.00  0.00     0.292 C 
HETATM    3  O   UNL     1     -43.684  58.529 -54.941  1.00  0.00    -0.264 OA
HETATM    4  H   UNL     1     -40.477  58.554 -55.055  1.00  0.00     0.192 HD
ENDROOT
BRANCH   1   5
HETATM    5  N   UNL     1     -41.249  57.242 -53.735  1.00  0.00    -0.183 NA
HETATM    6  C   UNL     1     -41.365  56.003 -54.090  1.00  0.00     0.152 C 
BRANCH   6   7
HETATM    7  C   UNL     1     -41.119  54.965 -53.107  1.00  0.00     0.011 A 
HETATM    8  C   UNL     1     -40.662  53.631 -53.360  1.00  0.00     0.004 A 
HETATM    9  C   UNL     1     -40.497  52.997 -52.125  1.00  0.00     0.049 A 
HETATM   10  C   UNL     1     -40.348  52.914 -54.534  1.00  0.00     0.014 A 
HETATM   11  C   UNL     1     -40.015  51.680 -51.992  1.00  0.00    -0.031 A 
HETATM   12  N   UNL     1     -40.884  53.904 -51.162  1.00  0.00    -0.364 N 
HETATM   13  C   UNL     1     -39.720  51.001 -53.190  1.00  0.00     0.009 A 
HETATM   14  C   UNL     1     -39.883  51.601 -54.436  1.00  0.00     0.002 A 
HETATM   15  C   UNL     1     -41.248  55.089 -51.737  1.00  0.00     0.102 A 
HETATM   16  H   UNL     1     -40.880  53.719 -50.168  1.00  0.00     0.165 HD
BRANCH  11  17
HETATM   17  C   UNL     1     -39.818  50.983 -50.669  1.00  0.00     0.036 C 
HETATM   18  C   UNL     1     -39.589  49.489 -50.843  1.00  0.00     0.010 C 
ENDBRANCH  11  17
ENDBRANCH   6   7
ENDBRANCH   1   5
BRANCH   2  19
HETATM   19  C   UNL     1     -42.218  59.559 -56.490  1.00  0.00     0.157 A 
HETATM   20  N   UNL     1     -41.904  60.807 -56.285  1.00  0.00    -0.166 NA
HETATM   21  N   UNL     1     -41.613  61.576 -57.372  1.00  0.00    -0.242 N 
HETATM   22  C   UNL     1     -41.611  61.160 -58.683  1.00  0.00     0.272 A 
HETATM   23  H   UNL     1     -41.397  62.554 -57.198  1.00  0.00     0.192 HD
HETATM   24  O   UNL     1     -41.345  61.915 -59.611  1.00  0.00    -0.266 OA
HETATM   25  C   UNL     1     -41.934  59.741 -58.914  1.00  0.00     0.046 A 
HETATM   26  C   UNL     1     -42.240  58.927 -57.826  1.00  0.00     0.016 A 
HETATM   27  C   UNL     1     -41.919  59.216 -60.212  1.00  0.00     0.018 A 
HETATM   28  C   UNL     1     -42.521  57.572 -58.035  1.00  0.00     0.015 A 
HETATM   29  C   UNL     1     -42.508  57.048 -59.331  1.00  0.00     0.001 A 
HETATM   30  C   UNL     1     -42.208  57.867 -60.417  1.00  0.00     0.001 A 
ENDBRANCH   2  19
TORSDOF 4
ENDMDL
MODEL 3
REMARK VINA RESULT:      -8.6      5.996      8.648
REMARK  4 active torsions:
REMARK  status: ('A' for Active; 'I' for Inactive)
REMARK    1  A    between atoms: C_2  and  C_3 
REMARK    2  A    between atoms: C_6  and  C_7 
REMARK    3  A    between atoms: N_8  and  N_9 
REMARK       I    between atoms: N_9  and  C_10 
REMARK    4  A    between atoms: C_10  and  C_11 
ROOT
HETATM    1  N   UNL     1     -43.995  58.586 -50.613  1.00  0.00    -0.242 N 
HETATM    2  C   UNL     1     -44.929  59.553 -50.939  1.00  0.00     0.292 C 
HETATM    3  O   UNL     1     -45.564  59.692 -51.973  1.00  0.00    -0.264 OA
HETATM    4  H   UNL     1     -43.601  58.615 -49.674  1.00  0.00     0.192 HD
ENDROOT
BRANCH   1   5
HETATM    5  N   UNL     1     -43.379  57.693 -51.453  1.00  0.00    -0.183 NA
HETATM    6  C   UNL     1     -43.348  56.434 -51.156  1.00  0.00     0.152 C 
BRANCH   6   7
HETATM    7  C   UNL     1     -42.796  55.501 -52.119  1.00  0.00     0.011 A 
HETATM    8  C   UNL     1     -41.757  54.541 -51.890  1.00  0.00     0.004 A 
HETATM    9  C   UNL     1     -41.587  53.808 -53.068  1.00  0.00     0.049 A 
HETATM   10  C   UNL     1     -40.963  54.213 -50.771  1.00  0.00     0.014 A 
HETATM   11  C   UNL     1     -40.672  52.743 -53.190  1.00  0.00    -0.031 A 
HETATM   12  N   UNL     1     -42.463  54.338 -53.991  1.00  0.00    -0.364 N 
HETATM   13  C   UNL     1     -39.897  52.455 -52.050  1.00  0.00     0.009 A 
HETATM   14  C   UNL     1     -40.035  53.174 -50.865  1.00  0.00     0.002 A 
HETATM   15  C   UNL     1     -43.200  55.344 -53.431  1.00  0.00     0.102 A 
HETATM   16  H   UNL     1     -42.558  54.011 -54.942  1.00  0.00     0.165 HD
BRANCH  11  17
HETATM   17  C   UNL     1     -40.484  51.932 -54.447  1.00  0.00     0.036 C 
HETATM   18  C   UNL     1     -39.944  50.542 -54.150  1.00  0.00     0.010 C 
ENDBRANCH  11  17
ENDBRANCH   6   7
ENDBRANCH   1   5
BRANCH   2  19
HETATM   19  C   UNL     1     -45.096  60.575 -49.826  1.00  0.00     0.157 A 
HETATM   20  N   UNL     1     -45.859  60.229 -48.827  1.00  0.00    -0.166 NA
HETATM   21  N   UNL     1     -46.014  61.120 -47.808  1.00  0.00    -0.242 N 
HETATM   22  C   UNL     1     -45.433  62.363 -47.721  1.00  0.00     0.272 A 
HETATM   23  H   UNL     1     -46.633  60.846 -47.049  1.00  0.00     0.192 HD
HETATM   24  O   UNL     1     -45.628  63.114 -46.773  1.00  0.00    -0.266 OA
HETATM   25  C   UNL     1     -44.546  62.744 -48.834  1.00  0.00     0.046 A 
HETATM   26  C   UNL     1     -44.367  61.858 -49.894  1.00  0.00     0.016 A 
HETATM   27  C   UNL     1     -43.879  63.975 -48.816  1.00  0.00     0.018 A 
HETATM   28  C   UNL     1     -43.504  62.201 -50.942  1.00  0.00     0.015 A 
HETATM   29  C   UNL     1     -42.839  63.431 -50.925  1.00  0.00     0.001 A 
HETATM   30  C   UNL     1     -43.026  64.317 -49.866  1.00  0.00     0.001 A 
ENDBRANCH   2  19
TORSDOF 4
ENDMDL
MODEL 4
REMARK VINA RESULT:      -8.5      3.485      9.706
REMARK  4 active torsions:
REMARK  status: ('A' for Active; 'I' for Inactive)
REMARK    1  A    between atoms: C_2  and  C_3 
REMARK    2  A    between atoms: C_6  and  C_7 
REMARK    3  A    between atoms: N_8  and  N_9 
REMARK       I    between atoms: N_9  and  C_10 
REMARK    4  A    between atoms: C_10  and  C_11 
ROOT
HETATM    1  N   UNL     1     -42.007  55.642 -55.790  1.00  0.00    -0.242 N 
HETATM    2  C   UNL     1     -42.663  54.566 -55.221  1.00  0.00     0.292 C 
HETATM    3  O   UNL     1     -43.455  53.790 -55.733  1.00  0.00    -0.264 OA
HETATM    4  H   UNL     1     -41.346  56.150 -55.202  1.00  0.00     0.192 HD
ENDROOT
BRANCH   1   5
HETATM    5  N   UNL     1     -42.263  56.245 -56.995  1.00  0.00    -0.183 NA
HETATM    6  C   UNL     1     -42.407  57.528 -57.065  1.00  0.00     0.152 C 
BRANCH   6   7
HETATM    7  C   UNL     1     -42.557  58.148 -58.368  1.00  0.00     0.011 A 
HETATM    8  C   UNL     1     -42.080  59.438 -58.768  1.00  0.00     0.004 A 
HETATM    9  C   UNL     1     -42.384  59.602 -60.123  1.00  0.00     0.049 A 
HETATM   10  C   UNL     1     -41.389  60.472 -58.102  1.00  0.00     0.014 A 
HETATM   11  C   UNL     1     -42.020  60.745 -60.863  1.00  0.00    -0.031 A 
HETATM   12  N   UNL     1     -43.062  58.468 -60.515  1.00  0.00    -0.364 N 
HETATM   13  C   UNL     1     -41.337  61.753 -60.156  1.00  0.00     0.009 A 
HETATM   14  C   UNL     1     -41.029  61.624 -58.804  1.00  0.00     0.002 A 
HETATM   15  C   UNL     1     -43.162  57.586 -59.476  1.00  0.00     0.102 A 
HETATM   16  H   UNL     1     -43.417  58.308 -61.447  1.00  0.00     0.165 HD
BRANCH  11  17
HETATM   17  C   UNL     1     -42.327  60.936 -62.327  1.00  0.00     0.036 C 
HETATM   18  C   UNL     1     -43.784  61.308 -62.557  1.00  0.00     0.010 C 
ENDBRANCH  11  17
ENDBRANCH   6   7
ENDBRANCH   1   5
BRANCH   2  19
HETATM   19  C   UNL     1     -42.344  54.426 -53.741  1.00  0.00     0.157 A 
HETATM   20  N   UNL     1     -43.044  55.161 -52.923  1.00  0.00    -0.166 NA
HETATM   21  N   UNL     1     -42.790  55.044 -51.589  1.00  0.00    -0.242 N 
HETATM   22  C   UNL     1     -41.859  54.213 -51.010  1.00  0.00     0.272 A 
HETATM   23  H   UNL     1     -43.325  55.643 -50.966  1.00  0.00     0.192 HD
HETATM   24  O   UNL     1     -41.682  54.170 -49.798  1.00  0.00    -0.266 OA
HETATM   25  C   UNL     1     -41.089  53.360 -51.931  1.00  0.00     0.046 A 
HETATM   26  C   UNL     1     -41.321  53.456 -53.301  1.00  0.00     0.016 A 
HETATM   27  C   UNL     1     -40.146  52.453 -51.432  1.00  0.00     0.018 A 
HETATM   28  C   UNL     1     -40.612  52.628 -54.181  1.00  0.00     0.015 A 
HETATM   29  C   UNL     1     -39.670  51.724 -53.682  1.00  0.00     0.001 A 
HETATM   30  C   UNL     1     -39.436  51.637 -52.311  1.00  0.00     0.001 A 
ENDBRANCH   2  19
TORSDOF 4
ENDMDL
MODEL 5
REMARK VINA RESULT:      -8.5      3.083      9.477
REMARK  4 active torsions:
REMARK  status: ('A' for Active; 'I' for Inactive)
REMARK    1  A    between atoms: C_2  and  C_3 
REMARK    2  A    between atoms: C_6  and  C_7 
REMARK    3  A    between atoms: N_8  and  N_9 
REMARK       I    between atoms: N_9  and  C_10 
REMARK    4  A    between atoms: C_10  and  C_11 
ROOT
HETATM    1  N   UNL     1     -43.194  56.553 -52.756  1.00  0.00    -0.242 N 
HETATM    2  C   UNL     1     -41.858  56.709 -52.437  1.00  0.00     0.292 C 
HETATM    3  O   UNL     1     -41.031  57.458 -52.935  1.00  0.00    -0.264 OA
HETATM    4  H   UNL     1     -43.735  55.899 -52.192  1.00  0.00     0.192 HD
ENDROOT
BRANCH   1   5
HETATM    5  N   UNL     1     -43.858  57.022 -53.861  1.00  0.00    -0.183 NA
HETATM    6  C   UNL     1     -43.369  56.835 -55.044  1.00  0.00     0.152 C 
BRANCH   6   7
HETATM    7  C   UNL     1     -44.151  57.236 -56.198  1.00  0.00     0.011 A 
HETATM    8  C   UNL     1     -43.928  56.860 -57.562  1.00  0.00     0.004 A 
HETATM    9  C   UNL     1     -44.955  57.417 -58.330  1.00  0.00     0.049 A 
HETATM   10  C   UNL     1     -42.955  56.070 -58.208  1.00  0.00     0.014 A 
HETATM   11  C   UNL     1     -45.077  57.214 -59.719  1.00  0.00    -0.031 A 
HETATM   12  N   UNL     1     -45.745  58.141 -57.464  1.00  0.00    -0.364 N 
HETATM   13  C   UNL     1     -44.080  56.423 -60.323  1.00  0.00     0.009 A 
HETATM   14  C   UNL     1     -43.039  55.864 -59.587  1.00  0.00     0.002 A 
HETATM   15  C   UNL     1     -45.280  58.032 -56.184  1.00  0.00     0.102 A 
HETATM   16  H   UNL     1     -46.565  58.664 -57.740  1.00  0.00     0.165 HD
BRANCH  11  17
HETATM   17  C   UNL     1     -46.184  57.794 -60.562  1.00  0.00     0.036 C 
HETATM   18  C   UNL     1     -47.247  56.759 -60.895  1.00  0.00     0.010 C 
ENDBRANCH  11  17
ENDBRANCH   6   7
ENDBRANCH   1   5
BRANCH   2  19
HETATM   19  C   UNL     1     -41.421  55.747 -51.344  1.00  0.00     0.157 A 
HETATM   20  N   UNL     1     -41.599  56.144 -50.115  1.00  0.00    -0.166 NA
HETATM   21  N   UNL     1     -41.231  55.295 -49.114  1.00  0.00    -0.242 N 
HETATM   22  C   UNL     1     -40.688  54.041 -49.272  1.00  0.00     0.272 A 
HETATM   23  H   UNL     1     -41.350  55.630 -48.162  1.00  0.00     0.192 HD
HETATM   24  O   UNL     1     -40.373  53.338 -48.320  1.00  0.00    -0.266 OA
HETATM   25  C   UNL     1     -40.515  53.579 -50.661  1.00  0.00     0.046 A 
HETATM   26  C   UNL     1     -40.878  54.422 -51.708  1.00  0.00     0.016 A 
HETATM   27  C   UNL     1     -40.006  52.301 -50.920  1.00  0.00     0.018 A 
HETATM   28  C   UNL     1     -40.742  53.979 -53.029  1.00  0.00     0.015 A 
HETATM   29  C   UNL     1     -40.233  52.704 -53.289  1.00  0.00     0.001 A 
HETATM   30  C   UNL     1     -39.864  51.866 -52.238  1.00  0.00     0.001 A 
ENDBRANCH   2  19
TORSDOF 4
ENDMDL
MODEL 6
REMARK VINA RESULT:      -8.4      6.110      8.339
REMARK  4 active torsions:
REMARK  status: ('A' for Active; 'I' for Inactive)
REMARK    1  A    between atoms: C_2  and  C_3 
REMARK    2  A    between atoms: C_6  and  C_7 
REMARK    3  A    between atoms: N_8  and  N_9 
REMARK       I    between atoms: N_9  and  C_10 
REMARK    4  A    between atoms: C_10  and  C_11 
ROOT
HETATM    1  N   UNL     1     -43.949  58.777 -50.887  1.00  0.00    -0.242 N 
HETATM    2  C   UNL     1     -45.239  59.193 -50.611  1.00  0.00     0.292 C 
HETATM    3  O   UNL     1     -46.233  58.520 -50.383  1.00  0.00    -0.264 OA
HETATM    4  H   UNL     1     -43.242  59.500 -51.009  1.00  0.00     0.192 HD
ENDROOT
BRANCH   1   5
HETATM    5  N   UNL     1     -43.522  57.514 -51.207  1.00  0.00    -0.183 NA
HETATM    6  C   UNL     1     -42.261  57.227 -51.185  1.00  0.00     0.152 C 
BRANCH   6   7
HETATM    7  C   UNL     1     -41.849  55.854 -51.411  1.00  0.00     0.011 A 
HETATM    8  C   UNL     1     -41.317  55.304 -52.622  1.00  0.00     0.004 A 
HETATM    9  C   UNL     1     -40.995  53.966 -52.376  1.00  0.00     0.049 A 
HETATM   10  C   UNL     1     -41.055  55.836 -53.902  1.00  0.00     0.014 A 
HETATM   11  C   UNL     1     -40.404  53.125 -53.339  1.00  0.00    -0.031 A 
HETATM   12  N   UNL     1     -41.362  53.707 -51.073  1.00  0.00    -0.364 N 
HETATM   13  C   UNL     1     -40.166  53.696 -54.604  1.00  0.00     0.009 A 
HETATM   14  C   UNL     1     -40.485  55.023 -54.884  1.00  0.00     0.002 A 
HETATM   15  C   UNL     1     -41.864  54.832 -50.483  1.00  0.00     0.102 A 
HETATM   16  H   UNL     1     -41.254  52.811 -50.617  1.00  0.00     0.165 HD
BRANCH  11  17
HETATM   17  C   UNL     1     -40.037  51.683 -53.089  1.00  0.00     0.036 C 
HETATM   18  C   UNL     1     -40.185  50.834 -54.342  1.00  0.00     0.010 C 
ENDBRANCH  11  17
ENDBRANCH   6   7
ENDBRANCH   1   5
BRANCH   2  19
HETATM   19  C   UNL     1     -45.369  60.707 -50.667  1.00  0.00     0.157 A 
HETATM   20  N   UNL     1     -45.590  61.228 -51.841  1.00  0.00    -0.166 NA
HETATM   21  N   UNL     1     -45.727  62.582 -51.919  1.00  0.00    -0.242 N 
HETATM   22  C   UNL     1     -45.661  63.466 -50.867  1.00  0.00     0.272 A 
HETATM   23  H   UNL     1     -45.870  62.976 -52.845  1.00  0.00     0.192 HD
HETATM   24  O   UNL     1     -45.786  64.676 -51.018  1.00  0.00    -0.266 OA
HETATM   25  C   UNL     1     -45.443  62.875 -49.535  1.00  0.00     0.046 A 
HETATM   26  C   UNL     1     -45.296  61.495 -49.420  1.00  0.00     0.016 A 
HETATM   27  C   UNL     1     -45.401  63.692 -48.399  1.00  0.00     0.018 A 
HETATM   28  C   UNL     1     -45.117  60.924 -48.154  1.00  0.00     0.015 A 
HETATM   29  C   UNL     1     -45.073  61.739 -47.020  1.00  0.00     0.001 A 
HETATM   30  C   UNL     1     -45.213  63.120 -47.141  1.00  0.00     0.001 A 
ENDBRANCH   2  19
TORSDOF 4
ENDMDL
MODEL 7
REMARK VINA RESULT:      -8.4      2.286      9.646
REMARK  4 active torsions:
REMARK  status: ('A' for Active; 'I' for Inactive)
REMARK    1  A    between atoms: C_2  and  C_3 
REMARK    2  A    between atoms: C_6  and  C_7 
REMARK    3  A    between atoms: N_8  and  N_9 
REMARK       I    between atoms: N_9  and  C_10 
REMARK    4  A    between atoms: C_10  and  C_11 
ROOT
HETATM    1  N   UNL     1     -42.028  55.643 -55.442  1.00  0.00    -0.242 N 
HETATM    2  C   UNL     1     -42.735  54.925 -54.495  1.00  0.00     0.292 C 
HETATM    3  O   UNL     1     -43.913  54.603 -54.495  1.00  0.00    -0.264 OA
HETATM    4  H   UNL     1     -41.031  55.775 -55.279  1.00  0.00     0.192 HD
ENDROOT
BRANCH   1   5
HETATM    5  N   UNL     1     -42.526  56.371 -56.493  1.00  0.00    -0.183 NA
HETATM    6  C   UNL     1     -43.048  55.771 -57.513  1.00  0.00     0.152 C 
BRANCH   6   7
HETATM    7  C   UNL     1     -43.673  56.568 -58.551  1.00  0.00     0.011 A 
HETATM    8  C   UNL     1     -44.726  57.525 -58.385  1.00  0.00     0.004 A 
HETATM    9  C   UNL     1     -44.975  58.105 -59.633  1.00  0.00     0.049 A 
HETATM   10  C   UNL     1     -45.473  57.970 -57.274  1.00  0.00     0.014 A 
HETATM   11  C   UNL     1     -45.924  59.126 -59.834  1.00  0.00    -0.031 A 
HETATM   12  N   UNL     1     -44.131  57.486 -60.529  1.00  0.00    -0.364 N 
HETATM   13  C   UNL     1     -46.650  59.535 -58.699  1.00  0.00     0.009 A 
HETATM   14  C   UNL     1     -46.433  58.969 -57.444  1.00  0.00     0.002 A 
HETATM   15  C   UNL     1     -43.339  56.572 -59.892  1.00  0.00     0.102 A 
HETATM   16  H   UNL     1     -44.093  57.696 -61.517  1.00  0.00     0.165 HD
BRANCH  11  17
HETATM   17  C   UNL     1     -46.197  59.773 -61.168  1.00  0.00     0.036 C 
HETATM   18  C   UNL     1     -47.604  59.477 -61.666  1.00  0.00     0.010 C 
ENDBRANCH  11  17
ENDBRANCH   6   7
ENDBRANCH   1   5
BRANCH   2  19
HETATM   19  C   UNL     1     -41.872  54.568 -53.296  1.00  0.00     0.157 A 
HETATM   20  N   UNL     1     -41.914  55.389 -52.284  1.00  0.00    -0.166 NA
HETATM   21  N   UNL     1     -41.162  55.085 -51.188  1.00  0.00    -0.242 N 
HETATM   22  C   UNL     1     -40.356  53.980 -51.038  1.00  0.00     0.272 A 
HETATM   23  H   UNL     1     -41.184  55.748 -50.418  1.00  0.00     0.192 HD
HETATM   24  O   UNL     1     -39.701  53.779 -50.022  1.00  0.00    -0.266 OA
HETATM   25  C   UNL     1     -40.332  53.036 -52.169  1.00  0.00     0.046 A 
HETATM   26  C   UNL     1     -41.086  53.317 -53.305  1.00  0.00     0.016 A 
HETATM   27  C   UNL     1     -39.571  51.863 -52.092  1.00  0.00     0.018 A 
HETATM   28  C   UNL     1     -41.090  52.410 -54.372  1.00  0.00     0.015 A 
HETATM   29  C   UNL     1     -40.329  51.240 -54.297  1.00  0.00     0.001 A 
HETATM   30  C   UNL     1     -39.571  50.966 -53.161  1.00  0.00     0.001 A 
ENDBRANCH   2  19
TORSDOF 4
ENDMDL
MODEL 8
REMARK VINA RESULT:      -8.3      2.039      2.507
REMARK  4 active torsions:
REMARK  status: ('A' for Active; 'I' for Inactive)
REMARK    1  A    between atoms: C_2  and  C_3 
REMARK    2  A    between atoms: C_6  and  C_7 
REMARK    3  A    between atoms: N_8  and  N_9 
REMARK       I    between atoms: N_9  and  C_10 
REMARK    4  A    between atoms: C_10  and  C_11 
ROOT
HETATM    1  N   UNL     1     -43.786  56.507 -56.507  1.00  0.00    -0.242 N 
HETATM    2  C   UNL     1     -43.407  56.513 -57.837  1.00  0.00     0.292 C 
HETATM    3  O   UNL     1     -42.765  55.680 -58.457  1.00  0.00    -0.264 OA
HETATM    4  H   UNL     1     -44.361  57.284 -56.182  1.00  0.00     0.192 HD
ENDROOT
BRANCH   1   5
HETATM    5  N   UNL     1     -43.334  55.687 -55.505  1.00  0.00    -0.183 NA
HETATM    6  C   UNL     1     -42.364  56.067 -54.738  1.00  0.00     0.152 C 
BRANCH   6   7
HETATM    7  C   UNL     1     -41.989  55.230 -53.615  1.00  0.00     0.011 A 
HETATM    8  C   UNL     1     -41.241  54.009 -53.663  1.00  0.00     0.004 A 
HETATM    9  C   UNL     1     -41.052  53.574 -52.347  1.00  0.00     0.049 A 
HETATM   10  C   UNL     1     -40.683  53.248 -54.711  1.00  0.00     0.014 A 
HETATM   11  C   UNL     1     -40.315  52.420 -52.014  1.00  0.00    -0.031 A 
HETATM   12  N   UNL     1     -41.702  54.479 -51.536  1.00  0.00    -0.364 N 
HETATM   13  C   UNL     1     -39.783  51.688 -53.093  1.00  0.00     0.009 A 
HETATM   14  C   UNL     1     -39.962  52.089 -54.414  1.00  0.00     0.002 A 
HETATM   15  C   UNL     1     -42.257  55.480 -52.283  1.00  0.00     0.102 A 
HETATM   16  H   UNL     1     -41.743  54.417 -50.529  1.00  0.00     0.165 HD
BRANCH  11  17
HETATM   17  C   UNL     1     -40.089  51.942 -50.602  1.00  0.00     0.036 C 
HETATM   18  C   UNL     1     -39.936  50.431 -50.532  1.00  0.00     0.010 C 
ENDBRANCH  11  17
ENDBRANCH   6   7
ENDBRANCH   1   5
BRANCH   2  19
HETATM   19  C   UNL     1     -43.841  57.788 -58.543  1.00  0.00     0.157 A 
HETATM   20  N   UNL     1     -43.052  58.819 -58.420  1.00  0.00    -0.166 NA
HETATM   21  N   UNL     1     -43.409  59.970 -59.056  1.00  0.00    -0.242 N 
HETATM   22  C   UNL     1     -44.530  60.156 -59.831  1.00  0.00     0.272 A 
HETATM   23  H   UNL     1     -42.799  60.773 -58.927  1.00  0.00     0.192 HD
HETATM   24  O   UNL     1     -44.788  61.227 -60.366  1.00  0.00    -0.266 OA
HETATM   25  C   UNL     1     -45.405  58.982 -59.997  1.00  0.00     0.046 A 
HETATM   26  C   UNL     1     -45.073  57.790 -59.358  1.00  0.00     0.016 A 
HETATM   27  C   UNL     1     -46.549  59.063 -60.800  1.00  0.00     0.018 A 
HETATM   28  C   UNL     1     -45.885  56.663 -59.534  1.00  0.00     0.015 A 
HETATM   29  C   UNL     1     -47.028  56.744 -60.335  1.00  0.00     0.001 A 
HETATM   30  C   UNL     1     -47.361  57.941 -60.966  1.00  0.00     0.001 A 
ENDBRANCH   2  19
TORSDOF 4
ENDMDL
MODEL 9
REMARK VINA RESULT:      -8.2      2.996      9.390
REMARK  4 active torsions:
REMARK  status: ('A' for Active; 'I' for Inactive)
REMARK    1  A    between atoms: C_2  and  C_3 
REMARK    2  A    between atoms: C_6  and  C_7 
REMARK    3  A    between atoms: N_8  and  N_9 
REMARK       I    between atoms: N_9  and  C_10 
REMARK    4  A    between atoms: C_10  and  C_11 
ROOT
HETATM    1  N   UNL     1     -42.581  54.987 -53.581  1.00  0.00    -0.242 N 
HETATM    2  C   UNL     1     -41.216  54.773 -53.522  1.00  0.00     0.292 C 
HETATM    3  O   UNL     1     -40.328  55.282 -54.190  1.00  0.00    -0.264 OA
HETATM    4  H   UNL     1     -43.161  54.492 -52.904  1.00  0.00     0.192 HD
ENDROOT
BRANCH   1   5
HETATM    5  N   UNL     1     -43.291  55.639 -54.557  1.00  0.00    -0.183 NA
HETATM    6  C   UNL     1     -42.867  56.766 -55.030  1.00  0.00     0.152 C 
BRANCH   6   7
HETATM    7  C   UNL     1     -43.573  57.370 -56.143  1.00  0.00     0.011 A 
HETATM    8  C   UNL     1     -43.531  56.958 -57.515  1.00  0.00     0.004 A 
HETATM    9  C   UNL     1     -44.412  57.774 -58.231  1.00  0.00     0.049 A 
HETATM   10  C   UNL     1     -42.839  55.942 -58.207  1.00  0.00     0.014 A 
HETATM   11  C   UNL     1     -44.657  57.621 -59.610  1.00  0.00    -0.031 A 
HETATM   12  N   UNL     1     -44.934  58.676 -57.330  1.00  0.00    -0.364 N 
HETATM   13  C   UNL     1     -43.941  56.599 -60.261  1.00  0.00     0.009 A 
HETATM   14  C   UNL     1     -43.048  55.776 -59.578  1.00  0.00     0.002 A 
HETATM   15  C   UNL     1     -44.448  58.437 -56.075  1.00  0.00     0.102 A 
HETATM   16  H   UNL     1     -45.598  59.400 -57.565  1.00  0.00     0.165 HD
BRANCH  11  17
HETATM   17  C   UNL     1     -45.613  58.482 -60.398  1.00  0.00     0.036 C 
HETATM   18  C   UNL     1     -44.994  59.820 -60.774  1.00  0.00     0.010 C 
ENDBRANCH  11  17
ENDBRANCH   6   7
ENDBRANCH   1   5
BRANCH   2  19
HETATM   19  C   UNL     1     -40.854  53.709 -52.499  1.00  0.00     0.157 A 
HETATM   20  N   UNL     1     -40.997  54.035 -51.245  1.00  0.00    -0.166 NA
HETATM   21  N   UNL     1     -40.695  53.095 -50.306  1.00  0.00    -0.242 N 
HETATM   22  C   UNL     1     -40.253  51.816 -50.551  1.00  0.00     0.272 A 
HETATM   23  H   UNL     1     -40.786  53.373 -49.332  1.00  0.00     0.192 HD
HETATM   24  O   UNL     1     -39.993  51.027 -49.650  1.00  0.00    -0.266 OA
HETATM   25  C   UNL     1     -40.120  51.436 -51.968  1.00  0.00     0.046 A 
HETATM   26  C   UNL     1     -40.418  52.373 -52.954  1.00  0.00     0.016 A 
HETATM   27  C   UNL     1     -39.714  50.142 -52.317  1.00  0.00     0.018 A 
HETATM   28  C   UNL     1     -40.321  52.010 -54.303  1.00  0.00     0.015 A 
HETATM   29  C   UNL     1     -39.914  50.719 -54.651  1.00  0.00     0.001 A 
HETATM   30  C   UNL     1     -39.610  49.787 -53.662  1.00  0.00     0.001 A 
ENDBRANCH   2  19
TORSDOF 4
ENDMDL
MODEL 10
REMARK VINA RESULT:      -8.1      2.561      2.869
REMARK  4 active torsions:
REMARK  status: ('A' for Active; 'I' for Inactive)
REMARK    1  A    between atoms: C_2  and  C_3 
REMARK    2  A    between atoms: C_6  and  C_7 
REMARK    3  A    between atoms: N_8  and  N_9 
REMARK       I    between atoms: N_9  and  C_10 
REMARK    4  A    between atoms: C_10  and  C_11 
ROOT
HETATM    1  N   UNL     1     -43.904  56.897 -56.925  1.00  0.00    -0.242 N 
HETATM    2  C   UNL     1     -43.538  56.580 -58.221  1.00  0.00     0.292 C 
HETATM    3  O   UNL     1     -43.015  55.561 -58.646  1.00  0.00    -0.264 OA
HETATM    4  H   UNL     1     -44.370  57.791 -56.777  1.00  0.00     0.192 HD
ENDROOT
BRANCH   1   5
HETATM    5  N   UNL     1     -43.554  56.248 -55.769  1.00  0.00    -0.183 NA
HETATM    6  C   UNL     1     -42.356  56.359 -55.295  1.00  0.00     0.152 C 
BRANCH   6   7
HETATM    7  C   UNL     1     -42.051  55.761 -54.009  1.00  0.00     0.011 A 
HETATM    8  C   UNL     1     -41.350  54.533 -53.776  1.00  0.00     0.004 A 
HETATM    9  C   UNL     1     -41.222  54.372 -52.393  1.00  0.00     0.049 A 
HETATM   10  C   UNL     1     -40.788  53.555 -54.624  1.00  0.00     0.014 A 
HETATM   11  C   UNL     1     -40.543  53.289 -51.801  1.00  0.00    -0.031 A 
HETATM   12  N   UNL     1     -41.863  55.445 -51.812  1.00  0.00    -0.364 N 
HETATM   13  C   UNL     1     -40.003  52.335 -52.685  1.00  0.00     0.009 A 
HETATM   14  C   UNL     1     -40.123  52.461 -54.067  1.00  0.00     0.002 A 
HETATM   15  C   UNL     1     -42.353  56.288 -52.769  1.00  0.00     0.102 A 
HETATM   16  H   UNL     1     -41.940  55.593 -50.815  1.00  0.00     0.165 HD
BRANCH  11  17
HETATM   17  C   UNL     1     -40.382  53.105 -50.313  1.00  0.00     0.036 C 
HETATM   18  C   UNL     1     -39.560  54.221 -49.689  1.00  0.00     0.010 C 
ENDBRANCH  11  17
ENDBRANCH   6   7
ENDBRANCH   1   5
BRANCH   2  19
HETATM   19  C   UNL     1     -43.807  57.728 -59.181  1.00  0.00     0.157 A 
HETATM   20  N   UNL     1     -44.767  57.550 -60.046  1.00  0.00    -0.166 NA
HETATM   21  N   UNL     1     -45.041  58.568 -60.908  1.00  0.00    -0.242 N 
HETATM   22  C   UNL     1     -44.403  59.786 -60.956  1.00  0.00     0.272 A 
HETATM   23  H   UNL     1     -45.773  58.404 -61.594  1.00  0.00     0.192 HD
HETATM   24  O   UNL     1     -44.702  60.652 -61.770  1.00  0.00    -0.266 OA
HETATM   25  C   UNL     1     -43.340  60.001 -59.959  1.00  0.00     0.046 A 
HETATM   26  C   UNL     1     -43.031  58.979 -59.064  1.00  0.00     0.016 A 
HETATM   27  C   UNL     1     -42.661  61.224 -59.904  1.00  0.00     0.018 A 
HETATM   28  C   UNL     1     -42.041  59.187 -58.095  1.00  0.00     0.015 A 
HETATM   29  C   UNL     1     -41.361  60.407 -58.042  1.00  0.00     0.001 A 
HETATM   30  C   UNL     1     -41.669  61.423 -58.944  1.00  0.00     0.001 A 
ENDBRANCH   2  19
TORSDOF 4
ENDMDL
