MODEL 1
REMARK VINA RESULT:      -7.4      0.000      0.000
REMARK  5 active torsions:
REMARK  status: ('A' for Active; 'I' for Inactive)
REMARK    1  A    between atoms: C_9  and  C_10 
REMARK    2  A    between atoms: C_10  and  N_11 
REMARK    3  A    between atoms: N_11  and  C_14 
REMARK    4  A    between atoms: C_14  and  C_15 
REMARK    5  A    between atoms: C_16  and  C_17 
ROOT
HETATM    1  C   UNL     1     -41.665  55.465 -54.655  1.00  0.00    -0.036 A 
HETATM    2  C   UNL     1     -40.310  55.111 -54.701  1.00  0.00     0.013 A 
HETATM    3  C   UNL     1     -39.926  53.770 -54.606  1.00  0.00     0.023 A 
HETATM    4  C   UNL     1     -40.894  52.770 -54.462  1.00  0.00     0.044 A 
HETATM    5  C   UNL     1     -40.502  51.393 -54.372  1.00  0.00     0.099 C 
HETATM    6  N   UNL     1     -40.187  50.279 -54.306  1.00  0.00    -0.191 NA
HETATM    7  C   UNL     1     -42.246  53.121 -54.406  1.00  0.00     0.023 A 
HETATM    8  C   UNL     1     -42.629  54.464 -54.496  1.00  0.00     0.013 A 
ENDROOT
BRANCH   1   9
HETATM    9  C   UNL     1     -42.089  56.865 -54.746  1.00  0.00     0.009 C 
HETATM   10  C   UNL     1     -41.299  57.871 -54.336  1.00  0.00     0.001 C 
BRANCH  10  11
HETATM   11  C   UNL     1     -41.675  59.311 -54.398  1.00  0.00     0.259 C 
BRANCH  11  12
HETATM   12  N   UNL     1     -41.971  59.828 -53.033  1.00  0.00    -0.071 N 
HETATM   13  H   UNL     1     -42.995  59.879 -52.929  1.00  0.00     0.277 HD
HETATM   14  H   UNL     1     -41.643  60.801 -52.985  1.00  0.00     0.277 HD
BRANCH  12  15
HETATM   15  C   UNL     1     -41.378  59.016 -51.918  1.00  0.00     0.242 C 
BRANCH  15  16
HETATM   16  C   UNL     1     -42.455  58.236 -51.133  1.00  0.00     0.055 C 
HETATM   17  C   UNL     1     -42.267  56.728 -51.100  1.00  0.00    -0.025 A 
HETATM   18  C   UNL     1     -41.002  56.118 -51.090  1.00  0.00     0.010 A 
HETATM   19  C   UNL     1     -43.398  55.911 -50.936  1.00  0.00     0.041 A 
HETATM   20  C   UNL     1     -40.882  54.729 -50.986  1.00  0.00     0.001 A 
HETATM   21  C   UNL     1     -42.017  53.935 -50.860  1.00  0.00     0.002 A 
HETATM   22  C   UNL     1     -43.277  54.526 -50.818  1.00  0.00     0.030 A 
HETATM   23  N   UNL     1     -44.668  56.482 -50.827  1.00  0.00    -0.327 N 
HETATM   24  C   UNL     1     -44.946  57.802 -51.025  1.00  0.00     0.222 C 
HETATM   25  H   UNL     1     -45.455  55.910 -50.535  1.00  0.00     0.169 HD
HETATM   26  O   UNL     1     -46.064  58.266 -50.830  1.00  0.00    -0.273 OA
HETATM   27  C   UNL     1     -43.845  58.616 -51.650  1.00  0.00     0.114 C 
ENDBRANCH  15  16
ENDBRANCH  12  15
ENDBRANCH  11  12
ENDBRANCH  10  11
ENDBRANCH   1   9
TORSDOF 5
ENDMDL
MODEL 2
REMARK VINA RESULT:      -7.3      4.750      6.558
REMARK  5 active torsions:
REMARK  status: ('A' for Active; 'I' for Inactive)
REMARK    1  A    between atoms: C_9  and  C_10 
REMARK    2  A    between atoms: C_10  and  N_11 
REMARK    3  A    between atoms: N_11  and  C_14 
REMARK    4  A    between atoms: C_14  and  C_15 
REMARK    5  A    between atoms: C_16  and  C_17 
ROOT
HETATM    1  C   UNL     1     -43.970  55.994 -58.663  1.00  0.00    -0.036 A 
HETATM    2  C   UNL     1     -44.903  57.032 -58.535  1.00  0.00     0.013 A 
HETATM    3  C   UNL     1     -45.964  57.144 -59.438  1.00  0.00     0.023 A 
HETATM    4  C   UNL     1     -46.101  56.221 -60.480  1.00  0.00     0.044 A 
HETATM    5  C   UNL     1     -47.194  56.330 -61.403  1.00  0.00     0.099 C 
HETATM    6  N   UNL     1     -48.081  56.414 -62.146  1.00  0.00    -0.191 NA
HETATM    7  C   UNL     1     -45.167  55.190 -60.616  1.00  0.00     0.023 A 
HETATM    8  C   UNL     1     -44.102  55.081 -59.715  1.00  0.00     0.013 A 
ENDROOT
BRANCH   1   9
HETATM    9  C   UNL     1     -42.847  55.862 -57.731  1.00  0.00     0.009 C 
HETATM   10  C   UNL     1     -42.884  56.393 -56.498  1.00  0.00     0.001 C 
BRANCH  10  11
HETATM   11  C   UNL     1     -41.774  56.298 -55.509  1.00  0.00     0.259 C 
BRANCH  11  12
HETATM   12  N   UNL     1     -41.079  54.987 -55.637  1.00  0.00    -0.071 N 
HETATM   13  H   UNL     1     -40.075  55.144 -55.469  1.00  0.00     0.277 HD
HETATM   14  H   UNL     1     -41.148  54.687 -56.617  1.00  0.00     0.277 HD
BRANCH  12  15
HETATM   15  C   UNL     1     -41.596  53.917 -54.720  1.00  0.00     0.242 C 
BRANCH  15  16
HETATM   16  C   UNL     1     -40.623  53.633 -53.555  1.00  0.00     0.055 C 
HETATM   17  C   UNL     1     -40.307  52.165 -53.320  1.00  0.00    -0.025 A 
HETATM   18  C   UNL     1     -40.239  51.224 -54.361  1.00  0.00     0.010 A 
HETATM   19  C   UNL     1     -39.933  51.753 -52.029  1.00  0.00     0.041 A 
HETATM   20  C   UNL     1     -39.872  49.900 -54.101  1.00  0.00     0.001 A 
HETATM   21  C   UNL     1     -39.539  49.505 -52.810  1.00  0.00     0.002 A 
HETATM   22  C   UNL     1     -39.554  50.435 -51.774  1.00  0.00     0.030 A 
HETATM   23  N   UNL     1     -39.876  52.678 -50.985  1.00  0.00    -0.327 N 
HETATM   24  C   UNL     1     -40.313  53.967 -51.065  1.00  0.00     0.222 C 
HETATM   25  H   UNL     1     -39.441  52.420 -50.105  1.00  0.00     0.169 HD
HETATM   26  O   UNL     1     -40.159  54.763 -50.145  1.00  0.00    -0.273 OA
HETATM   27  C   UNL     1     -41.137  54.305 -52.278  1.00  0.00     0.114 C 
ENDBRANCH  15  16
ENDBRANCH  12  15
ENDBRANCH  11  12
ENDBRANCH  10  11
ENDBRANCH   1   9
TORSDOF 5
ENDMDL
MODEL 3
REMARK VINA RESULT:      -7.2      2.075      3.953
REMARK  5 active torsions:
REMARK  status: ('A' for Active; 'I' for Inactive)
REMARK    1  A    between atoms: C_9  and  C_10 
REMARK    2  A    between atoms: C_10  and  N_11 
REMARK    3  A    between atoms: N_11  and  C_14 
REMARK    4  A    between atoms: C_14  and  C_15 
REMARK    5  A    between atoms: C_16  and  C_17 
ROOT
HETATM    1  C   UNL     1     -40.418  53.674 -51.512  1.00  0.00    -0.036 A 
HETATM    2  C   UNL     1     -40.624  53.796 -52.892  1.00  0.00     0.013 A 
HETATM    3  C   UNL     1     -40.405  52.705 -53.738  1.00  0.00     0.023 A 
HETATM    4  C   UNL     1     -39.975  51.482 -53.212  1.00  0.00     0.044 A 
HETATM    5  C   UNL     1     -39.758  50.360 -54.079  1.00  0.00     0.099 C 
HETATM    6  N   UNL     1     -39.587  49.450 -54.778  1.00  0.00    -0.191 NA
HETATM    7  C   UNL     1     -39.760  51.360 -51.837  1.00  0.00     0.023 A 
HETATM    8  C   UNL     1     -39.974  52.453 -50.991  1.00  0.00     0.013 A 
ENDROOT
BRANCH   1   9
HETATM    9  C   UNL     1     -40.636  54.807 -50.607  1.00  0.00     0.009 C 
HETATM   10  C   UNL     1     -40.972  56.023 -51.065  1.00  0.00     0.001 C 
BRANCH  10  11
HETATM   11  C   UNL     1     -41.201  57.213 -50.198  1.00  0.00     0.259 C 
BRANCH  11  12
HETATM   12  N   UNL     1     -42.290  58.059 -50.757  1.00  0.00    -0.071 N 
HETATM   13  H   UNL     1     -41.855  58.788 -51.342  1.00  0.00     0.277 HD
HETATM   14  H   UNL     1     -42.731  58.563 -49.978  1.00  0.00     0.277 HD
BRANCH  12  15
HETATM   15  C   UNL     1     -43.319  57.306 -51.549  1.00  0.00     0.242 C 
BRANCH  15  16
HETATM   16  C   UNL     1     -43.290  57.685 -53.046  1.00  0.00     0.055 C 
HETATM   17  C   UNL     1     -43.166  56.514 -54.007  1.00  0.00    -0.025 A 
HETATM   18  C   UNL     1     -43.731  55.254 -53.749  1.00  0.00     0.010 A 
HETATM   19  C   UNL     1     -42.581  56.733 -55.265  1.00  0.00     0.041 A 
HETATM   20  C   UNL     1     -43.651  54.230 -54.698  1.00  0.00     0.001 A 
HETATM   21  C   UNL     1     -43.037  54.457 -55.925  1.00  0.00     0.002 A 
HETATM   22  C   UNL     1     -42.514  55.714 -56.217  1.00  0.00     0.030 A 
HETATM   23  N   UNL     1     -42.107  58.000 -55.609  1.00  0.00    -0.327 N 
HETATM   24  C   UNL     1     -42.015  59.055 -54.750  1.00  0.00     0.222 C 
HETATM   25  H   UNL     1     -41.848  58.198 -56.571  1.00  0.00     0.169 HD
HETATM   26  O   UNL     1     -41.674  60.170 -55.126  1.00  0.00    -0.273 OA
HETATM   27  C   UNL     1     -42.196  58.728 -53.292  1.00  0.00     0.114 C 
ENDBRANCH  15  16
ENDBRANCH  12  15
ENDBRANCH  11  12
ENDBRANCH  10  11
ENDBRANCH   1   9
TORSDOF 5
ENDMDL
MODEL 4
REMARK VINA RESULT:      -7.1      2.844      4.305
REMARK  5 active torsions:
REMARK  status: ('A' for Active; 'I' for Inactive)
REMARK    1  A    between atoms: C_9  and  C_10 
REMARK    2  A    between atoms: C_10  and  N_11 
REMARK    3  A    between atoms: N_11  and  C_14 
REMARK    4  A    between atoms: C_14  and  C_15 
REMARK    5  A    between atoms: C_16  and  C_17 
ROOT
HETATM    1  C   UNL     1     -40.745  54.979 -53.079  1.00  0.00    -0.036 A 
HETATM    2  C   UNL     1     -40.336  54.681 -54.385  1.00  0.00     0.013 A 
HETATM    3  C   UNL     1     -40.085  53.359 -54.763  1.00  0.00     0.023 A 
HETATM    4  C   UNL     1     -40.238  52.321 -53.837  1.00  0.00     0.044 A 
HETATM    5  C   UNL     1     -39.989  50.963 -54.226  1.00  0.00     0.099 C 
HETATM    6  N   UNL     1     -39.793  49.864 -54.541  1.00  0.00    -0.191 NA
HETATM    7  C   UNL     1     -40.637  52.617 -52.530  1.00  0.00     0.023 A 
HETATM    8  C   UNL     1     -40.883  53.940 -52.151  1.00  0.00     0.013 A 
ENDROOT
BRANCH   1   9
HETATM    9  C   UNL     1     -41.007  56.359 -52.660  1.00  0.00     0.009 C 
HETATM   10  C   UNL     1     -40.708  57.406 -53.446  1.00  0.00     0.001 C 
BRANCH  10  11
HETATM   11  C   UNL     1     -40.945  58.829 -53.074  1.00  0.00     0.259 C 
BRANCH  11  12
HETATM   12  N   UNL     1     -41.622  59.549 -54.188  1.00  0.00    -0.071 N 
HETATM   13  H   UNL     1     -41.076  59.386 -55.047  1.00  0.00     0.277 HD
HETATM   14  H   UNL     1     -41.547  60.557 -54.005  1.00  0.00     0.277 HD
BRANCH  12  15
HETATM   15  C   UNL     1     -43.055  59.157 -54.403  1.00  0.00     0.242 C 
BRANCH  15  16
HETATM   16  C   UNL     1     -43.256  58.401 -55.734  1.00  0.00     0.055 C 
HETATM   17  C   UNL     1     -43.335  56.888 -55.614  1.00  0.00    -0.025 A 
HETATM   18  C   UNL     1     -43.897  56.241 -54.502  1.00  0.00     0.010 A 
HETATM   19  C   UNL     1     -42.955  56.103 -56.715  1.00  0.00     0.041 A 
HETATM   20  C   UNL     1     -44.012  54.848 -54.471  1.00  0.00     0.001 A 
HETATM   21  C   UNL     1     -43.598  54.086 -55.558  1.00  0.00     0.002 A 
HETATM   22  C   UNL     1     -43.083  54.714 -56.690  1.00  0.00     0.030 A 
HETATM   23  N   UNL     1     -42.496  56.710 -57.886  1.00  0.00    -0.327 N 
HETATM   24  C   UNL     1     -42.225  58.039 -58.018  1.00  0.00     0.222 C 
HETATM   25  H   UNL     1     -42.391  56.158 -58.733  1.00  0.00     0.169 HD
HETATM   26  O   UNL     1     -41.908  58.534 -59.093  1.00  0.00    -0.273 OA
HETATM   27  C   UNL     1     -42.178  58.827 -56.736  1.00  0.00     0.114 C 
ENDBRANCH  15  16
ENDBRANCH  12  15
ENDBRANCH  11  12
ENDBRANCH  10  11
ENDBRANCH   1   9
TORSDOF 5
ENDMDL
MODEL 5
REMARK VINA RESULT:      -7.0      1.917      3.138
REMARK  5 active torsions:
REMARK  status: ('A' for Active; 'I' for Inactive)
REMARK    1  A    between atoms: C_9  and  C_10 
REMARK    2  A    between atoms: C_10  and  N_11 
REMARK    3  A    between atoms: N_11  and  C_14 
REMARK    4  A    between atoms: C_14  and  C_15 
REMARK    5  A    between atoms: C_16  and  C_17 
ROOT
HETATM    1  C   UNL     1     -40.748  54.053 -53.674  1.00  0.00    -0.036 A 
HETATM    2  C   UNL     1     -40.787  54.069 -52.274  1.00  0.00     0.013 A 
HETATM    3  C   UNL     1     -40.372  52.953 -51.542  1.00  0.00     0.023 A 
HETATM    4  C   UNL     1     -39.917  51.807 -52.204  1.00  0.00     0.044 A 
HETATM    5  C   UNL     1     -39.484  50.663 -51.454  1.00  0.00     0.099 C 
HETATM    6  N   UNL     1     -39.129  49.740 -50.849  1.00  0.00    -0.191 NA
HETATM    7  C   UNL     1     -39.886  51.784 -53.601  1.00  0.00     0.023 A 
HETATM    8  C   UNL     1     -40.306  52.900 -54.333  1.00  0.00     0.013 A 
ENDROOT
BRANCH   1   9
HETATM    9  C   UNL     1     -41.183  55.211 -54.461  1.00  0.00     0.009 C 
HETATM   10  C   UNL     1     -42.196  55.128 -55.339  1.00  0.00     0.001 C 
BRANCH  10  11
HETATM   11  C   UNL     1     -42.680  56.265 -56.170  1.00  0.00     0.259 C 
BRANCH  11  12
HETATM   12  N   UNL     1     -43.875  56.893 -55.543  1.00  0.00    -0.071 N 
HETATM   13  H   UNL     1     -44.117  56.343 -54.705  1.00  0.00     0.277 HD
HETATM   14  H   UNL     1     -44.669  56.774 -56.185  1.00  0.00     0.277 HD
BRANCH  12  15
HETATM   15  C   UNL     1     -43.701  58.339 -55.181  1.00  0.00     0.242 C 
BRANCH  15  16
HETATM   16  C   UNL     1     -43.715  58.560 -53.653  1.00  0.00     0.055 C 
HETATM   17  C   UNL     1     -42.357  58.476 -52.975  1.00  0.00    -0.025 A 
HETATM   18  C   UNL     1     -41.167  58.887 -53.599  1.00  0.00     0.010 A 
HETATM   19  C   UNL     1     -42.301  58.102 -51.622  1.00  0.00     0.041 A 
HETATM   20  C   UNL     1     -39.953  58.858 -52.907  1.00  0.00     0.001 A 
HETATM   21  C   UNL     1     -39.914  58.450 -51.578  1.00  0.00     0.002 A 
HETATM   22  C   UNL     1     -41.090  58.086 -50.928  1.00  0.00     0.030 A 
HETATM   23  N   UNL     1     -43.472  57.794 -50.928  1.00  0.00    -0.327 N 
HETATM   24  C   UNL     1     -44.704  57.669 -51.500  1.00  0.00     0.222 C 
HETATM   25  H   UNL     1     -43.449  57.696 -49.917  1.00  0.00     0.169 HD
HETATM   26  O   UNL     1     -45.714  57.484 -50.831  1.00  0.00    -0.273 OA
HETATM   27  C   UNL     1     -44.724  57.608 -53.004  1.00  0.00     0.114 C 
ENDBRANCH  15  16
ENDBRANCH  12  15
ENDBRANCH  11  12
ENDBRANCH  10  11
ENDBRANCH   1   9
TORSDOF 5
ENDMDL
MODEL 6
REMARK VINA RESULT:      -6.8      2.421      3.497
REMARK  5 active torsions:
REMARK  status: ('A' for Active; 'I' for Inactive)
REMARK    1  A    between atoms: C_9  and  C_10 
REMARK    2  A    between atoms: C_10  and  N_11 
REMARK    3  A    between atoms: N_11  and  C_14 
REMARK    4  A    between atoms: C_14  and  C_15 
REMARK    5  A    between atoms: C_16  and  C_17 
ROOT
HETATM    1  C   UNL     1     -40.416  53.213 -54.112  1.00  0.00    -0.036 A 
HETATM    2  C   UNL     1     -40.218  51.898 -54.554  1.00  0.00     0.013 A 
HETATM    3  C   UNL     1     -39.885  50.890 -53.645  1.00  0.00     0.023 A 
HETATM    4  C   UNL     1     -39.744  51.187 -52.285  1.00  0.00     0.044 A 
HETATM    5  C   UNL     1     -39.409  50.152 -51.350  1.00  0.00     0.099 C 
HETATM    6  N   UNL     1     -39.145  49.314 -50.592  1.00  0.00    -0.191 NA
HETATM    7  C   UNL     1     -39.931  52.500 -51.843  1.00  0.00     0.023 A 
HETATM    8  C   UNL     1     -40.259  53.510 -52.754  1.00  0.00     0.013 A 
ENDROOT
BRANCH   1   9
HETATM    9  C   UNL     1     -40.760  54.287 -55.049  1.00  0.00     0.009 C 
HETATM   10  C   UNL     1     -42.034  54.571 -55.362  1.00  0.00     0.001 C 
BRANCH  10  11
HETATM   11  C   UNL     1     -42.446  55.645 -56.309  1.00  0.00     0.259 C 
BRANCH  11  12
HETATM   12  N   UNL     1     -43.832  56.096 -56.009  1.00  0.00    -0.071 N 
HETATM   13  H   UNL     1     -44.457  55.283 -56.106  1.00  0.00     0.277 HD
HETATM   14  H   UNL     1     -44.119  56.750 -56.748  1.00  0.00     0.277 HD
BRANCH  12  15
HETATM   15  C   UNL     1     -44.003  56.722 -54.655  1.00  0.00     0.242 C 
BRANCH  15  16
HETATM   16  C   UNL     1     -42.660  56.863 -53.907  1.00  0.00     0.055 C 
HETATM   17  C   UNL     1     -42.625  56.248 -52.518  1.00  0.00    -0.025 A 
HETATM   18  C   UNL     1     -43.346  55.092 -52.178  1.00  0.00     0.010 A 
HETATM   19  C   UNL     1     -41.731  56.774 -51.570  1.00  0.00     0.041 A 
HETATM   20  C   UNL     1     -43.223  54.524 -50.906  1.00  0.00     0.001 A 
HETATM   21  C   UNL     1     -42.359  55.081 -49.970  1.00  0.00     0.002 A 
HETATM   22  C   UNL     1     -41.599  56.198 -50.305  1.00  0.00     0.030 A 
HETATM   23  N   UNL     1     -40.910  57.854 -51.901  1.00  0.00    -0.327 N 
HETATM   24  C   UNL     1     -41.003  58.576 -53.053  1.00  0.00     0.222 C 
HETATM   25  H   UNL     1     -40.149  58.117 -51.282  1.00  0.00     0.169 HD
HETATM   26  O   UNL     1     -40.200  59.459 -53.333  1.00  0.00    -0.273 OA
HETATM   27  C   UNL     1     -42.239  58.336 -53.878  1.00  0.00     0.114 C 
ENDBRANCH  15  16
ENDBRANCH  12  15
ENDBRANCH  11  12
ENDBRANCH  10  11
ENDBRANCH   1   9
TORSDOF 5
ENDMDL
MODEL 7
REMARK VINA RESULT:      -6.6      3.301      4.740
REMARK  5 active torsions:
REMARK  status: ('A' for Active; 'I' for Inactive)
REMARK    1  A    between atoms: C_9  and  C_10 
REMARK    2  A    between atoms: C_10  and  N_11 
REMARK    3  A    between atoms: N_11  and  C_14 
REMARK    4  A    between atoms: C_14  and  C_15 
REMARK    5  A    between atoms: C_16  and  C_17 
ROOT
HETATM    1  C   UNL     1     -42.312  57.683 -55.579  1.00  0.00    -0.036 A 
HETATM    2  C   UNL     1     -42.530  56.309 -55.747  1.00  0.00     0.013 A 
HETATM    3  C   UNL     1     -42.857  55.793 -57.004  1.00  0.00     0.023 A 
HETATM    4  C   UNL     1     -42.972  56.646 -58.106  1.00  0.00     0.044 A 
HETATM    5  C   UNL     1     -43.300  56.117 -59.399  1.00  0.00     0.099 C 
HETATM    6  N   UNL     1     -43.559  55.689 -60.445  1.00  0.00    -0.191 NA
HETATM    7  C   UNL     1     -42.765  58.019 -57.941  1.00  0.00     0.023 A 
HETATM    8  C   UNL     1     -42.443  58.535 -56.681  1.00  0.00     0.013 A 
ENDROOT
BRANCH   1   9
HETATM    9  C   UNL     1     -41.975  58.246 -54.269  1.00  0.00     0.009 C 
HETATM   10  C   UNL     1     -42.769  58.074 -53.200  1.00  0.00     0.001 C 
BRANCH  10  11
HETATM   11  C   UNL     1     -42.483  58.625 -51.845  1.00  0.00     0.259 C 
BRANCH  11  12
HETATM   12  N   UNL     1     -42.456  57.531 -50.837  1.00  0.00    -0.071 N 
HETATM   13  H   UNL     1     -43.245  57.677 -50.190  1.00  0.00     0.277 HD
HETATM   14  H   UNL     1     -41.610  57.648 -50.265  1.00  0.00     0.277 HD
BRANCH  12  15
HETATM   15  C   UNL     1     -42.512  56.148 -51.417  1.00  0.00     0.242 C 
BRANCH  15  16
HETATM   16  C   UNL     1     -41.378  55.247 -50.880  1.00  0.00     0.055 C 
HETATM   17  C   UNL     1     -40.932  54.140 -51.820  1.00  0.00    -0.025 A 
HETATM   18  C   UNL     1     -40.933  54.280 -53.218  1.00  0.00     0.010 A 
HETATM   19  C   UNL     1     -40.365  52.977 -51.272  1.00  0.00     0.041 A 
HETATM   20  C   UNL     1     -40.444  53.258 -54.037  1.00  0.00     0.001 A 
HETATM   21  C   UNL     1     -39.919  52.099 -53.474  1.00  0.00     0.002 A 
HETATM   22  C   UNL     1     -39.864  51.963 -52.090  1.00  0.00     0.030 A 
HETATM   23  N   UNL     1     -40.238  52.842 -49.888  1.00  0.00    -0.327 N 
HETATM   24  C   UNL     1     -40.772  53.698 -48.972  1.00  0.00     0.222 C 
HETATM   25  H   UNL     1     -39.676  52.088 -49.504  1.00  0.00     0.169 HD
HETATM   26  O   UNL     1     -40.557  53.581 -47.771  1.00  0.00    -0.273 OA
HETATM   27  C   UNL     1     -41.769  54.692 -49.507  1.00  0.00     0.114 C 
ENDBRANCH  15  16
ENDBRANCH  12  15
ENDBRANCH  11  12
ENDBRANCH  10  11
ENDBRANCH   1   9
TORSDOF 5
ENDMDL
MODEL 8
REMARK VINA RESULT:      -6.5      1.943      2.975
REMARK  5 active torsions:
REMARK  status: ('A' for Active; 'I' for Inactive)
REMARK    1  A    between atoms: C_9  and  C_10 
REMARK    2  A    between atoms: C_10  and  N_11 
REMARK    3  A    between atoms: N_11  and  C_14 
REMARK    4  A    between atoms: C_14  and  C_15 
REMARK    5  A    between atoms: C_16  and  C_17 
ROOT
HETATM    1  C   UNL     1     -42.304  55.677 -54.713  1.00  0.00    -0.036 A 
HETATM    2  C   UNL     1     -42.870  55.198 -53.524  1.00  0.00     0.013 A 
HETATM    3  C   UNL     1     -42.192  54.254 -52.748  1.00  0.00     0.023 A 
HETATM    4  C   UNL     1     -40.941  53.777 -53.156  1.00  0.00     0.044 A 
HETATM    5  C   UNL     1     -40.240  52.814 -52.356  1.00  0.00     0.099 C 
HETATM    6  N   UNL     1     -39.670  52.039 -51.708  1.00  0.00    -0.191 NA
HETATM    7  C   UNL     1     -40.378  54.245 -54.346  1.00  0.00     0.023 A 
HETATM    8  C   UNL     1     -41.060  55.187 -55.125  1.00  0.00     0.013 A 
ENDROOT
BRANCH   1   9
HETATM    9  C   UNL     1     -43.001  56.662 -55.545  1.00  0.00     0.009 C 
HETATM   10  C   UNL     1     -44.211  57.140 -55.211  1.00  0.00     0.001 C 
BRANCH  10  11
HETATM   11  C   UNL     1     -44.971  58.137 -56.017  1.00  0.00     0.259 C 
BRANCH  11  12
HETATM   12  N   UNL     1     -45.532  59.196 -55.134  1.00  0.00    -0.071 N 
HETATM   13  H   UNL     1     -46.029  58.732 -54.360  1.00  0.00     0.277 HD
HETATM   14  H   UNL     1     -46.258  59.697 -55.662  1.00  0.00     0.277 HD
BRANCH  12  15
HETATM   15  C   UNL     1     -44.515  60.159 -54.593  1.00  0.00     0.242 C 
BRANCH  15  16
HETATM   16  C   UNL     1     -44.259  59.944 -53.085  1.00  0.00     0.055 C 
HETATM   17  C   UNL     1     -42.977  59.202 -52.746  1.00  0.00    -0.025 A 
HETATM   18  C   UNL     1     -41.805  59.317 -53.511  1.00  0.00     0.010 A 
HETATM   19  C   UNL     1     -42.915  58.478 -51.543  1.00  0.00     0.041 A 
HETATM   20  C   UNL     1     -40.630  58.670 -53.116  1.00  0.00     0.001 A 
HETATM   21  C   UNL     1     -40.599  57.929 -51.940  1.00  0.00     0.002 A 
HETATM   22  C   UNL     1     -41.738  57.844 -51.143  1.00  0.00     0.030 A 
HETATM   23  N   UNL     1     -44.021  58.430 -50.693  1.00  0.00    -0.327 N 
HETATM   24  C   UNL     1     -45.259  58.912 -51.001  1.00  0.00     0.222 C 
HETATM   25  H   UNL     1     -43.920  58.058 -49.753  1.00  0.00     0.169 HD
HETATM   26  O   UNL     1     -46.173  58.923 -50.185  1.00  0.00    -0.273 OA
HETATM   27  C   UNL     1     -45.479  59.274 -52.446  1.00  0.00     0.114 C 
ENDBRANCH  15  16
ENDBRANCH  12  15
ENDBRANCH  11  12
ENDBRANCH  10  11
ENDBRANCH   1   9
TORSDOF 5
ENDMDL
MODEL 9
REMARK VINA RESULT:      -6.4      2.535      4.174
REMARK  5 active torsions:
REMARK  status: ('A' for Active; 'I' for Inactive)
REMARK    1  A    between atoms: C_9  and  C_10 
REMARK    2  A    between atoms: C_10  and  N_11 
REMARK    3  A    between atoms: N_11  and  C_14 
REMARK    4  A    between atoms: C_14  and  C_15 
REMARK    5  A    between atoms: C_16  and  C_17 
ROOT
HETATM    1  C   UNL     1     -40.690  53.609 -54.143  1.00  0.00    -0.036 A 
HETATM    2  C   UNL     1     -40.750  53.823 -52.760  1.00  0.00     0.013 A 
HETATM    3  C   UNL     1     -40.357  52.817 -51.871  1.00  0.00     0.023 A 
HETATM    4  C   UNL     1     -39.903  51.587 -52.357  1.00  0.00     0.044 A 
HETATM    5  C   UNL     1     -39.492  50.557 -51.447  1.00  0.00     0.099 C 
HETATM    6  N   UNL     1     -39.155  49.726 -50.712  1.00  0.00    -0.191 NA
HETATM    7  C   UNL     1     -39.851  51.367 -53.737  1.00  0.00     0.023 A 
HETATM    8  C   UNL     1     -40.248  52.372 -54.626  1.00  0.00     0.013 A 
ENDROOT
BRANCH   1   9
HETATM    9  C   UNL     1     -41.102  54.647 -55.092  1.00  0.00     0.009 C 
HETATM   10  C   UNL     1     -42.331  54.662 -55.633  1.00  0.00     0.001 C 
BRANCH  10  11
HETATM   11  C   UNL     1     -42.807  55.685 -56.606  1.00  0.00     0.259 C 
BRANCH  11  12
HETATM   12  N   UNL     1     -42.473  57.053 -56.122  1.00  0.00    -0.071 N 
HETATM   13  H   UNL     1     -42.490  57.688 -56.934  1.00  0.00     0.277 HD
HETATM   14  H   UNL     1     -41.497  57.046 -55.801  1.00  0.00     0.277 HD
BRANCH  12  15
HETATM   15  C   UNL     1     -43.379  57.570 -55.042  1.00  0.00     0.242 C 
BRANCH  15  16
HETATM   16  C   UNL     1     -42.606  57.904 -53.748  1.00  0.00     0.055 C 
HETATM   17  C   UNL     1     -43.398  58.672 -52.702  1.00  0.00    -0.025 A 
HETATM   18  C   UNL     1     -44.778  58.497 -52.511  1.00  0.00     0.010 A 
HETATM   19  C   UNL     1     -42.702  59.490 -51.796  1.00  0.00     0.041 A 
HETATM   20  C   UNL     1     -45.447  59.174 -51.487  1.00  0.00     0.001 A 
HETATM   21  C   UNL     1     -44.746  60.007 -50.622  1.00  0.00     0.002 A 
HETATM   22  C   UNL     1     -43.369  60.154 -50.765  1.00  0.00     0.030 A 
HETATM   23  N   UNL     1     -41.313  59.605 -51.876  1.00  0.00    -0.327 N 
HETATM   24  C   UNL     1     -40.549  59.100 -52.885  1.00  0.00     0.222 C 
HETATM   25  H   UNL     1     -40.799  60.051 -51.121  1.00  0.00     0.169 HD
HETATM   26  O   UNL     1     -39.324  59.153 -52.861  1.00  0.00    -0.273 OA
HETATM   27  C   UNL     1     -41.300  58.622 -54.099  1.00  0.00     0.114 C 
ENDBRANCH  15  16
ENDBRANCH  12  15
ENDBRANCH  11  12
ENDBRANCH  10  11
ENDBRANCH   1   9
TORSDOF 5
ENDMDL
MODEL 10
REMARK VINA RESULT:      -6.4      3.230      6.359
REMARK  5 active torsions:
REMARK  status: ('A' for Active; 'I' for Inactive)
REMARK    1  A    between atoms: C_9  and  C_10 
REMARK    2  A    between atoms: C_10  and  N_11 
REMARK    3  A    between atoms: N_11  and  C_14 
REMARK    4  A    between atoms: C_14  and  C_15 
REMARK    5  A    between atoms: C_16  and  C_17 
ROOT
HETATM    1  C   UNL     1     -41.554  57.840 -52.519  1.00  0.00    -0.036 A 
HETATM    2  C   UNL     1     -40.480  58.490 -53.139  1.00  0.00     0.013 A 
HETATM    3  C   UNL     1     -39.512  59.147 -52.372  1.00  0.00     0.023 A 
HETATM    4  C   UNL     1     -39.612  59.162 -50.977  1.00  0.00     0.044 A 
HETATM    5  C   UNL     1     -38.616  59.829 -50.189  1.00  0.00     0.099 C 
HETATM    6  N   UNL     1     -37.808  60.362 -49.550  1.00  0.00    -0.191 NA
HETATM    7  C   UNL     1     -40.688  58.522 -50.356  1.00  0.00     0.023 A 
HETATM    8  C   UNL     1     -41.658  57.869 -51.123  1.00  0.00     0.013 A 
ENDROOT
BRANCH   1   9
HETATM    9  C   UNL     1     -42.582  57.151 -53.303  1.00  0.00     0.009 C 
HETATM   10  C   UNL     1     -42.268  56.220 -54.219  1.00  0.00     0.001 C 
BRANCH  10  11
HETATM   11  C   UNL     1     -43.266  55.490 -55.050  1.00  0.00     0.259 C 
BRANCH  11  12
HETATM   12  N   UNL     1     -42.844  54.075 -55.242  1.00  0.00    -0.071 N 
HETATM   13  H   UNL     1     -43.096  53.798 -56.202  1.00  0.00     0.277 HD
HETATM   14  H   UNL     1     -43.421  53.487 -54.628  1.00  0.00     0.277 HD
BRANCH  12  15
HETATM   15  C   UNL     1     -41.385  53.822 -54.996  1.00  0.00     0.242 C 
BRANCH  15  16
HETATM   16  C   UNL     1     -41.156  52.626 -54.046  1.00  0.00     0.055 C 
HETATM   17  C   UNL     1     -40.776  52.995 -52.622  1.00  0.00    -0.025 A 
HETATM   18  C   UNL     1     -41.257  54.148 -51.979  1.00  0.00     0.010 A 
HETATM   19  C   UNL     1     -40.024  52.081 -51.865  1.00  0.00     0.041 A 
HETATM   20  C   UNL     1     -40.937  54.406 -50.643  1.00  0.00     0.001 A 
HETATM   21  C   UNL     1     -40.162  53.504 -49.922  1.00  0.00     0.002 A 
HETATM   22  C   UNL     1     -39.717  52.332 -50.527  1.00  0.00     0.030 A 
HETATM   23  N   UNL     1     -39.620  50.869 -52.427  1.00  0.00    -0.327 N 
HETATM   24  C   UNL     1     -39.760  50.537 -53.742  1.00  0.00     0.222 C 
HETATM   25  H   UNL     1     -39.233  50.141 -51.833  1.00  0.00     0.169 HD
HETATM   26  O   UNL     1     -39.467  49.424 -54.166  1.00  0.00    -0.273 OA
HETATM   27  C   UNL     1     -40.137  51.665 -54.665  1.00  0.00     0.114 C 
ENDBRANCH  15  16
ENDBRANCH  12  15
ENDBRANCH  11  12
ENDBRANCH  10  11
ENDBRANCH   1   9
TORSDOF 5
ENDMDL
