MODEL 1
REMARK VINA RESULT:      -7.9      0.000      0.000
REMARK  6 active torsions:
REMARK  status: ('A' for Active; 'I' for Inactive)
REMARK    1  A    between atoms: C_3  and  C_4 
REMARK       I    between atoms: C_4  and  N_5 
REMARK    2  A    between atoms: N_5  and  C_6 
REMARK    3  A    between atoms: C_6  and  C_7 
REMARK    4  A    between atoms: C_7  and  N_8 
REMARK    5  A    between atoms: C_7  and  C_14 
REMARK    6  A    between atoms: C_21  and  C_22 
ROOT
HETATM    1  C   UNL     1     -42.688  56.468 -55.005  1.00  0.00     0.272 C 
HETATM    2  N   UNL     1     -43.593  56.377 -56.044  1.00  0.00    -0.354 N 
HETATM    3  O   UNL     1     -42.675  57.453 -54.265  1.00  0.00    -0.266 OA
HETATM    4  H   UNL     1     -43.455  55.558 -56.638  1.00  0.00     0.162 HD
ENDROOT
BRANCH   1   5
HETATM    5  C   UNL     1     -41.829  55.284 -54.864  1.00  0.00     0.152 A 
HETATM    6  C   UNL     1     -41.891  54.253 -53.878  1.00  0.00     0.003 A 
HETATM    7  C   UNL     1     -42.856  54.144 -52.754  1.00  0.00     0.053 C 
HETATM    8  C   UNL     1     -40.855  53.390 -54.202  1.00  0.00     0.069 A 
HETATM    9  N   UNL     1     -40.258  53.932 -55.309  1.00  0.00    -0.276 N 
HETATM   10  N   UNL     1     -40.831  55.068 -55.743  1.00  0.00    -0.168 NA
HETATM   11  H   UNL     1     -39.445  53.575 -55.802  1.00  0.00     0.189 HD
BRANCH   8  12
HETATM   12  C   UNL     1     -40.365  52.163 -53.581  1.00  0.00    -0.007 A 
HETATM   13  C   UNL     1     -40.300  50.972 -54.313  1.00  0.00     0.014 A 
HETATM   14  C   UNL     1     -39.842  49.796 -53.715  1.00  0.00     0.001 A 
HETATM   15  C   UNL     1     -39.445  49.801 -52.379  1.00  0.00     0.000 A 
HETATM   16  C   UNL     1     -39.504  50.982 -51.641  1.00  0.00     0.001 A 
HETATM   17  C   UNL     1     -39.962  52.158 -52.238  1.00  0.00     0.014 A 
ENDBRANCH   8  12
ENDBRANCH   1   5
BRANCH   2  18
HETATM   18  C   UNL     1     -44.300  57.539 -56.536  1.00  0.00     0.156 C 
BRANCH  18  19
HETATM   19  C   UNL     1     -44.284  57.719 -58.084  1.00  0.00     0.209 C 
BRANCH  19  20
HETATM   20  N   UNL     1     -45.016  56.534 -58.747  1.00  0.00    -0.065 N 
HETATM   21  H   UNL     1     -45.446  56.021 -57.949  1.00  0.00     0.280 HD
HETATM   22  C   UNL     1     -44.238  55.433 -59.448  1.00  0.00     0.235 C 
HETATM   23  C   UNL     1     -44.824  55.371 -60.846  1.00  0.00     0.029 C 
HETATM   24  C   UNL     1     -46.270  55.772 -60.637  1.00  0.00     0.029 C 
HETATM   25  C   UNL     1     -46.183  56.906 -59.635  1.00  0.00     0.235 C 
ENDBRANCH  19  20
BRANCH  19  26
HETATM   26  C   UNL     1     -42.886  58.030 -58.698  1.00  0.00     0.010 C 
HETATM   27  C   UNL     1     -42.992  58.654 -60.096  1.00  0.00     0.011 C 
HETATM   28  C   UNL     1     -42.060  58.991 -57.827  1.00  0.00     0.011 C 
ENDBRANCH  19  26
ENDBRANCH  18  19
ENDBRANCH   2  18
TORSDOF 6
ENDMDL
MODEL 2
REMARK VINA RESULT:      -7.7      1.383      1.634
REMARK  6 active torsions:
REMARK  status: ('A' for Active; 'I' for Inactive)
REMARK    1  A    between atoms: C_3  and  C_4 
REMARK       I    between atoms: C_4  and  N_5 
REMARK    2  A    between atoms: N_5  and  C_6 
REMARK    3  A    between atoms: C_6  and  C_7 
REMARK    4  A    between atoms: C_7  and  N_8 
REMARK    5  A    between atoms: C_7  and  C_14 
REMARK    6  A    between atoms: C_21  and  C_22 
ROOT
HETATM    1  C   UNL     1     -43.635  57.151 -54.351  1.00  0.00     0.272 C 
HETATM    2  N   UNL     1     -44.346  56.959 -55.519  1.00  0.00    -0.354 N 
HETATM    3  O   UNL     1     -43.544  58.271 -53.846  1.00  0.00    -0.266 OA
HETATM    4  H   UNL     1     -44.281  56.007 -55.887  1.00  0.00     0.162 HD
ENDROOT
BRANCH   1   5
HETATM    5  C   UNL     1     -43.082  55.913 -53.784  1.00  0.00     0.152 A 
HETATM    6  C   UNL     1     -42.019  55.102 -54.286  1.00  0.00     0.003 A 
HETATM    7  C   UNL     1     -41.217  55.335 -55.515  1.00  0.00     0.053 C 
HETATM    8  C   UNL     1     -41.909  54.060 -53.377  1.00  0.00     0.069 A 
HETATM    9  N   UNL     1     -42.872  54.294 -52.432  1.00  0.00    -0.276 N 
HETATM   10  N   UNL     1     -43.588  55.413 -52.640  1.00  0.00    -0.168 NA
HETATM   11  H   UNL     1     -43.093  53.714 -51.628  1.00  0.00     0.189 HD
BRANCH   8  12
HETATM   12  C   UNL     1     -41.040  52.888 -53.324  1.00  0.00    -0.007 A 
HETATM   13  C   UNL     1     -41.030  51.963 -54.374  1.00  0.00     0.014 A 
HETATM   14  C   UNL     1     -40.207  50.836 -54.318  1.00  0.00     0.001 A 
HETATM   15  C   UNL     1     -39.388  50.624 -53.211  1.00  0.00     0.000 A 
HETATM   16  C   UNL     1     -39.389  51.540 -52.160  1.00  0.00     0.001 A 
HETATM   17  C   UNL     1     -40.212  52.667 -52.215  1.00  0.00     0.014 A 
ENDBRANCH   8  12
ENDBRANCH   1   5
BRANCH   2  18
HETATM   18  C   UNL     1     -44.696  58.064 -56.382  1.00  0.00     0.156 C 
BRANCH  18  19
HETATM   19  C   UNL     1     -44.246  57.916 -57.867  1.00  0.00     0.209 C 
BRANCH  19  20
HETATM   20  N   UNL     1     -44.741  56.565 -58.423  1.00  0.00    -0.065 N 
HETATM   21  H   UNL     1     -45.291  56.153 -57.640  1.00  0.00     0.280 HD
HETATM   22  C   UNL     1     -43.761  55.448 -58.742  1.00  0.00     0.235 C 
HETATM   23  C   UNL     1     -44.039  55.087 -60.188  1.00  0.00     0.029 C 
HETATM   24  C   UNL     1     -45.521  55.364 -60.340  1.00  0.00     0.029 C 
HETATM   25  C   UNL     1     -45.721  56.655 -59.572  1.00  0.00     0.235 C 
ENDBRANCH  19  20
BRANCH  19  26
HETATM   26  C   UNL     1     -42.736  58.199 -58.130  1.00  0.00     0.010 C 
HETATM   27  C   UNL     1     -42.485  58.741 -59.543  1.00  0.00     0.011 C 
HETATM   28  C   UNL     1     -42.145  59.213 -57.137  1.00  0.00     0.011 C 
ENDBRANCH  19  26
ENDBRANCH  18  19
ENDBRANCH   2  18
TORSDOF 6
ENDMDL
MODEL 3
REMARK VINA RESULT:      -7.6      1.828      2.496
REMARK  6 active torsions:
REMARK  status: ('A' for Active; 'I' for Inactive)
REMARK    1  A    between atoms: C_3  and  C_4 
REMARK       I    between atoms: C_4  and  N_5 
REMARK    2  A    between atoms: N_5  and  C_6 
REMARK    3  A    between atoms: C_6  and  C_7 
REMARK    4  A    between atoms: C_7  and  N_8 
REMARK    5  A    between atoms: C_7  and  C_14 
REMARK    6  A    between atoms: C_21  and  C_22 
ROOT
HETATM    1  C   UNL     1     -41.353  56.977 -53.758  1.00  0.00     0.272 C 
HETATM    2  N   UNL     1     -42.474  56.993 -54.565  1.00  0.00    -0.354 N 
HETATM    3  O   UNL     1     -40.704  58.006 -53.563  1.00  0.00    -0.266 OA
HETATM    4  H   UNL     1     -42.880  56.067 -54.720  1.00  0.00     0.162 HD
ENDROOT
BRANCH   1   5
HETATM    5  C   UNL     1     -41.082  55.669 -53.147  1.00  0.00     0.152 A 
HETATM    6  C   UNL     1     -40.628  54.470 -53.777  1.00  0.00     0.003 A 
HETATM    7  C   UNL     1     -40.322  54.274 -55.218  1.00  0.00     0.053 C 
HETATM    8  C   UNL     1     -40.543  53.541 -52.751  1.00  0.00     0.069 A 
HETATM    9  N   UNL     1     -40.938  54.205 -51.620  1.00  0.00    -0.276 N 
HETATM   10  N   UNL     1     -41.255  55.496 -51.822  1.00  0.00    -0.168 NA
HETATM   11  H   UNL     1     -41.022  53.823 -50.684  1.00  0.00     0.189 HD
BRANCH   8  12
HETATM   12  C   UNL     1     -40.171  52.130 -52.729  1.00  0.00    -0.007 A 
HETATM   13  C   UNL     1     -40.203  51.368 -53.902  1.00  0.00     0.014 A 
HETATM   14  C   UNL     1     -39.858  50.015 -53.879  1.00  0.00     0.001 A 
HETATM   15  C   UNL     1     -39.478  49.412 -52.682  1.00  0.00     0.000 A 
HETATM   16  C   UNL     1     -39.441  50.161 -51.507  1.00  0.00     0.001 A 
HETATM   17  C   UNL     1     -39.786  51.514 -51.529  1.00  0.00     0.014 A 
ENDBRANCH   8  12
ENDBRANCH   1   5
BRANCH   2  18
HETATM   18  C   UNL     1     -42.729  58.077 -55.486  1.00  0.00     0.156 C 
BRANCH  18  19
HETATM   19  C   UNL     1     -43.765  57.766 -56.608  1.00  0.00     0.209 C 
BRANCH  19  20
HETATM   20  N   UNL     1     -43.023  57.342 -57.892  1.00  0.00    -0.065 N 
HETATM   21  H   UNL     1     -42.015  57.429 -57.644  1.00  0.00     0.280 HD
HETATM   22  C   UNL     1     -43.110  58.184 -59.155  1.00  0.00     0.235 C 
HETATM   23  C   UNL     1     -43.588  57.226 -60.229  1.00  0.00     0.029 C 
HETATM   24  C   UNL     1     -43.004  55.896 -59.798  1.00  0.00     0.029 C 
HETATM   25  C   UNL     1     -43.195  55.895 -58.294  1.00  0.00     0.235 C 
ENDBRANCH  19  20
BRANCH  19  26
HETATM   26  C   UNL     1     -44.847  58.866 -56.830  1.00  0.00     0.010 C 
HETATM   27  C   UNL     1     -46.221  58.270 -57.163  1.00  0.00     0.011 C 
HETATM   28  C   UNL     1     -45.025  59.774 -55.602  1.00  0.00     0.011 C 
ENDBRANCH  19  26
ENDBRANCH  18  19
ENDBRANCH   2  18
TORSDOF 6
ENDMDL
MODEL 4
REMARK VINA RESULT:      -7.5      1.403      2.993
REMARK  6 active torsions:
REMARK  status: ('A' for Active; 'I' for Inactive)
REMARK    1  A    between atoms: C_3  and  C_4 
REMARK       I    between atoms: C_4  and  N_5 
REMARK    2  A    between atoms: N_5  and  C_6 
REMARK    3  A    between atoms: C_6  and  C_7 
REMARK    4  A    between atoms: C_7  and  N_8 
REMARK    5  A    between atoms: C_7  and  C_14 
REMARK    6  A    between atoms: C_21  and  C_22 
ROOT
HETATM    1  C   UNL     1     -42.542  56.399 -55.224  1.00  0.00     0.272 C 
HETATM    2  N   UNL     1     -43.585  56.229 -56.113  1.00  0.00    -0.354 N 
HETATM    3  O   UNL     1     -41.967  57.484 -55.128  1.00  0.00    -0.266 OA
HETATM    4  H   UNL     1     -43.928  55.267 -56.165  1.00  0.00     0.162 HD
ENDROOT
BRANCH   1   5
HETATM    5  C   UNL     1     -42.259  55.209 -54.410  1.00  0.00     0.152 A 
HETATM    6  C   UNL     1     -41.202  54.260 -54.560  1.00  0.00     0.003 A 
HETATM    7  C   UNL     1     -40.131  54.265 -55.590  1.00  0.00     0.053 C 
HETATM    8  C   UNL     1     -41.402  53.343 -53.538  1.00  0.00     0.069 A 
HETATM    9  N   UNL     1     -42.519  53.773 -52.872  1.00  0.00    -0.276 N 
HETATM   10  N   UNL     1     -43.051  54.905 -53.364  1.00  0.00    -0.168 NA
HETATM   11  H   UNL     1     -42.970  53.324 -52.081  1.00  0.00     0.189 HD
BRANCH   8  12
HETATM   12  C   UNL     1     -40.694  52.126 -53.156  1.00  0.00    -0.007 A 
HETATM   13  C   UNL     1     -40.156  51.990 -51.871  1.00  0.00     0.014 A 
HETATM   14  C   UNL     1     -39.468  50.830 -51.509  1.00  0.00     0.001 A 
HETATM   15  C   UNL     1     -39.311  49.796 -52.429  1.00  0.00     0.000 A 
HETATM   16  C   UNL     1     -39.843  49.919 -53.712  1.00  0.00     0.001 A 
HETATM   17  C   UNL     1     -40.531  51.079 -54.075  1.00  0.00     0.014 A 
ENDBRANCH   8  12
ENDBRANCH   1   5
BRANCH   2  18
HETATM   18  C   UNL     1     -43.813  57.156 -57.199  1.00  0.00     0.156 C 
BRANCH  18  19
HETATM   19  C   UNL     1     -43.137  56.774 -58.551  1.00  0.00     0.209 C 
BRANCH  19  20
HETATM   20  N   UNL     1     -42.229  57.930 -59.018  1.00  0.00    -0.065 N 
HETATM   21  H   UNL     1     -41.264  57.591 -58.825  1.00  0.00     0.280 HD
HETATM   22  C   UNL     1     -42.242  59.269 -58.298  1.00  0.00     0.235 C 
HETATM   23  C   UNL     1     -42.526  60.291 -59.381  1.00  0.00     0.029 C 
HETATM   24  C   UNL     1     -41.894  59.680 -60.615  1.00  0.00     0.029 C 
HETATM   25  C   UNL     1     -42.246  58.210 -60.504  1.00  0.00     0.235 C 
ENDBRANCH  19  20
BRANCH  19  26
HETATM   26  C   UNL     1     -44.108  56.242 -59.648  1.00  0.00     0.010 C 
HETATM   27  C   UNL     1     -44.230  54.713 -59.623  1.00  0.00     0.011 C 
HETATM   28  C   UNL     1     -45.527  56.818 -59.507  1.00  0.00     0.011 C 
ENDBRANCH  19  26
ENDBRANCH  18  19
ENDBRANCH   2  18
TORSDOF 6
ENDMDL
MODEL 5
REMARK VINA RESULT:      -7.4      3.788      5.275
REMARK  6 active torsions:
REMARK  status: ('A' for Active; 'I' for Inactive)
REMARK    1  A    between atoms: C_3  and  C_4 
REMARK       I    between atoms: C_4  and  N_5 
REMARK    2  A    between atoms: N_5  and  C_6 
REMARK    3  A    between atoms: C_6  and  C_7 
REMARK    4  A    between atoms: C_7  and  N_8 
REMARK    5  A    between atoms: C_7  and  C_14 
REMARK    6  A    between atoms: C_21  and  C_22 
ROOT
HETATM    1  C   UNL     1     -42.120  56.775 -54.188  1.00  0.00     0.272 C 
HETATM    2  N   UNL     1     -41.497  57.776 -53.469  1.00  0.00    -0.354 N 
HETATM    3  O   UNL     1     -43.183  56.988 -54.774  1.00  0.00    -0.266 OA
HETATM    4  H   UNL     1     -40.669  57.460 -52.959  1.00  0.00     0.162 HD
ENDROOT
BRANCH   1   5
HETATM    5  C   UNL     1     -41.370  55.511 -54.215  1.00  0.00     0.152 A 
HETATM    6  C   UNL     1     -41.550  54.353 -53.400  1.00  0.00     0.003 A 
HETATM    7  C   UNL     1     -42.554  54.161 -52.322  1.00  0.00     0.053 C 
HETATM    8  C   UNL     1     -40.582  53.460 -53.835  1.00  0.00     0.069 A 
HETATM    9  N   UNL     1     -39.907  54.108 -54.835  1.00  0.00    -0.276 N 
HETATM   10  N   UNL     1     -40.368  55.343 -55.100  1.00  0.00    -0.168 NA
HETATM   11  H   UNL     1     -39.114  53.759 -55.364  1.00  0.00     0.189 HD
BRANCH   8  12
HETATM   12  C   UNL     1     -40.217  52.115 -53.401  1.00  0.00    -0.007 A 
HETATM   13  C   UNL     1     -40.285  51.037 -54.291  1.00  0.00     0.014 A 
HETATM   14  C   UNL     1     -39.947  49.749 -53.873  1.00  0.00     0.001 A 
HETATM   15  C   UNL     1     -39.539  49.526 -52.559  1.00  0.00     0.000 A 
HETATM   16  C   UNL     1     -39.466  50.592 -51.664  1.00  0.00     0.001 A 
HETATM   17  C   UNL     1     -39.804  51.881 -52.082  1.00  0.00     0.014 A 
ENDBRANCH   8  12
ENDBRANCH   1   5
BRANCH   2  18
HETATM   18  C   UNL     1     -42.203  58.972 -53.068  1.00  0.00     0.156 C 
BRANCH  18  19
HETATM   19  C   UNL     1     -42.954  58.874 -51.706  1.00  0.00     0.209 C 
BRANCH  19  20
HETATM   20  N   UNL     1     -44.475  58.949 -51.949  1.00  0.00    -0.065 N 
HETATM   21  H   UNL     1     -44.769  57.953 -52.034  1.00  0.00     0.280 HD
HETATM   22  C   UNL     1     -45.030  59.552 -53.229  1.00  0.00     0.235 C 
HETATM   23  C   UNL     1     -45.991  60.630 -52.766  1.00  0.00     0.029 C 
HETATM   24  C   UNL     1     -46.519  60.090 -51.453  1.00  0.00     0.029 C 
HETATM   25  C   UNL     1     -45.291  59.490 -50.797  1.00  0.00     0.235 C 
ENDBRANCH  19  20
BRANCH  19  26
HETATM   26  C   UNL     1     -42.436  59.840 -50.597  1.00  0.00     0.010 C 
HETATM   27  C   UNL     1     -40.990  59.533 -50.189  1.00  0.00     0.011 C 
HETATM   28  C   UNL     1     -42.489  61.314 -51.028  1.00  0.00     0.011 C 
ENDBRANCH  19  26
ENDBRANCH  18  19
ENDBRANCH   2  18
TORSDOF 6
ENDMDL
MODEL 6
REMARK VINA RESULT:      -7.3      1.686      2.925
REMARK  6 active torsions:
REMARK  status: ('A' for Active; 'I' for Inactive)
REMARK    1  A    between atoms: C_3  and  C_4 
REMARK       I    between atoms: C_4  and  N_5 
REMARK    2  A    between atoms: N_5  and  C_6 
REMARK    3  A    between atoms: C_6  and  C_7 
REMARK    4  A    between atoms: C_7  and  N_8 
REMARK    5  A    between atoms: C_7  and  C_14 
REMARK    6  A    between atoms: C_21  and  C_22 
ROOT
HETATM    1  C   UNL     1     -44.186  57.044 -55.046  1.00  0.00     0.272 C 
HETATM    2  N   UNL     1     -43.990  57.110 -56.411  1.00  0.00    -0.354 N 
HETATM    3  O   UNL     1     -45.195  57.530 -54.530  1.00  0.00    -0.266 OA
HETATM    4  H   UNL     1     -43.083  56.750 -56.713  1.00  0.00     0.162 HD
ENDROOT
BRANCH   1   5
HETATM    5  C   UNL     1     -43.132  56.311 -54.331  1.00  0.00     0.152 A 
HETATM    6  C   UNL     1     -42.773  54.934 -54.444  1.00  0.00     0.003 A 
HETATM    7  C   UNL     1     -43.395  53.914 -55.327  1.00  0.00     0.053 C 
HETATM    8  C   UNL     1     -41.725  54.766 -53.550  1.00  0.00     0.069 A 
HETATM    9  N   UNL     1     -41.532  55.995 -52.976  1.00  0.00    -0.276 N 
HETATM   10  N   UNL     1     -42.354  56.954 -53.438  1.00  0.00    -0.168 NA
HETATM   11  H   UNL     1     -40.859  56.234 -52.254  1.00  0.00     0.189 HD
BRANCH   8  12
HETATM   12  C   UNL     1     -40.934  53.601 -53.169  1.00  0.00    -0.007 A 
HETATM   13  C   UNL     1     -40.675  53.327 -51.821  1.00  0.00     0.014 A 
HETATM   14  C   UNL     1     -39.909  52.218 -51.457  1.00  0.00     0.001 A 
HETATM   15  C   UNL     1     -39.393  51.374 -52.438  1.00  0.00     0.000 A 
HETATM   16  C   UNL     1     -39.645  51.636 -53.784  1.00  0.00     0.001 A 
HETATM   17  C   UNL     1     -40.411  52.745 -54.149  1.00  0.00     0.014 A 
ENDBRANCH   8  12
ENDBRANCH   1   5
BRANCH   2  18
HETATM   18  C   UNL     1     -44.733  58.034 -57.238  1.00  0.00     0.156 C 
BRANCH  18  19
HETATM   19  C   UNL     1     -45.257  57.447 -58.583  1.00  0.00     0.209 C 
BRANCH  19  20
HETATM   20  N   UNL     1     -44.295  57.835 -59.725  1.00  0.00    -0.065 N 
HETATM   21  H   UNL     1     -44.923  58.026 -60.534  1.00  0.00     0.280 HD
HETATM   22  C   UNL     1     -43.331  56.816 -60.310  1.00  0.00     0.235 C 
HETATM   23  C   UNL     1     -41.963  57.462 -60.191  1.00  0.00     0.029 C 
HETATM   24  C   UNL     1     -42.261  58.941 -60.328  1.00  0.00     0.029 C 
HETATM   25  C   UNL     1     -43.531  59.123 -59.521  1.00  0.00     0.235 C 
ENDBRANCH  19  20
BRANCH  19  26
HETATM   26  C   UNL     1     -46.759  57.735 -58.889  1.00  0.00     0.010 C 
HETATM   27  C   UNL     1     -47.337  58.825 -57.978  1.00  0.00     0.011 C 
HETATM   28  C   UNL     1     -46.989  58.180 -60.342  1.00  0.00     0.011 C 
ENDBRANCH  19  26
ENDBRANCH  18  19
ENDBRANCH   2  18
TORSDOF 6
ENDMDL
MODEL 7
REMARK VINA RESULT:      -7.2      4.068      5.800
REMARK  6 active torsions:
REMARK  status: ('A' for Active; 'I' for Inactive)
REMARK    1  A    between atoms: C_3  and  C_4 
REMARK       I    between atoms: C_4  and  N_5 
REMARK    2  A    between atoms: N_5  and  C_6 
REMARK    3  A    between atoms: C_6  and  C_7 
REMARK    4  A    between atoms: C_7  and  N_8 
REMARK    5  A    between atoms: C_7  and  C_14 
REMARK    6  A    between atoms: C_21  and  C_22 
ROOT
HETATM    1  C   UNL     1     -41.883  56.222 -50.662  1.00  0.00     0.272 C 
HETATM    2  N   UNL     1     -43.234  56.123 -50.933  1.00  0.00    -0.354 N 
HETATM    3  O   UNL     1     -41.407  57.262 -50.205  1.00  0.00    -0.266 OA
HETATM    4  H   UNL     1     -43.498  55.245 -51.385  1.00  0.00     0.162 HD
ENDROOT
BRANCH   1   5
HETATM    5  C   UNL     1     -41.136  54.982 -50.916  1.00  0.00     0.152 A 
HETATM    6  C   UNL     1     -41.324  54.029 -51.962  1.00  0.00     0.003 A 
HETATM    7  C   UNL     1     -42.334  54.079 -53.051  1.00  0.00     0.053 C 
HETATM    8  C   UNL     1     -40.362  53.056 -51.733  1.00  0.00     0.069 A 
HETATM    9  N   UNL     1     -39.690  53.462 -50.610  1.00  0.00    -0.276 N 
HETATM   10  N   UNL     1     -40.122  54.629 -50.102  1.00  0.00    -0.168 NA
HETATM   11  H   UNL     1     -38.934  52.974 -50.140  1.00  0.00     0.189 HD
BRANCH   8  12
HETATM   12  C   UNL     1     -40.041  51.809 -52.419  1.00  0.00    -0.007 A 
HETATM   13  C   UNL     1     -40.043  51.745 -53.817  1.00  0.00     0.014 A 
HETATM   14  C   UNL     1     -39.747  50.549 -54.473  1.00  0.00     0.001 A 
HETATM   15  C   UNL     1     -39.446  49.405 -53.737  1.00  0.00     0.000 A 
HETATM   16  C   UNL     1     -39.439  49.456 -52.344  1.00  0.00     0.001 A 
HETATM   17  C   UNL     1     -39.736  50.653 -51.687  1.00  0.00     0.014 A 
ENDBRANCH   8  12
ENDBRANCH   1   5
BRANCH   2  18
HETATM   18  C   UNL     1     -44.071  57.296 -51.044  1.00  0.00     0.156 C 
BRANCH  18  19
HETATM   19  C   UNL     1     -43.845  58.153 -52.326  1.00  0.00     0.209 C 
BRANCH  19  20
HETATM   20  N   UNL     1     -43.639  59.630 -51.929  1.00  0.00    -0.065 N 
HETATM   21  H   UNL     1     -44.047  60.167 -52.722  1.00  0.00     0.280 HD
HETATM   22  C   UNL     1     -42.243  60.222 -51.833  1.00  0.00     0.235 C 
HETATM   23  C   UNL     1     -42.162  60.803 -50.434  1.00  0.00     0.029 C 
HETATM   24  C   UNL     1     -43.588  61.225 -50.147  1.00  0.00     0.029 C 
HETATM   25  C   UNL     1     -44.416  60.091 -50.716  1.00  0.00     0.235 C 
ENDBRANCH  19  20
BRANCH  19  26
HETATM   26  C   UNL     1     -44.895  57.938 -53.458  1.00  0.00     0.010 C 
HETATM   27  C   UNL     1     -45.133  59.212 -54.278  1.00  0.00     0.011 C 
HETATM   28  C   UNL     1     -44.482  56.829 -54.441  1.00  0.00     0.011 C 
ENDBRANCH  19  26
ENDBRANCH  18  19
ENDBRANCH   2  18
TORSDOF 6
ENDMDL
MODEL 8
REMARK VINA RESULT:      -7.0      2.216      3.013
REMARK  6 active torsions:
REMARK  status: ('A' for Active; 'I' for Inactive)
REMARK    1  A    between atoms: C_3  and  C_4 
REMARK       I    between atoms: C_4  and  N_5 
REMARK    2  A    between atoms: N_5  and  C_6 
REMARK    3  A    between atoms: C_6  and  C_7 
REMARK    4  A    between atoms: C_7  and  N_8 
REMARK    5  A    between atoms: C_7  and  C_14 
REMARK    6  A    between atoms: C_21  and  C_22 
ROOT
HETATM    1  C   UNL     1     -42.801  55.552 -56.573  1.00  0.00     0.272 C 
HETATM    2  N   UNL     1     -42.225  56.743 -56.967  1.00  0.00    -0.354 N 
HETATM    3  O   UNL     1     -43.246  54.761 -57.407  1.00  0.00    -0.266 OA
HETATM    4  H   UNL     1     -41.969  57.352 -56.187  1.00  0.00     0.162 HD
ENDROOT
BRANCH   1   5
HETATM    5  C   UNL     1     -42.767  55.329 -55.121  1.00  0.00     0.152 A 
HETATM    6  C   UNL     1     -41.658  54.953 -54.305  1.00  0.00     0.003 A 
HETATM    7  C   UNL     1     -40.263  54.700 -54.749  1.00  0.00     0.053 C 
HETATM    8  C   UNL     1     -42.173  54.876 -53.019  1.00  0.00     0.069 A 
HETATM    9  N   UNL     1     -43.501  55.190 -53.137  1.00  0.00    -0.276 N 
HETATM   10  N   UNL     1     -43.888  55.484 -54.390  1.00  0.00    -0.168 NA
HETATM   11  H   UNL     1     -44.193  55.207 -52.395  1.00  0.00     0.189 HD
BRANCH   8  12
HETATM   12  C   UNL     1     -41.573  54.519 -51.738  1.00  0.00    -0.007 A 
HETATM   13  C   UNL     1     -40.954  53.275 -51.565  1.00  0.00     0.014 A 
HETATM   14  C   UNL     1     -40.389  52.929 -50.336  1.00  0.00     0.001 A 
HETATM   15  C   UNL     1     -40.440  53.823 -49.268  1.00  0.00     0.000 A 
HETATM   16  C   UNL     1     -41.053  55.064 -49.429  1.00  0.00     0.001 A 
HETATM   17  C   UNL     1     -41.618  55.411 -50.658  1.00  0.00     0.014 A 
ENDBRANCH   8  12
ENDBRANCH   1   5
BRANCH   2  18
HETATM   18  C   UNL     1     -42.432  57.283 -58.292  1.00  0.00     0.156 C 
BRANCH  18  19
HETATM   19  C   UNL     1     -43.756  58.082 -58.484  1.00  0.00     0.209 C 
BRANCH  19  20
HETATM   20  N   UNL     1     -44.523  57.523 -59.700  1.00  0.00    -0.065 N 
HETATM   21  H   UNL     1     -44.480  58.291 -60.403  1.00  0.00     0.280 HD
HETATM   22  C   UNL     1     -46.017  57.253 -59.620  1.00  0.00     0.235 C 
HETATM   23  C   UNL     1     -46.172  55.802 -60.032  1.00  0.00     0.029 C 
HETATM   24  C   UNL     1     -45.040  55.593 -61.016  1.00  0.00     0.029 C 
HETATM   25  C   UNL     1     -43.880  56.340 -60.386  1.00  0.00     0.235 C 
ENDBRANCH  19  20
BRANCH  19  26
HETATM   26  C   UNL     1     -43.596  59.633 -58.488  1.00  0.00     0.010 C 
HETATM   27  C   UNL     1     -42.175  60.070 -58.111  1.00  0.00     0.011 C 
HETATM   28  C   UNL     1     -43.921  60.255 -59.856  1.00  0.00     0.011 C 
ENDBRANCH  19  26
ENDBRANCH  18  19
ENDBRANCH   2  18
TORSDOF 6
ENDMDL
MODEL 9
REMARK VINA RESULT:      -7.0      1.633      2.446
REMARK  6 active torsions:
REMARK  status: ('A' for Active; 'I' for Inactive)
REMARK    1  A    between atoms: C_3  and  C_4 
REMARK       I    between atoms: C_4  and  N_5 
REMARK    2  A    between atoms: N_5  and  C_6 
REMARK    3  A    between atoms: C_6  and  C_7 
REMARK    4  A    between atoms: C_7  and  N_8 
REMARK    5  A    between atoms: C_7  and  C_14 
REMARK    6  A    between atoms: C_21  and  C_22 
ROOT
HETATM    1  C   UNL     1     -43.360  57.108 -55.022  1.00  0.00     0.272 C 
HETATM    2  N   UNL     1     -42.861  57.497 -56.249  1.00  0.00    -0.354 N 
HETATM    3  O   UNL     1     -44.491  57.443 -54.667  1.00  0.00    -0.266 OA
HETATM    4  H   UNL     1     -41.885  57.231 -56.398  1.00  0.00     0.162 HD
ENDROOT
BRANCH   1   5
HETATM    5  C   UNL     1     -42.448  56.244 -54.259  1.00  0.00     0.152 A 
HETATM    6  C   UNL     1     -42.255  54.834 -54.373  1.00  0.00     0.003 A 
HETATM    7  C   UNL     1     -42.943  53.907 -55.309  1.00  0.00     0.053 C 
HETATM    8  C   UNL     1     -41.292  54.530 -53.422  1.00  0.00     0.069 A 
HETATM    9  N   UNL     1     -40.984  55.720 -52.818  1.00  0.00    -0.276 N 
HETATM   10  N   UNL     1     -41.653  56.777 -53.310  1.00  0.00    -0.168 NA
HETATM   11  H   UNL     1     -40.333  55.867 -52.053  1.00  0.00     0.189 HD
BRANCH   8  12
HETATM   12  C   UNL     1     -40.674  53.272 -53.015  1.00  0.00    -0.007 A 
HETATM   13  C   UNL     1     -40.501  52.972 -51.659  1.00  0.00     0.014 A 
HETATM   14  C   UNL     1     -39.899  51.773 -51.269  1.00  0.00     0.001 A 
HETATM   15  C   UNL     1     -39.465  50.865 -52.232  1.00  0.00     0.000 A 
HETATM   16  C   UNL     1     -39.633  51.153 -53.585  1.00  0.00     0.001 A 
HETATM   17  C   UNL     1     -40.234  52.352 -53.976  1.00  0.00     0.014 A 
ENDBRANCH   8  12
ENDBRANCH   1   5
BRANCH   2  18
HETATM   18  C   UNL     1     -43.457  58.578 -57.001  1.00  0.00     0.156 C 
BRANCH  18  19
HETATM   19  C   UNL     1     -43.618  58.314 -58.529  1.00  0.00     0.209 C 
BRANCH  19  20
HETATM   20  N   UNL     1     -45.113  58.144 -58.868  1.00  0.00    -0.065 N 
HETATM   21  H   UNL     1     -45.202  57.140 -59.132  1.00  0.00     0.280 HD
HETATM   22  C   UNL     1     -45.722  58.841 -60.073  1.00  0.00     0.235 C 
HETATM   23  C   UNL     1     -46.895  59.626 -59.517  1.00  0.00     0.029 C 
HETATM   24  C   UNL     1     -47.360  58.781 -58.349  1.00  0.00     0.029 C 
HETATM   25  C   UNL     1     -46.067  58.319 -57.708  1.00  0.00     0.235 C 
ENDBRANCH  19  20
BRANCH  19  26
HETATM   26  C   UNL     1     -42.701  57.193 -59.105  1.00  0.00     0.010 C 
HETATM   27  C   UNL     1     -43.496  55.946 -59.514  1.00  0.00     0.011 C 
HETATM   28  C   UNL     1     -41.907  57.657 -60.337  1.00  0.00     0.011 C 
ENDBRANCH  19  26
ENDBRANCH  18  19
ENDBRANCH   2  18
TORSDOF 6
ENDMDL
MODEL 10
REMARK VINA RESULT:      -7.0     14.853     17.600
REMARK  6 active torsions:
REMARK  status: ('A' for Active; 'I' for Inactive)
REMARK    1  A    between atoms: C_3  and  C_4 
REMARK       I    between atoms: C_4  and  N_5 
REMARK    2  A    between atoms: N_5  and  C_6 
REMARK    3  A    between atoms: C_6  and  C_7 
REMARK    4  A    between atoms: C_7  and  N_8 
REMARK    5  A    between atoms: C_7  and  C_14 
REMARK    6  A    between atoms: C_21  and  C_22 
ROOT
HETATM    1  C   UNL     1     -35.412  41.952 -53.369  1.00  0.00     0.272 C 
HETATM    2  N   UNL     1     -34.243  41.596 -52.725  1.00  0.00    -0.354 N 
HETATM    3  O   UNL     1     -36.348  42.453 -52.745  1.00  0.00    -0.266 OA
HETATM    4  H   UNL     1     -33.573  41.115 -53.328  1.00  0.00     0.162 HD
ENDROOT
BRANCH   1   5
HETATM    5  C   UNL     1     -35.379  41.727 -54.821  1.00  0.00     0.152 A 
HETATM    6  C   UNL     1     -36.462  41.417 -55.698  1.00  0.00     0.003 A 
HETATM    7  C   UNL     1     -37.893  41.251 -55.332  1.00  0.00     0.053 C 
HETATM    8  C   UNL     1     -35.882  41.304 -56.953  1.00  0.00     0.069 A 
HETATM    9  N   UNL     1     -34.546  41.536 -56.762  1.00  0.00    -0.276 N 
HETATM   10  N   UNL     1     -34.211  41.810 -55.488  1.00  0.00    -0.168 NA
HETATM   11  H   UNL     1     -33.814  41.508 -57.464  1.00  0.00     0.189 HD
BRANCH   8  12
HETATM   12  C   UNL     1     -36.431  40.980 -58.265  1.00  0.00    -0.007 A 
HETATM   13  C   UNL     1     -36.332  39.681 -58.777  1.00  0.00     0.014 A 
HETATM   14  C   UNL     1     -36.847  39.373 -60.038  1.00  0.00     0.001 A 
HETATM   15  C   UNL     1     -37.466  40.363 -60.799  1.00  0.00     0.000 A 
HETATM   16  C   UNL     1     -37.572  41.660 -60.299  1.00  0.00     0.001 A 
HETATM   17  C   UNL     1     -37.056  41.969 -59.039  1.00  0.00     0.014 A 
ENDBRANCH   8  12
ENDBRANCH   1   5
BRANCH   2  18
HETATM   18  C   UNL     1     -34.186  41.449 -51.288  1.00  0.00     0.156 C 
BRANCH  18  19
HETATM   19  C   UNL     1     -33.969  39.993 -50.777  1.00  0.00     0.209 C 
BRANCH  19  20
HETATM   20  N   UNL     1     -35.332  39.280 -50.657  1.00  0.00    -0.065 N 
HETATM   21  H   UNL     1     -35.169  38.536 -49.947  1.00  0.00     0.280 HD
HETATM   22  C   UNL     1     -35.900  38.486 -51.821  1.00  0.00     0.235 C 
HETATM   23  C   UNL     1     -37.278  39.074 -52.059  1.00  0.00     0.029 C 
HETATM   24  C   UNL     1     -37.713  39.517 -50.677  1.00  0.00     0.029 C 
HETATM   25  C   UNL     1     -36.454  40.117 -50.083  1.00  0.00     0.235 C 
ENDBRANCH  19  20
BRANCH  19  26
HETATM   26  C   UNL     1     -33.068  39.864 -49.512  1.00  0.00     0.010 C 
HETATM   27  C   UNL     1     -33.398  38.612 -48.689  1.00  0.00     0.011 C 
HETATM   28  C   UNL     1     -31.571  39.806 -49.858  1.00  0.00     0.011 C 
ENDBRANCH  19  26
ENDBRANCH  18  19
ENDBRANCH   2  18
TORSDOF 6
ENDMDL
