MODEL 1
REMARK VINA RESULT:      -8.1      0.000      0.000
REMARK  6 active torsions:
REMARK  status: ('A' for Active; 'I' for Inactive)
REMARK    1  A    between atoms: C_2  and  C_3 
REMARK       I    between atoms: C_3  and  N_4 
REMARK    2  A    between atoms: N_4  and  C_5 
REMARK    3  A    between atoms: C_5  and  C_6 
REMARK    4  A    between atoms: N_8  and  C_10 
REMARK    5  A    between atoms: C_10  and  C_11 
REMARK    6  A    between atoms: C_12  and  C_13 
ROOT
HETATM    1  C   UNL     1     -43.807  55.784 -54.635  1.00  0.00     0.029 C 
HETATM    2  C   UNL     1     -43.738  54.874 -53.405  1.00  0.00     0.241 C 
HETATM    3  N   UNL     1     -43.185  55.591 -52.197  1.00  0.00    -0.067 N 
HETATM    4  H   UNL     1     -42.196  55.823 -52.427  1.00  0.00     0.280 HD
HETATM    5  C   UNL     1     -43.950  56.840 -51.860  1.00  0.00     0.235 C 
HETATM    6  C   UNL     1     -44.129  57.749 -53.069  1.00  0.00     0.028 C 
HETATM    7  C   UNL     1     -44.665  57.010 -54.292  1.00  0.00     0.009 C 
ENDROOT
BRANCH   3   8
HETATM    8  C   UNL     1     -43.063  54.619 -51.029  1.00  0.00     0.277 C 
BRANCH   8   9
HETATM    9  C   UNL     1     -41.718  54.489 -50.404  1.00  0.00     0.016 A 
HETATM   10  C   UNL     1     -40.552  53.814 -50.895  1.00  0.00     0.096 A 
HETATM   11  N   UNL     1     -39.524  53.967 -50.051  1.00  0.00    -0.174 NA
HETATM   12  N   UNL     1     -40.023  54.615 -48.999  1.00  0.00    -0.288 N 
HETATM   13  H   UNL     1     -39.408  54.791 -48.207  1.00  0.00     0.188 HD
HETATM   14  C   UNL     1     -41.334  54.949 -49.153  1.00  0.00     0.120 A 
BRANCH  10  15
HETATM   15  C   UNL     1     -40.369  53.018 -52.108  1.00  0.00    -0.003 A 
HETATM   16  C   UNL     1     -40.000  51.670 -52.033  1.00  0.00     0.037 A 
HETATM   17  C   UNL     1     -39.771  50.944 -53.204  1.00  0.00     0.035 A 
HETATM   18 CL   UNL     1     -39.347  49.280 -53.093  1.00  0.00    -0.084 Cl
HETATM   19  C   UNL     1     -39.887  51.549 -54.452  1.00  0.00     0.024 A 
HETATM   20  C   UNL     1     -40.235  52.896 -54.535  1.00  0.00     0.003 A 
HETATM   21  C   UNL     1     -40.474  53.627 -53.368  1.00  0.00     0.014 A 
ENDBRANCH  10  15
ENDBRANCH   8   9
ENDBRANCH   3   8
BRANCH   1  22
HETATM   22  C   UNL     1     -42.452  56.233 -55.217  1.00  0.00     0.128 C 
BRANCH  22  23
HETATM   23  N   UNL     1     -42.248  55.879 -56.602  1.00  0.00    -0.360 N 
HETATM   24  C   UNL     1     -42.767  56.660 -57.617  1.00  0.00     0.221 C 
HETATM   25  O   UNL     1     -43.203  57.789 -57.389  1.00  0.00    -0.273 OA
HETATM   26  H   UNL     1     -42.048  54.904 -56.816  1.00  0.00     0.162 HD
BRANCH  24  27
HETATM   27  C   UNL     1     -42.707  56.013 -58.997  1.00  0.00     0.070 C 
HETATM   28  C   UNL     1     -42.203  57.010 -60.038  1.00  0.00     0.019 C 
HETATM   29  C   UNL     1     -44.070  55.463 -59.401  1.00  0.00     0.019 C 
ENDBRANCH  24  27
ENDBRANCH  22  23
ENDBRANCH   1  22
TORSDOF 6
ENDMDL
MODEL 2
REMARK VINA RESULT:      -8.1      2.412      4.380
REMARK  6 active torsions:
REMARK  status: ('A' for Active; 'I' for Inactive)
REMARK    1  A    between atoms: C_2  and  C_3 
REMARK       I    between atoms: C_3  and  N_4 
REMARK    2  A    between atoms: N_4  and  C_5 
REMARK    3  A    between atoms: C_5  and  C_6 
REMARK    4  A    between atoms: N_8  and  C_10 
REMARK    5  A    between atoms: C_10  and  C_11 
REMARK    6  A    between atoms: C_12  and  C_13 
ROOT
HETATM    1  C   UNL     1     -41.060  55.720 -54.610  1.00  0.00     0.029 C 
HETATM    2  C   UNL     1     -41.256  54.777 -53.419  1.00  0.00     0.241 C 
HETATM    3  N   UNL     1     -42.687  54.760 -52.937  1.00  0.00    -0.067 N 
HETATM    4  H   UNL     1     -42.878  55.715 -52.569  1.00  0.00     0.280 HD
HETATM    5  C   UNL     1     -43.665  54.413 -54.024  1.00  0.00     0.235 C 
HETATM    6  C   UNL     1     -43.460  55.260 -55.273  1.00  0.00     0.028 C 
HETATM    7  C   UNL     1     -42.007  55.291 -55.739  1.00  0.00     0.009 C 
ENDROOT
BRANCH   3   8
HETATM    8  C   UNL     1     -42.807  53.871 -51.704  1.00  0.00     0.277 C 
BRANCH   8   9
HETATM    9  C   UNL     1     -41.773  54.050 -50.647  1.00  0.00     0.016 A 
HETATM   10  C   UNL     1     -40.651  53.217 -50.328  1.00  0.00     0.096 A 
HETATM   11  N   UNL     1     -39.932  53.751 -49.332  1.00  0.00    -0.174 NA
HETATM   12  N   UNL     1     -40.615  54.825 -48.937  1.00  0.00    -0.288 N 
HETATM   13  H   UNL     1     -40.262  55.356 -48.145  1.00  0.00     0.188 HD
HETATM   14  C   UNL     1     -41.730  55.050 -49.687  1.00  0.00     0.120 A 
BRANCH  10  15
HETATM   15  C   UNL     1     -40.237  51.938 -50.902  1.00  0.00    -0.003 A 
HETATM   16  C   UNL     1     -39.941  51.825 -52.265  1.00  0.00     0.037 A 
HETATM   17  C   UNL     1     -39.605  50.582 -52.804  1.00  0.00     0.035 A 
HETATM   18 CL   UNL     1     -39.215  50.467 -54.477  1.00  0.00    -0.084 Cl
HETATM   19  C   UNL     1     -39.578  49.442 -52.006  1.00  0.00     0.024 A 
HETATM   20  C   UNL     1     -39.889  49.543 -50.652  1.00  0.00     0.003 A 
HETATM   21  C   UNL     1     -40.218  50.785 -50.103  1.00  0.00     0.014 A 
ENDBRANCH  10  15
ENDBRANCH   8   9
ENDBRANCH   3   8
BRANCH   1  22
HETATM   22  C   UNL     1     -41.234  57.222 -54.315  1.00  0.00     0.128 C 
BRANCH  22  23
HETATM   23  N   UNL     1     -41.158  57.571 -52.915  1.00  0.00    -0.360 N 
HETATM   24  C   UNL     1     -40.468  58.695 -52.503  1.00  0.00     0.221 C 
HETATM   25  O   UNL     1     -40.107  59.551 -53.311  1.00  0.00    -0.273 OA
HETATM   26  H   UNL     1     -41.293  56.826 -52.235  1.00  0.00     0.162 HD
BRANCH  24  27
HETATM   27  C   UNL     1     -40.245  58.772 -50.995  1.00  0.00     0.070 C 
HETATM   28  C   UNL     1     -41.372  59.556 -50.324  1.00  0.00     0.019 C 
HETATM   29  C   UNL     1     -38.895  59.401 -50.675  1.00  0.00     0.019 C 
ENDBRANCH  24  27
ENDBRANCH  22  23
ENDBRANCH   1  22
TORSDOF 6
ENDMDL
MODEL 3
REMARK VINA RESULT:      -8.0      2.987      5.615
REMARK  6 active torsions:
REMARK  status: ('A' for Active; 'I' for Inactive)
REMARK    1  A    between atoms: C_2  and  C_3 
REMARK       I    between atoms: C_3  and  N_4 
REMARK    2  A    between atoms: N_4  and  C_5 
REMARK    3  A    between atoms: C_5  and  C_6 
REMARK    4  A    between atoms: N_8  and  C_10 
REMARK    5  A    between atoms: C_10  and  C_11 
REMARK    6  A    between atoms: C_12  and  C_13 
ROOT
HETATM    1  C   UNL     1     -40.867  58.965 -50.501  1.00  0.00     0.029 C 
HETATM    2  C   UNL     1     -41.540  57.594 -50.622  1.00  0.00     0.241 C 
HETATM    3  N   UNL     1     -41.978  57.300 -52.037  1.00  0.00    -0.067 N 
HETATM    4  H   UNL     1     -42.722  57.994 -52.258  1.00  0.00     0.280 HD
HETATM    5  C   UNL     1     -40.855  57.402 -53.030  1.00  0.00     0.235 C 
HETATM    6  C   UNL     1     -40.089  58.712 -52.898  1.00  0.00     0.028 C 
HETATM    7  C   UNL     1     -39.671  59.014 -51.461  1.00  0.00     0.009 C 
ENDROOT
BRANCH   3   8
HETATM    8  C   UNL     1     -42.712  55.964 -52.083  1.00  0.00     0.277 C 
BRANCH   8   9
HETATM    9  C   UNL     1     -42.935  55.369 -53.430  1.00  0.00     0.016 A 
HETATM   10  C   UNL     1     -42.342  54.201 -54.013  1.00  0.00     0.096 A 
HETATM   11  N   UNL     1     -42.843  53.975 -55.235  1.00  0.00    -0.174 NA
HETATM   12  N   UNL     1     -43.642  55.011 -55.488  1.00  0.00    -0.288 N 
HETATM   13  H   UNL     1     -44.091  55.060 -56.399  1.00  0.00     0.188 HD
HETATM   14  C   UNL     1     -43.732  55.880 -54.443  1.00  0.00     0.120 A 
BRANCH  10  15
HETATM   15  C   UNL     1     -41.316  53.304 -53.484  1.00  0.00    -0.003 A 
HETATM   16  C   UNL     1     -40.910  52.174 -54.204  1.00  0.00     0.037 A 
HETATM   17  C   UNL     1     -39.972  51.298 -53.655  1.00  0.00     0.035 A 
HETATM   18 CL   UNL     1     -39.463  49.930 -54.567  1.00  0.00    -0.084 Cl
HETATM   19  C   UNL     1     -39.446  51.521 -52.386  1.00  0.00     0.024 A 
HETATM   20  C   UNL     1     -39.859  52.633 -51.655  1.00  0.00     0.003 A 
HETATM   21  C   UNL     1     -40.790  53.520 -52.202  1.00  0.00     0.014 A 
ENDBRANCH  10  15
ENDBRANCH   8   9
ENDBRANCH   3   8
BRANCH   1  22
HETATM   22  C   UNL     1     -41.780  60.186 -50.731  1.00  0.00     0.128 C 
BRANCH  22  23
HETATM   23  N   UNL     1     -43.136  60.017 -50.264  1.00  0.00    -0.360 N 
HETATM   24  C   UNL     1     -44.178  59.858 -51.157  1.00  0.00     0.221 C 
HETATM   25  O   UNL     1     -43.964  59.617 -52.346  1.00  0.00    -0.273 OA
HETATM   26  H   UNL     1     -43.363  60.368 -49.335  1.00  0.00     0.162 HD
BRANCH  24  27
HETATM   27  C   UNL     1     -45.563  59.973 -50.528  1.00  0.00     0.070 C 
HETATM   28  C   UNL     1     -46.521  60.708 -51.464  1.00  0.00     0.019 C 
HETATM   29  C   UNL     1     -45.493  60.675 -49.178  1.00  0.00     0.019 C 
ENDBRANCH  24  27
ENDBRANCH  22  23
ENDBRANCH   1  22
TORSDOF 6
ENDMDL
MODEL 4
REMARK VINA RESULT:      -7.8      3.234      6.066
REMARK  6 active torsions:
REMARK  status: ('A' for Active; 'I' for Inactive)
REMARK    1  A    between atoms: C_2  and  C_3 
REMARK       I    between atoms: C_3  and  N_4 
REMARK    2  A    between atoms: N_4  and  C_5 
REMARK    3  A    between atoms: C_5  and  C_6 
REMARK    4  A    between atoms: N_8  and  C_10 
REMARK    5  A    between atoms: C_10  and  C_11 
REMARK    6  A    between atoms: C_12  and  C_13 
ROOT
HETATM    1  C   UNL     1     -42.429  57.728 -51.001  1.00  0.00     0.029 C 
HETATM    2  C   UNL     1     -41.839  56.786 -52.056  1.00  0.00     0.241 C 
HETATM    3  N   UNL     1     -41.290  57.538 -53.245  1.00  0.00    -0.067 N 
HETATM    4  H   UNL     1     -42.108  57.990 -53.703  1.00  0.00     0.280 HD
HETATM    5  C   UNL     1     -40.269  58.572 -52.861  1.00  0.00     0.235 C 
HETATM    6  C   UNL     1     -40.767  59.486 -51.749  1.00  0.00     0.028 C 
HETATM    7  C   UNL     1     -41.342  58.718 -50.562  1.00  0.00     0.009 C 
ENDROOT
BRANCH   3   8
HETATM    8  C   UNL     1     -40.791  56.551 -54.295  1.00  0.00     0.277 C 
BRANCH   8   9
HETATM    9  C   UNL     1     -41.794  55.598 -54.847  1.00  0.00     0.016 A 
HETATM   10  C   UNL     1     -41.915  54.187 -54.631  1.00  0.00     0.096 A 
HETATM   11  N   UNL     1     -42.982  53.697 -55.277  1.00  0.00    -0.174 NA
HETATM   12  N   UNL     1     -43.471  54.720 -55.978  1.00  0.00    -0.288 N 
HETATM   13  H   UNL     1     -44.267  54.548 -56.587  1.00  0.00     0.188 HD
HETATM   14  C   UNL     1     -42.796  55.883 -55.763  1.00  0.00     0.120 A 
BRANCH  10  15
HETATM   15  C   UNL     1     -41.066  53.277 -53.864  1.00  0.00    -0.003 A 
HETATM   16  C   UNL     1     -40.597  52.085 -54.429  1.00  0.00     0.037 A 
HETATM   17  C   UNL     1     -39.836  51.202 -53.661  1.00  0.00     0.035 A 
HETATM   18 CL   UNL     1     -39.243  49.755 -54.380  1.00  0.00    -0.084 Cl
HETATM   19  C   UNL     1     -39.551  51.480 -52.327  1.00  0.00     0.024 A 
HETATM   20  C   UNL     1     -40.030  52.656 -51.752  1.00  0.00     0.003 A 
HETATM   21  C   UNL     1     -40.784  53.549 -52.517  1.00  0.00     0.014 A 
ENDBRANCH  10  15
ENDBRANCH   8   9
ENDBRANCH   3   8
BRANCH   1  22
HETATM   22  C   UNL     1     -43.703  58.490 -51.417  1.00  0.00     0.128 C 
BRANCH  22  23
HETATM   23  N   UNL     1     -44.064  59.578 -50.539  1.00  0.00    -0.360 N 
HETATM   24  C   UNL     1     -45.376  59.771 -50.152  1.00  0.00     0.221 C 
HETATM   25  O   UNL     1     -46.228  58.901 -50.341  1.00  0.00    -0.273 OA
HETATM   26  H   UNL     1     -43.441  60.383 -50.503  1.00  0.00     0.162 HD
BRANCH  24  27
HETATM   27  C   UNL     1     -45.635  61.107 -49.462  1.00  0.00     0.070 C 
HETATM   28  C   UNL     1     -44.659  62.170 -49.963  1.00  0.00     0.019 C 
HETATM   29  C   UNL     1     -45.539  60.966 -47.948  1.00  0.00     0.019 C 
ENDBRANCH  24  27
ENDBRANCH  22  23
ENDBRANCH   1  22
TORSDOF 6
ENDMDL
MODEL 5
REMARK VINA RESULT:      -7.8      2.296      3.880
REMARK  6 active torsions:
REMARK  status: ('A' for Active; 'I' for Inactive)
REMARK    1  A    between atoms: C_2  and  C_3 
REMARK       I    between atoms: C_3  and  N_4 
REMARK    2  A    between atoms: N_4  and  C_5 
REMARK    3  A    between atoms: C_5  and  C_6 
REMARK    4  A    between atoms: N_8  and  C_10 
REMARK    5  A    between atoms: C_10  and  C_11 
REMARK    6  A    between atoms: C_12  and  C_13 
ROOT
HETATM    1  C   UNL     1     -42.609  59.619 -51.723  1.00  0.00     0.029 C 
HETATM    2  C   UNL     1     -43.286  58.246 -51.777  1.00  0.00     0.241 C 
HETATM    3  N   UNL     1     -42.282  57.119 -51.825  1.00  0.00    -0.067 N 
HETATM    4  H   UNL     1     -41.782  57.217 -52.732  1.00  0.00     0.280 HD
HETATM    5  C   UNL     1     -41.307  57.157 -50.682  1.00  0.00     0.235 C 
HETATM    6  C   UNL     1     -40.664  58.529 -50.522  1.00  0.00     0.028 C 
HETATM    7  C   UNL     1     -41.684  59.664 -50.499  1.00  0.00     0.009 C 
ENDROOT
BRANCH   3   8
HETATM    8  C   UNL     1     -43.009  55.785 -51.960  1.00  0.00     0.277 C 
BRANCH   8   9
HETATM    9  C   UNL     1     -43.147  55.234 -53.337  1.00  0.00     0.016 A 
HETATM   10  C   UNL     1     -42.451  54.141 -53.948  1.00  0.00     0.096 A 
HETATM   11  N   UNL     1     -42.897  53.931 -55.194  1.00  0.00    -0.174 NA
HETATM   12  N   UNL     1     -43.764  54.915 -55.430  1.00  0.00    -0.288 N 
HETATM   13  H   UNL     1     -44.188  54.971 -56.353  1.00  0.00     0.188 HD
HETATM   14  C   UNL     1     -43.950  55.729 -54.354  1.00  0.00     0.120 A 
BRANCH  10  15
HETATM   15  C   UNL     1     -41.377  53.299 -53.423  1.00  0.00    -0.003 A 
HETATM   16  C   UNL     1     -40.927  52.182 -54.136  1.00  0.00     0.037 A 
HETATM   17  C   UNL     1     -39.942  51.357 -53.590  1.00  0.00     0.035 A 
HETATM   18 CL   UNL     1     -39.379  50.004 -54.493  1.00  0.00    -0.084 Cl
HETATM   19  C   UNL     1     -39.409  51.620 -52.331  1.00  0.00     0.024 A 
HETATM   20  C   UNL     1     -39.865  52.720 -51.606  1.00  0.00     0.003 A 
HETATM   21  C   UNL     1     -40.845  53.555 -52.150  1.00  0.00     0.014 A 
ENDBRANCH  10  15
ENDBRANCH   8   9
ENDBRANCH   3   8
BRANCH   1  22
HETATM   22  C   UNL     1     -41.833  60.037 -52.987  1.00  0.00     0.128 C 
BRANCH  22  23
HETATM   23  N   UNL     1     -42.530  59.789 -54.228  1.00  0.00    -0.360 N 
HETATM   24  C   UNL     1     -42.122  58.780 -55.079  1.00  0.00     0.221 C 
HETATM   25  O   UNL     1     -41.322  57.920 -54.707  1.00  0.00    -0.273 OA
HETATM   26  H   UNL     1     -43.065  60.556 -54.631  1.00  0.00     0.162 HD
BRANCH  24  27
HETATM   27  C   UNL     1     -42.773  58.824 -56.458  1.00  0.00     0.070 C 
HETATM   28  C   UNL     1     -44.289  58.965 -56.334  1.00  0.00     0.019 C 
HETATM   29  C   UNL     1     -42.417  57.584 -57.270  1.00  0.00     0.019 C 
ENDBRANCH  24  27
ENDBRANCH  22  23
ENDBRANCH   1  22
TORSDOF 6
ENDMDL
MODEL 6
REMARK VINA RESULT:      -7.5      2.016      3.218
REMARK  6 active torsions:
REMARK  status: ('A' for Active; 'I' for Inactive)
REMARK    1  A    between atoms: C_2  and  C_3 
REMARK       I    between atoms: C_3  and  N_4 
REMARK    2  A    between atoms: N_4  and  C_5 
REMARK    3  A    between atoms: C_5  and  C_6 
REMARK    4  A    between atoms: N_8  and  C_10 
REMARK    5  A    between atoms: C_10  and  C_11 
REMARK    6  A    between atoms: C_12  and  C_13 
ROOT
HETATM    1  C   UNL     1     -42.174  56.464 -55.727  1.00  0.00     0.029 C 
HETATM    2  C   UNL     1     -42.364  56.838 -54.253  1.00  0.00     0.241 C 
HETATM    3  N   UNL     1     -43.552  56.136 -53.638  1.00  0.00    -0.067 N 
HETATM    4  H   UNL     1     -44.391  56.508 -54.130  1.00  0.00     0.280 HD
HETATM    5  C   UNL     1     -43.483  54.642 -53.777  1.00  0.00     0.235 C 
HETATM    6  C   UNL     1     -43.206  54.209 -55.211  1.00  0.00     0.028 C 
HETATM    7  C   UNL     1     -42.019  54.940 -55.833  1.00  0.00     0.009 C 
ENDROOT
BRANCH   3   8
HETATM    8  C   UNL     1     -43.741  56.606 -52.200  1.00  0.00     0.277 C 
BRANCH   8   9
HETATM    9  C   UNL     1     -42.600  57.332 -51.577  1.00  0.00     0.016 A 
HETATM   10  C   UNL     1     -41.401  56.804 -50.994  1.00  0.00     0.096 A 
HETATM   11  N   UNL     1     -40.599  57.794 -50.580  1.00  0.00    -0.174 NA
HETATM   12  N   UNL     1     -41.291  58.916 -50.776  1.00  0.00    -0.288 N 
HETATM   13  H   UNL     1     -40.876  59.795 -50.478  1.00  0.00     0.188 HD
HETATM   14  C   UNL     1     -42.499  58.699 -51.367  1.00  0.00     0.120 A 
BRANCH  10  15
HETATM   15  C   UNL     1     -40.986  55.417 -50.793  1.00  0.00    -0.003 A 
HETATM   16  C   UNL     1     -40.708  54.585 -51.884  1.00  0.00     0.037 A 
HETATM   17  C   UNL     1     -40.371  53.247 -51.672  1.00  0.00     0.035 A 
HETATM   18 CL   UNL     1     -40.004  52.247 -53.023  1.00  0.00    -0.084 Cl
HETATM   19  C   UNL     1     -40.326  52.718 -50.385  1.00  0.00     0.024 A 
HETATM   20  C   UNL     1     -40.619  53.535 -49.294  1.00  0.00     0.003 A 
HETATM   21  C   UNL     1     -40.948  54.878 -49.498  1.00  0.00     0.014 A 
ENDBRANCH  10  15
ENDBRANCH   8   9
ENDBRANCH   3   8
BRANCH   1  22
HETATM   22  C   UNL     1     -43.271  56.952 -56.692  1.00  0.00     0.128 C 
BRANCH  22  23
HETATM   23  N   UNL     1     -43.662  55.987 -57.694  1.00  0.00    -0.360 N 
HETATM   24  C   UNL     1     -43.517  56.265 -59.039  1.00  0.00     0.221 C 
HETATM   25  O   UNL     1     -42.841  57.221 -59.421  1.00  0.00    -0.273 OA
HETATM   26  H   UNL     1     -44.353  55.287 -57.430  1.00  0.00     0.162 HD
BRANCH  24  27
HETATM   27  C   UNL     1     -44.225  55.276 -59.961  1.00  0.00     0.070 C 
HETATM   28  C   UNL     1     -45.596  55.811 -60.372  1.00  0.00     0.019 C 
HETATM   29  C   UNL     1     -44.362  53.912 -59.296  1.00  0.00     0.019 C 
ENDBRANCH  24  27
ENDBRANCH  22  23
ENDBRANCH   1  22
TORSDOF 6
ENDMDL
MODEL 7
REMARK VINA RESULT:      -7.5      4.001      7.905
REMARK  6 active torsions:
REMARK  status: ('A' for Active; 'I' for Inactive)
REMARK    1  A    between atoms: C_2  and  C_3 
REMARK       I    between atoms: C_3  and  N_4 
REMARK    2  A    between atoms: N_4  and  C_5 
REMARK    3  A    between atoms: C_5  and  C_6 
REMARK    4  A    between atoms: N_8  and  C_10 
REMARK    5  A    between atoms: C_10  and  C_11 
REMARK    6  A    between atoms: C_12  and  C_13 
ROOT
HETATM    1  C   UNL     1     -41.273  54.636 -55.265  1.00  0.00     0.029 C 
HETATM    2  C   UNL     1     -42.187  55.593 -56.037  1.00  0.00     0.241 C 
HETATM    3  N   UNL     1     -42.966  56.502 -55.116  1.00  0.00    -0.067 N 
HETATM    4  H   UNL     1     -43.605  55.884 -54.575  1.00  0.00     0.280 HD
HETATM    5  C   UNL     1     -42.083  57.285 -54.186  1.00  0.00     0.235 C 
HETATM    6  C   UNL     1     -41.088  56.395 -53.452  1.00  0.00     0.028 C 
HETATM    7  C   UNL     1     -40.323  55.463 -54.388  1.00  0.00     0.009 C 
ENDROOT
BRANCH   3   8
HETATM    8  C   UNL     1     -43.915  57.373 -55.931  1.00  0.00     0.277 C 
BRANCH   8   9
HETATM    9  C   UNL     1     -43.311  58.172 -57.034  1.00  0.00     0.016 A 
HETATM   10  C   UNL     1     -43.427  57.991 -58.451  1.00  0.00     0.096 A 
HETATM   11  N   UNL     1     -42.764  58.952 -59.108  1.00  0.00    -0.174 NA
HETATM   12  N   UNL     1     -42.146  59.664 -58.166  1.00  0.00    -0.288 N 
HETATM   13  H   UNL     1     -41.539  60.425 -58.459  1.00  0.00     0.188 HD
HETATM   14  C   UNL     1     -42.434  59.238 -56.904  1.00  0.00     0.120 A 
BRANCH  10  15
HETATM   15  C   UNL     1     -44.113  56.949 -59.213  1.00  0.00    -0.003 A 
HETATM   16  C   UNL     1     -45.378  57.178 -59.765  1.00  0.00     0.037 A 
HETATM   17  C   UNL     1     -46.041  56.151 -60.438  1.00  0.00     0.035 A 
HETATM   18 CL   UNL     1     -47.584  56.460 -61.137  1.00  0.00    -0.084 Cl
HETATM   19  C   UNL     1     -45.470  54.887 -60.552  1.00  0.00     0.024 A 
HETATM   20  C   UNL     1     -44.218  54.644 -59.988  1.00  0.00     0.003 A 
HETATM   21  C   UNL     1     -43.544  55.671 -59.321  1.00  0.00     0.014 A 
ENDBRANCH  10  15
ENDBRANCH   8   9
ENDBRANCH   3   8
BRANCH   1  22
HETATM   22  C   UNL     1     -41.985  53.567 -54.412  1.00  0.00     0.128 C 
BRANCH  22  23
HETATM   23  N   UNL     1     -41.248  52.334 -54.258  1.00  0.00    -0.360 N 
HETATM   24  C   UNL     1     -40.458  52.116 -53.146  1.00  0.00     0.221 C 
HETATM   25  O   UNL     1     -40.542  52.843 -52.155  1.00  0.00    -0.273 OA
HETATM   26  H   UNL     1     -41.029  51.807 -55.101  1.00  0.00     0.162 HD
BRANCH  24  27
HETATM   27  C   UNL     1     -39.537  50.905 -53.261  1.00  0.00     0.070 C 
HETATM   28  C   UNL     1     -39.942  50.032 -54.448  1.00  0.00     0.019 C 
HETATM   29  C   UNL     1     -39.544  50.090 -51.973  1.00  0.00     0.019 C 
ENDBRANCH  24  27
ENDBRANCH  22  23
ENDBRANCH   1  22
TORSDOF 6
ENDMDL
MODEL 8
REMARK VINA RESULT:      -7.4      1.917      2.832
REMARK  6 active torsions:
REMARK  status: ('A' for Active; 'I' for Inactive)
REMARK    1  A    between atoms: C_2  and  C_3 
REMARK       I    between atoms: C_3  and  N_4 
REMARK    2  A    between atoms: N_4  and  C_5 
REMARK    3  A    between atoms: C_5  and  C_6 
REMARK    4  A    between atoms: N_8  and  C_10 
REMARK    5  A    between atoms: C_10  and  C_11 
REMARK    6  A    between atoms: C_12  and  C_13 
ROOT
HETATM    1  C   UNL     1     -43.668  57.338 -56.038  1.00  0.00     0.029 C 
HETATM    2  C   UNL     1     -43.321  57.132 -54.560  1.00  0.00     0.241 C 
HETATM    3  N   UNL     1     -41.956  57.678 -54.216  1.00  0.00    -0.067 N 
HETATM    4  H   UNL     1     -41.272  57.098 -54.745  1.00  0.00     0.280 HD
HETATM    5  C   UNL     1     -41.800  59.129 -54.575  1.00  0.00     0.235 C 
HETATM    6  C   UNL     1     -42.216  59.413 -56.012  1.00  0.00     0.028 C 
HETATM    7  C   UNL     1     -43.587  58.837 -56.359  1.00  0.00     0.009 C 
ENDROOT
BRANCH   3   8
HETATM    8  C   UNL     1     -41.630  57.374 -52.758  1.00  0.00     0.277 C 
BRANCH   8   9
HETATM    9  C   UNL     1     -42.576  56.480 -52.033  1.00  0.00     0.016 A 
HETATM   10  C   UNL     1     -42.594  55.048 -51.962  1.00  0.00     0.096 A 
HETATM   11  N   UNL     1     -43.585  54.625 -51.167  1.00  0.00    -0.174 NA
HETATM   12  N   UNL     1     -44.259  55.723 -50.826  1.00  0.00    -0.288 N 
HETATM   13  H   UNL     1     -45.093  55.617 -50.254  1.00  0.00     0.188 HD
HETATM   14  C   UNL     1     -43.701  56.864 -51.320  1.00  0.00     0.120 A 
BRANCH  10  15
HETATM   15  C   UNL     1     -41.737  54.064 -52.620  1.00  0.00    -0.003 A 
HETATM   16  C   UNL     1     -40.990  53.146 -51.871  1.00  0.00     0.037 A 
HETATM   17  C   UNL     1     -40.133  52.254 -52.516  1.00  0.00     0.035 A 
HETATM   18 CL   UNL     1     -39.245  51.113 -51.581  1.00  0.00    -0.084 Cl
HETATM   19  C   UNL     1     -39.992  52.274 -53.901  1.00  0.00     0.024 A 
HETATM   20  C   UNL     1     -40.717  53.197 -54.653  1.00  0.00     0.003 A 
HETATM   21  C   UNL     1     -41.585  54.088 -54.015  1.00  0.00     0.014 A 
ENDBRANCH  10  15
ENDBRANCH   8   9
ENDBRANCH   3   8
BRANCH   1  22
HETATM   22  C   UNL     1     -42.823  56.535 -57.047  1.00  0.00     0.128 C 
BRANCH  22  23
HETATM   23  N   UNL     1     -43.576  55.598 -57.848  1.00  0.00    -0.360 N 
HETATM   24  C   UNL     1     -43.900  55.889 -59.159  1.00  0.00     0.221 C 
HETATM   25  O   UNL     1     -43.365  56.826 -59.753  1.00  0.00    -0.273 OA
HETATM   26  H   UNL     1     -44.157  54.920 -57.360  1.00  0.00     0.162 HD
BRANCH  24  27
HETATM   27  C   UNL     1     -44.922  54.939 -59.776  1.00  0.00     0.070 C 
HETATM   28  C   UNL     1     -44.623  53.494 -59.377  1.00  0.00     0.019 C 
HETATM   29  C   UNL     1     -44.950  55.078 -61.293  1.00  0.00     0.019 C 
ENDBRANCH  24  27
ENDBRANCH  22  23
ENDBRANCH   1  22
TORSDOF 6
ENDMDL
MODEL 9
REMARK VINA RESULT:      -7.4      1.620      2.567
REMARK  6 active torsions:
REMARK  status: ('A' for Active; 'I' for Inactive)
REMARK    1  A    between atoms: C_2  and  C_3 
REMARK       I    between atoms: C_3  and  N_4 
REMARK    2  A    between atoms: N_4  and  C_5 
REMARK    3  A    between atoms: C_5  and  C_6 
REMARK    4  A    between atoms: N_8  and  C_10 
REMARK    5  A    between atoms: C_10  and  C_11 
REMARK    6  A    between atoms: C_12  and  C_13 
ROOT
HETATM    1  C   UNL     1     -41.494  56.355 -54.175  1.00  0.00     0.029 C 
HETATM    2  C   UNL     1     -41.706  55.702 -52.805  1.00  0.00     0.241 C 
HETATM    3  N   UNL     1     -42.615  54.498 -52.884  1.00  0.00    -0.067 N 
HETATM    4  H   UNL     1     -43.549  54.861 -53.166  1.00  0.00     0.280 HD
HETATM    5  C   UNL     1     -42.135  53.468 -53.867  1.00  0.00     0.235 C 
HETATM    6  C   UNL     1     -41.822  54.075 -55.228  1.00  0.00     0.028 C 
HETATM    7  C   UNL     1     -40.922  55.305 -55.138  1.00  0.00     0.009 C 
ENDROOT
BRANCH   3   8
HETATM    8  C   UNL     1     -42.855  53.939 -51.486  1.00  0.00     0.277 C 
BRANCH   8   9
HETATM    9  C   UNL     1     -41.754  54.113 -50.497  1.00  0.00     0.016 A 
HETATM   10  C   UNL     1     -40.605  53.287 -50.268  1.00  0.00     0.096 A 
HETATM   11  N   UNL     1     -39.826  53.813 -49.314  1.00  0.00    -0.174 NA
HETATM   12  N   UNL     1     -40.492  54.873 -48.857  1.00  0.00    -0.288 N 
HETATM   13  H   UNL     1     -40.091  55.395 -48.082  1.00  0.00     0.188 HD
HETATM   14  C   UNL     1     -41.656  55.098 -49.527  1.00  0.00     0.120 A 
BRANCH  10  15
HETATM   15  C   UNL     1     -40.218  52.022 -50.889  1.00  0.00    -0.003 A 
HETATM   16  C   UNL     1     -39.926  51.953 -52.256  1.00  0.00     0.037 A 
HETATM   17  C   UNL     1     -39.616  50.724 -52.842  1.00  0.00     0.035 A 
HETATM   18 CL   UNL     1     -39.231  50.662 -54.518  1.00  0.00    -0.084 Cl
HETATM   19  C   UNL     1     -39.612  49.554 -52.086  1.00  0.00     0.024 A 
HETATM   20  C   UNL     1     -39.920  49.612 -50.728  1.00  0.00     0.003 A 
HETATM   21  C   UNL     1     -40.222  50.840 -50.133  1.00  0.00     0.014 A 
ENDBRANCH  10  15
ENDBRANCH   8   9
ENDBRANCH   3   8
BRANCH   1  22
HETATM   22  C   UNL     1     -42.733  57.026 -54.799  1.00  0.00     0.128 C 
BRANCH  22  23
HETATM   23  N   UNL     1     -42.442  57.931 -55.887  1.00  0.00    -0.360 N 
HETATM   24  C   UNL     1     -42.855  57.647 -57.174  1.00  0.00     0.221 C 
HETATM   25  O   UNL     1     -43.677  56.756 -57.395  1.00  0.00    -0.273 OA
HETATM   26  H   UNL     1     -41.651  58.563 -55.776  1.00  0.00     0.162 HD
BRANCH  24  27
HETATM   27  C   UNL     1     -42.237  58.545 -58.241  1.00  0.00     0.070 C 
HETATM   28  C   UNL     1     -43.176  59.701 -58.582  1.00  0.00     0.019 C 
HETATM   29  C   UNL     1     -41.897  57.747 -59.495  1.00  0.00     0.019 C 
ENDBRANCH  24  27
ENDBRANCH  22  23
ENDBRANCH   1  22
TORSDOF 6
ENDMDL
MODEL 10
REMARK VINA RESULT:      -7.3      3.566      6.431
REMARK  6 active torsions:
REMARK  status: ('A' for Active; 'I' for Inactive)
REMARK    1  A    between atoms: C_2  and  C_3 
REMARK       I    between atoms: C_3  and  N_4 
REMARK    2  A    between atoms: N_4  and  C_5 
REMARK    3  A    between atoms: C_5  and  C_6 
REMARK    4  A    between atoms: N_8  and  C_10 
REMARK    5  A    between atoms: C_10  and  C_11 
REMARK    6  A    between atoms: C_12  and  C_13 
ROOT
HETATM    1  C   UNL     1     -43.796  59.470 -52.048  1.00  0.00     0.029 C 
HETATM    2  C   UNL     1     -42.959  58.709 -53.081  1.00  0.00     0.241 C 
HETATM    3  N   UNL     1     -42.454  57.391 -52.543  1.00  0.00    -0.067 N 
HETATM    4  H   UNL     1     -41.795  57.629 -51.772  1.00  0.00     0.280 HD
HETATM    5  C   UNL     1     -43.557  56.507 -52.033  1.00  0.00     0.235 C 
HETATM    6  C   UNL     1     -44.479  57.238 -51.066  1.00  0.00     0.028 C 
HETATM    7  C   UNL     1     -44.966  58.579 -51.607  1.00  0.00     0.009 C 
ENDROOT
BRANCH   3   8
HETATM    8  C   UNL     1     -41.564  56.717 -53.580  1.00  0.00     0.277 C 
BRANCH   8   9
HETATM    9  C   UNL     1     -42.219  55.735 -54.488  1.00  0.00     0.016 A 
HETATM   10  C   UNL     1     -42.061  54.312 -54.548  1.00  0.00     0.096 A 
HETATM   11  N   UNL     1     -42.865  53.783 -55.480  1.00  0.00    -0.174 NA
HETATM   12  N   UNL     1     -43.438  54.824 -56.084  1.00  0.00    -0.288 N 
HETATM   13  H   UNL     1     -44.059  54.642 -56.869  1.00  0.00     0.188 HD
HETATM   14  C   UNL     1     -43.084  56.018 -55.534  1.00  0.00     0.120 A 
BRANCH  10  15
HETATM   15  C   UNL     1     -41.178  53.431 -53.784  1.00  0.00    -0.003 A 
HETATM   16  C   UNL     1     -40.697  52.240 -54.340  1.00  0.00     0.037 A 
HETATM   17  C   UNL     1     -39.903  51.385 -53.573  1.00  0.00     0.035 A 
HETATM   18 CL   UNL     1     -39.295  49.939 -54.282  1.00  0.00    -0.084 Cl
HETATM   19  C   UNL     1     -39.597  51.690 -52.250  1.00  0.00     0.024 A 
HETATM   20  C   UNL     1     -40.089  52.865 -51.683  1.00  0.00     0.003 A 
HETATM   21  C   UNL     1     -40.876  53.730 -52.447  1.00  0.00     0.014 A 
ENDBRANCH  10  15
ENDBRANCH   8   9
ENDBRANCH   3   8
BRANCH   1  22
HETATM   22  C   UNL     1     -43.032  59.989 -50.813  1.00  0.00     0.128 C 
BRANCH  22  23
HETATM   23  N   UNL     1     -43.868  60.582 -49.796  1.00  0.00    -0.360 N 
HETATM   24  C   UNL     1     -43.940  61.953 -49.648  1.00  0.00     0.221 C 
HETATM   25  O   UNL     1     -43.494  62.709 -50.513  1.00  0.00    -0.273 OA
HETATM   26  H   UNL     1     -44.106  60.009 -48.988  1.00  0.00     0.162 HD
BRANCH  24  27
HETATM   27  C   UNL     1     -44.635  62.409 -48.369  1.00  0.00     0.070 C 
HETATM   28  C   UNL     1     -46.100  61.976 -48.368  1.00  0.00     0.019 C 
HETATM   29  C   UNL     1     -44.525  63.920 -48.197  1.00  0.00     0.019 C 
ENDBRANCH  24  27
ENDBRANCH  22  23
ENDBRANCH   1  22
TORSDOF 6
ENDMDL
