MODEL 1
REMARK VINA RESULT:      -7.2      0.000      0.000
REMARK  5 active torsions:
REMARK  status: ('A' for Active; 'I' for Inactive)
REMARK    1  A    between atoms: C_2  and  C_3 
REMARK    2  A    between atoms: C_3  and  C_4 
REMARK    3  A    between atoms: C_10  and  C_11 
REMARK    4  A    between atoms: C_12  and  O_13 
REMARK    5  A    between atoms: C_22  and  N_23 
ROOT
HETATM    1  C   UNL     1     -43.179  56.077 -59.077  1.00  0.00     0.066 A 
HETATM    2  N   UNL     1     -42.328  56.230 -60.107  1.00  0.00    -0.177 NA
HETATM    3  N   UNL     1     -41.616  57.331 -59.792  1.00  0.00    -0.256 N 
HETATM    4  H   UNL     1     -40.910  57.659 -60.441  1.00  0.00     0.191 HD
HETATM    5  C   UNL     1     -41.995  57.879 -58.611  1.00  0.00     0.175 A 
HETATM    6  C   UNL     1     -42.986  57.082 -58.100  1.00  0.00     0.035 A 
HETATM    7  C   UNL     1     -43.634  57.434 -56.804  1.00  0.00     0.107 A 
HETATM    8  C   UNL     1     -43.143  58.803 -56.335  1.00  0.00     0.067 A 
HETATM    9  C   UNL     1     -43.890  59.432 -55.170  1.00  0.00     0.020 C 
HETATM   10  N   UNL     1     -44.509  59.953 -54.203  1.00  0.00    -0.096 N 
HETATM   11  C   UNL     1     -42.153  59.500 -56.956  1.00  0.00     0.139 A 
HETATM   12  O   UNL     1     -41.501  59.001 -58.100  1.00  0.00    -0.279 OA
ENDROOT
BRANCH   7  13
HETATM   13  C   UNL     1     -43.267  56.320 -55.832  1.00  0.00    -0.010 A 
HETATM   14  C   UNL     1     -44.175  55.901 -54.848  1.00  0.00     0.073 A 
HETATM   15  C   UNL     1     -43.848  54.898 -53.933  1.00  0.00     0.038 A 
HETATM   16  C   UNL     1     -42.592  54.294 -53.982  1.00  0.00     0.022 A 
HETATM   17  C   UNL     1     -41.672  54.701 -54.943  1.00  0.00     0.011 A 
HETATM   18 BR   UNL     1     -39.964  53.892 -55.010  1.00  0.00    -0.051 Br
HETATM   19  C   UNL     1     -41.997  55.704 -55.858  1.00  0.00     0.030 A 
BRANCH  14  20
HETATM   20  O   UNL     1     -45.404  56.494 -54.791  1.00  0.00    -0.360 OA
HETATM   21  H   UNL     1     -46.063  55.836 -54.510  1.00  0.00     0.217 HD
ENDBRANCH  14  20
ENDBRANCH   7  13
BRANCH  11  22
HETATM   22  N   UNL     1     -41.686  60.737 -56.574  1.00  0.00    -0.282 NA
HETATM   23  H   UNL     1     -42.013  61.073 -55.672  1.00  0.00     0.126 HD
HETATM   24  H   UNL     1     -40.679  60.819 -56.690  1.00  0.00     0.126 HD
ENDBRANCH  11  22
BRANCH   1  25
HETATM   25  C   UNL     1     -44.179  54.969 -59.090  1.00  0.00     0.061 C 
BRANCH  25  26
HETATM   26  C   UNL     1     -44.935  54.875 -60.416  1.00  0.00     0.002 C 
HETATM   27  C   UNL     1     -46.073  55.883 -60.476  1.00  0.00     0.005 C 
ENDBRANCH  25  26
ENDBRANCH   1  25
TORSDOF 5
ENDMDL
MODEL 2
REMARK VINA RESULT:      -6.9      4.405      6.367
REMARK  5 active torsions:
REMARK  status: ('A' for Active; 'I' for Inactive)
REMARK    1  A    between atoms: C_2  and  C_3 
REMARK    2  A    between atoms: C_3  and  C_4 
REMARK    3  A    between atoms: C_10  and  C_11 
REMARK    4  A    between atoms: C_12  and  O_13 
REMARK    5  A    between atoms: C_22  and  N_23 
ROOT
HETATM    1  C   UNL     1     -42.250  55.734 -52.387  1.00  0.00     0.066 A 
HETATM    2  N   UNL     1     -42.857  54.604 -51.983  1.00  0.00    -0.177 NA
HETATM    3  N   UNL     1     -43.971  55.028 -51.354  1.00  0.00    -0.256 N 
HETATM    4  H   UNL     1     -44.592  54.342 -50.941  1.00  0.00     0.191 HD
HETATM    5  C   UNL     1     -44.081  56.380 -51.338  1.00  0.00     0.175 A 
HETATM    6  C   UNL     1     -43.002  56.876 -52.023  1.00  0.00     0.035 A 
HETATM    7  C   UNL     1     -42.820  58.350 -52.164  1.00  0.00     0.107 A 
HETATM    8  C   UNL     1     -43.865  59.083 -51.324  1.00  0.00     0.067 A 
HETATM    9  C   UNL     1     -43.666  60.580 -51.146  1.00  0.00     0.020 C 
HETATM   10  N   UNL     1     -43.502  61.821 -50.998  1.00  0.00    -0.096 N 
HETATM   11  C   UNL     1     -44.883  58.456 -50.675  1.00  0.00     0.139 A 
HETATM   12  O   UNL     1     -45.047  57.059 -50.730  1.00  0.00    -0.279 OA
ENDROOT
BRANCH   7  13
HETATM   13  C   UNL     1     -42.954  58.650 -53.652  1.00  0.00    -0.010 A 
HETATM   14  C   UNL     1     -41.888  59.219 -54.366  1.00  0.00     0.073 A 
HETATM   15  C   UNL     1     -42.000  59.524 -55.724  1.00  0.00     0.038 A 
HETATM   16  C   UNL     1     -43.194  59.268 -56.397  1.00  0.00     0.022 A 
HETATM   17  C   UNL     1     -44.267  58.713 -55.707  1.00  0.00     0.011 A 
HETATM   18 BR   UNL     1     -45.891  58.371 -56.614  1.00  0.00    -0.051 Br
HETATM   19  C   UNL     1     -44.156  58.409 -54.350  1.00  0.00     0.030 A 
BRANCH  14  20
HETATM   20  O   UNL     1     -40.720  59.480 -53.709  1.00  0.00    -0.360 OA
HETATM   21  H   UNL     1     -40.796  60.334 -53.249  1.00  0.00     0.217 HD
ENDBRANCH  14  20
ENDBRANCH   7  13
BRANCH  11  22
HETATM   22  N   UNL     1     -45.839  59.074 -49.903  1.00  0.00    -0.282 NA
HETATM   23  H   UNL     1     -45.737  58.959 -48.897  1.00  0.00     0.126 HD
HETATM   24  H   UNL     1     -45.990  60.041 -50.180  1.00  0.00     0.126 HD
ENDBRANCH  11  22
BRANCH   1  25
HETATM   25  C   UNL     1     -40.937  55.667 -53.094  1.00  0.00     0.061 C 
BRANCH  25  26
HETATM   26  C   UNL     1     -41.090  55.430 -54.596  1.00  0.00     0.002 C 
HETATM   27  C   UNL     1     -40.244  54.255 -55.061  1.00  0.00     0.005 C 
ENDBRANCH  25  26
ENDBRANCH   1  25
TORSDOF 5
ENDMDL
MODEL 3
REMARK VINA RESULT:      -6.7      3.089      5.903
REMARK  5 active torsions:
REMARK  status: ('A' for Active; 'I' for Inactive)
REMARK    1  A    between atoms: C_2  and  C_3 
REMARK    2  A    between atoms: C_3  and  C_4 
REMARK    3  A    between atoms: C_10  and  C_11 
REMARK    4  A    between atoms: C_12  and  O_13 
REMARK    5  A    between atoms: C_22  and  N_23 
ROOT
HETATM    1  C   UNL     1     -41.665  59.170 -52.854  1.00  0.00     0.066 A 
HETATM    2  N   UNL     1     -42.357  60.185 -52.307  1.00  0.00    -0.177 NA
HETATM    3  N   UNL     1     -43.567  60.124 -52.899  1.00  0.00    -0.256 N 
HETATM    4  H   UNL     1     -44.268  60.814 -52.654  1.00  0.00     0.191 HD
HETATM    5  C   UNL     1     -43.657  59.117 -53.803  1.00  0.00     0.175 A 
HETATM    6  C   UNL     1     -42.456  58.455 -53.784  1.00  0.00     0.035 A 
HETATM    7  C   UNL     1     -42.227  57.297 -54.695  1.00  0.00     0.107 A 
HETATM    8  C   UNL     1     -43.406  57.155 -55.658  1.00  0.00     0.067 A 
HETATM    9  C   UNL     1     -43.223  56.191 -56.819  1.00  0.00     0.020 C 
HETATM   10  N   UNL     1     -43.072  55.392 -57.782  1.00  0.00    -0.096 N 
HETATM   11  C   UNL     1     -44.542  57.898 -55.570  1.00  0.00     0.139 A 
HETATM   12  O   UNL     1     -44.713  58.874 -54.570  1.00  0.00    -0.279 OA
ENDROOT
BRANCH   7  13
HETATM   13  C   UNL     1     -42.060  56.079 -53.795  1.00  0.00    -0.010 A 
HETATM   14  C   UNL     1     -41.005  55.177 -54.000  1.00  0.00     0.073 A 
HETATM   15  C   UNL     1     -40.849  54.042 -53.201  1.00  0.00     0.038 A 
HETATM   16  C   UNL     1     -41.760  53.784 -52.176  1.00  0.00     0.022 A 
HETATM   17  C   UNL     1     -42.819  54.660 -51.961  1.00  0.00     0.011 A 
HETATM   18 BR   UNL     1     -44.060  54.310 -50.578  1.00  0.00    -0.051 Br
HETATM   19  C   UNL     1     -42.976  55.793 -52.760  1.00  0.00     0.030 A 
BRANCH  14  20
HETATM   20  O   UNL     1     -40.116  55.421 -55.007  1.00  0.00    -0.360 OA
HETATM   21  H   UNL     1     -39.971  56.380 -55.079  1.00  0.00     0.217 HD
ENDBRANCH  14  20
ENDBRANCH   7  13
BRANCH  11  22
HETATM   22  N   UNL     1     -45.622  57.809 -56.418  1.00  0.00    -0.282 NA
HETATM   23  H   UNL     1     -45.417  57.492 -57.362  1.00  0.00     0.126 HD
HETATM   24  H   UNL     1     -46.404  57.318 -55.993  1.00  0.00     0.126 HD
ENDBRANCH  11  22
BRANCH   1  25
HETATM   25  C   UNL     1     -40.240  58.945 -52.473  1.00  0.00     0.061 C 
BRANCH  25  26
HETATM   26  C   UNL     1     -40.061  58.726 -50.971  1.00  0.00     0.002 C 
HETATM   27  C   UNL     1     -40.783  57.472 -50.503  1.00  0.00     0.005 C 
ENDBRANCH  25  26
ENDBRANCH   1  25
TORSDOF 5
ENDMDL
MODEL 4
REMARK VINA RESULT:      -6.6      4.160      6.356
REMARK  5 active torsions:
REMARK  status: ('A' for Active; 'I' for Inactive)
REMARK    1  A    between atoms: C_2  and  C_3 
REMARK    2  A    between atoms: C_3  and  C_4 
REMARK    3  A    between atoms: C_10  and  C_11 
REMARK    4  A    between atoms: C_12  and  O_13 
REMARK    5  A    between atoms: C_22  and  N_23 
ROOT
HETATM    1  C   UNL     1     -41.538  54.168 -51.845  1.00  0.00     0.066 A 
HETATM    2  N   UNL     1     -40.481  53.392 -52.142  1.00  0.00    -0.177 NA
HETATM    3  N   UNL     1     -40.188  53.700 -53.422  1.00  0.00    -0.256 N 
HETATM    4  H   UNL     1     -39.422  53.218 -53.879  1.00  0.00     0.191 HD
HETATM    5  C   UNL     1     -41.027  54.630 -53.941  1.00  0.00     0.175 A 
HETATM    6  C   UNL     1     -41.899  54.983 -52.944  1.00  0.00     0.035 A 
HETATM    7  C   UNL     1     -42.972  55.984 -53.210  1.00  0.00     0.107 A 
HETATM    8  C   UNL     1     -42.996  56.335 -54.697  1.00  0.00     0.067 A 
HETATM    9  C   UNL     1     -44.188  57.140 -55.187  1.00  0.00     0.020 C 
HETATM   10  N   UNL     1     -45.177  57.808 -55.594  1.00  0.00    -0.096 N 
HETATM   11  C   UNL     1     -42.066  55.895 -55.588  1.00  0.00     0.139 A 
HETATM   12  O   UNL     1     -41.000  55.064 -55.197  1.00  0.00    -0.279 OA
ENDROOT
BRANCH   7  13
HETATM   13  C   UNL     1     -42.654  57.187 -52.332  1.00  0.00    -0.010 A 
HETATM   14  C   UNL     1     -43.684  57.928 -51.733  1.00  0.00     0.073 A 
HETATM   15  C   UNL     1     -43.413  59.049 -50.944  1.00  0.00     0.038 A 
HETATM   16  C   UNL     1     -42.094  59.456 -50.744  1.00  0.00     0.022 A 
HETATM   17  C   UNL     1     -41.058  58.741 -51.336  1.00  0.00     0.011 A 
HETATM   18 BR   UNL     1     -39.268  59.292 -51.075  1.00  0.00    -0.051 Br
HETATM   19  C   UNL     1     -41.327  57.622 -52.125  1.00  0.00     0.030 A 
BRANCH  14  20
HETATM   20  O   UNL     1     -44.977  57.539 -51.932  1.00  0.00    -0.360 OA
HETATM   21  H   UNL     1     -45.046  57.088 -52.791  1.00  0.00     0.217 HD
ENDBRANCH  14  20
ENDBRANCH   7  13
BRANCH  11  22
HETATM   22  N   UNL     1     -42.053  56.180 -56.934  1.00  0.00    -0.282 NA
HETATM   23  H   UNL     1     -41.138  56.178 -57.377  1.00  0.00     0.126 HD
HETATM   24  H   UNL     1     -42.746  55.640 -57.447  1.00  0.00     0.126 HD
ENDBRANCH  11  22
BRANCH   1  25
HETATM   25  C   UNL     1     -42.185  54.071 -50.503  1.00  0.00     0.061 C 
BRANCH  25  26
HETATM   26  C   UNL     1     -41.572  55.032 -49.485  1.00  0.00     0.002 C 
HETATM   27  C   UNL     1     -40.636  54.307 -48.531  1.00  0.00     0.005 C 
ENDBRANCH  25  26
ENDBRANCH   1  25
TORSDOF 5
ENDMDL
MODEL 5
REMARK VINA RESULT:      -6.5      3.248      4.509
REMARK  5 active torsions:
REMARK  status: ('A' for Active; 'I' for Inactive)
REMARK    1  A    between atoms: C_2  and  C_3 
REMARK    2  A    between atoms: C_3  and  C_4 
REMARK    3  A    between atoms: C_10  and  C_11 
REMARK    4  A    between atoms: C_12  and  O_13 
REMARK    5  A    between atoms: C_22  and  N_23 
ROOT
HETATM    1  C   UNL     1     -43.185  55.725 -55.123  1.00  0.00     0.066 A 
HETATM    2  N   UNL     1     -42.761  55.908 -56.385  1.00  0.00    -0.177 NA
HETATM    3  N   UNL     1     -42.922  57.228 -56.606  1.00  0.00    -0.256 N 
HETATM    4  H   UNL     1     -42.681  57.606 -57.515  1.00  0.00     0.191 HD
HETATM    5  C   UNL     1     -43.441  57.878 -55.534  1.00  0.00     0.175 A 
HETATM    6  C   UNL     1     -43.599  56.947 -54.541  1.00  0.00     0.035 A 
HETATM    7  C   UNL     1     -44.177  57.348 -53.226  1.00  0.00     0.107 A 
HETATM    8  C   UNL     1     -44.664  58.795 -53.295  1.00  0.00     0.067 A 
HETATM    9  C   UNL     1     -45.512  59.284 -52.132  1.00  0.00     0.020 C 
HETATM   10  N   UNL     1     -46.214  59.690 -51.167  1.00  0.00    -0.096 N 
HETATM   11  C   UNL     1     -44.451  59.610 -54.364  1.00  0.00     0.139 A 
HETATM   12  O   UNL     1     -43.758  59.167 -55.506  1.00  0.00    -0.279 OA
ENDROOT
BRANCH   7  13
HETATM   13  C   UNL     1     -43.067  57.155 -52.201  1.00  0.00    -0.010 A 
HETATM   14  C   UNL     1     -43.108  56.084 -51.295  1.00  0.00     0.073 A 
HETATM   15  C   UNL     1     -42.113  55.905 -50.332  1.00  0.00     0.038 A 
HETATM   16  C   UNL     1     -41.051  56.806 -50.253  1.00  0.00     0.022 A 
HETATM   17  C   UNL     1     -40.996  57.881 -51.135  1.00  0.00     0.011 A 
HETATM   18 BR   UNL     1     -39.563  59.110 -51.028  1.00  0.00    -0.051 Br
HETATM   19  C   UNL     1     -41.991  58.061 -52.097  1.00  0.00     0.030 A 
BRANCH  14  20
HETATM   20  O   UNL     1     -44.150  55.204 -51.363  1.00  0.00    -0.360 OA
HETATM   21  H   UNL     1     -44.656  55.244 -50.533  1.00  0.00     0.217 HD
ENDBRANCH  14  20
ENDBRANCH   7  13
BRANCH  11  22
HETATM   22  N   UNL     1     -44.878  60.914 -54.471  1.00  0.00    -0.282 NA
HETATM   23  H   UNL     1     -44.178  61.625 -54.276  1.00  0.00     0.126 HD
HETATM   24  H   UNL     1     -45.386  61.081 -55.336  1.00  0.00     0.126 HD
ENDBRANCH  11  22
BRANCH   1  25
HETATM   25  C   UNL     1     -43.201  54.356 -54.529  1.00  0.00     0.061 C 
BRANCH  25  26
HETATM   26  C   UNL     1     -41.821  53.699 -54.530  1.00  0.00     0.002 C 
HETATM   27  C   UNL     1     -40.838  54.471 -53.665  1.00  0.00     0.005 C 
ENDBRANCH  25  26
ENDBRANCH   1  25
TORSDOF 5
ENDMDL
MODEL 6
REMARK VINA RESULT:      -6.5     17.033     19.409
REMARK  5 active torsions:
REMARK  status: ('A' for Active; 'I' for Inactive)
REMARK    1  A    between atoms: C_2  and  C_3 
REMARK    2  A    between atoms: C_3  and  C_4 
REMARK    3  A    between atoms: C_10  and  C_11 
REMARK    4  A    between atoms: C_12  and  O_13 
REMARK    5  A    between atoms: C_22  and  N_23 
ROOT
HETATM    1  C   UNL     1     -34.235  40.073 -50.922  1.00  0.00     0.066 A 
HETATM    2  N   UNL     1     -33.828  39.038 -50.166  1.00  0.00    -0.177 NA
HETATM    3  N   UNL     1     -34.929  38.272 -50.025  1.00  0.00    -0.256 N 
HETATM    4  H   UNL     1     -34.869  37.428 -49.468  1.00  0.00     0.191 HD
HETATM    5  C   UNL     1     -36.012  38.793 -50.652  1.00  0.00     0.175 A 
HETATM    6  C   UNL     1     -35.601  39.944 -51.272  1.00  0.00     0.035 A 
HETATM    7  C   UNL     1     -36.577  40.771 -52.037  1.00  0.00     0.107 A 
HETATM    8  C   UNL     1     -37.989  40.219 -51.841  1.00  0.00     0.067 A 
HETATM    9  C   UNL     1     -39.134  41.087 -52.337  1.00  0.00     0.020 C 
HETATM   10  N   UNL     1     -40.084  41.806 -52.748  1.00  0.00    -0.096 N 
HETATM   11  C   UNL     1     -38.257  39.059 -51.182  1.00  0.00     0.139 A 
HETATM   12  O   UNL     1     -37.234  38.273 -50.618  1.00  0.00    -0.279 OA
ENDROOT
BRANCH   7  13
HETATM   13  C   UNL     1     -36.127  40.717 -53.492  1.00  0.00    -0.010 A 
HETATM   14  C   UNL     1     -35.574  41.847 -54.112  1.00  0.00     0.073 A 
HETATM   15  C   UNL     1     -35.178  41.823 -55.451  1.00  0.00     0.038 A 
HETATM   16  C   UNL     1     -35.336  40.659 -56.203  1.00  0.00     0.022 A 
HETATM   17  C   UNL     1     -35.891  39.529 -55.610  1.00  0.00     0.011 A 
HETATM   18 BR   UNL     1     -36.115  37.950 -56.626  1.00  0.00    -0.051 Br
HETATM   19  C   UNL     1     -36.288  39.552 -54.272  1.00  0.00     0.030 A 
BRANCH  14  20
HETATM   20  O   UNL     1     -35.425  42.991 -53.383  1.00  0.00    -0.360 OA
HETATM   21  H   UNL     1     -35.849  42.875 -52.516  1.00  0.00     0.217 HD
ENDBRANCH  14  20
ENDBRANCH   7  13
BRANCH  11  22
HETATM   22  N   UNL     1     -39.510  38.530 -50.975  1.00  0.00    -0.282 NA
HETATM   23  H   UNL     1     -39.792  38.427 -50.003  1.00  0.00     0.126 HD
HETATM   24  H   UNL     1     -40.217  38.981 -51.550  1.00  0.00     0.126 HD
ENDBRANCH  11  22
BRANCH   1  25
HETATM   25  C   UNL     1     -33.286  41.174 -51.258  1.00  0.00     0.061 C 
BRANCH  25  26
HETATM   26  C   UNL     1     -32.042  40.674 -51.992  1.00  0.00     0.002 C 
HETATM   27  C   UNL     1     -32.389  40.152 -53.377  1.00  0.00     0.005 C 
ENDBRANCH  25  26
ENDBRANCH   1  25
TORSDOF 5
ENDMDL
MODEL 7
REMARK VINA RESULT:      -6.4      4.161      6.167
REMARK  5 active torsions:
REMARK  status: ('A' for Active; 'I' for Inactive)
REMARK    1  A    between atoms: C_2  and  C_3 
REMARK    2  A    between atoms: C_3  and  C_4 
REMARK    3  A    between atoms: C_10  and  C_11 
REMARK    4  A    between atoms: C_12  and  O_13 
REMARK    5  A    between atoms: C_22  and  N_23 
ROOT
HETATM    1  C   UNL     1     -43.204  56.145 -54.544  1.00  0.00     0.066 A 
HETATM    2  N   UNL     1     -43.860  54.987 -54.356  1.00  0.00    -0.177 NA
HETATM    3  N   UNL     1     -43.718  54.730 -53.040  1.00  0.00    -0.256 N 
HETATM    4  H   UNL     1     -44.122  53.882 -52.659  1.00  0.00     0.191 HD
HETATM    5  C   UNL     1     -42.988  55.677 -52.398  1.00  0.00     0.175 A 
HETATM    6  C   UNL     1     -42.660  56.627 -53.330  1.00  0.00     0.035 A 
HETATM    7  C   UNL     1     -41.831  57.803 -52.937  1.00  0.00     0.107 A 
HETATM    8  C   UNL     1     -41.337  57.631 -51.501  1.00  0.00     0.067 A 
HETATM    9  C   UNL     1     -40.271  58.606 -51.027  1.00  0.00     0.020 C 
HETATM   10  N   UNL     1     -39.387  59.414 -50.634  1.00  0.00    -0.096 N 
HETATM   11  C   UNL     1     -41.736  56.618 -50.685  1.00  0.00     0.139 A 
HETATM   12  O   UNL     1     -42.645  55.634 -51.116  1.00  0.00    -0.279 OA
ENDROOT
BRANCH   7  13
HETATM   13  C   UNL     1     -42.726  59.025 -53.103  1.00  0.00    -0.010 A 
HETATM   14  C   UNL     1     -42.326  60.099 -53.913  1.00  0.00     0.073 A 
HETATM   15  C   UNL     1     -43.122  61.238 -54.058  1.00  0.00     0.038 A 
HETATM   16  C   UNL     1     -44.340  61.325 -53.385  1.00  0.00     0.022 A 
HETATM   17  C   UNL     1     -44.751  60.276 -52.569  1.00  0.00     0.011 A 
HETATM   18 BR   UNL     1     -46.398  60.392 -51.648  1.00  0.00    -0.051 Br
HETATM   19  C   UNL     1     -43.956  59.138 -52.422  1.00  0.00     0.030 A 
BRANCH  14  20
HETATM   20  O   UNL     1     -41.131  60.022 -54.568  1.00  0.00    -0.360 OA
HETATM   21  H   UNL     1     -41.267  60.237 -55.506  1.00  0.00     0.217 HD
ENDBRANCH  14  20
ENDBRANCH   7  13
BRANCH  11  22
HETATM   22  N   UNL     1     -41.311  56.421 -49.391  1.00  0.00    -0.282 NA
HETATM   23  H   UNL     1     -41.746  57.014 -48.688  1.00  0.00     0.126 HD
HETATM   24  H   UNL     1     -41.304  55.437 -49.135  1.00  0.00     0.126 HD
ENDBRANCH  11  22
BRANCH   1  25
HETATM   25  C   UNL     1     -43.102  56.734 -55.911  1.00  0.00     0.061 C 
BRANCH  25  26
HETATM   26  C   UNL     1     -44.200  57.759 -56.193  1.00  0.00     0.002 C 
HETATM   27  C   UNL     1     -43.701  58.869 -57.106  1.00  0.00     0.005 C 
ENDBRANCH  25  26
ENDBRANCH   1  25
TORSDOF 5
ENDMDL
MODEL 8
REMARK VINA RESULT:      -6.3      2.919      5.116
REMARK  5 active torsions:
REMARK  status: ('A' for Active; 'I' for Inactive)
REMARK    1  A    between atoms: C_2  and  C_3 
REMARK    2  A    between atoms: C_3  and  C_4 
REMARK    3  A    between atoms: C_10  and  C_11 
REMARK    4  A    between atoms: C_12  and  O_13 
REMARK    5  A    between atoms: C_22  and  N_23 
ROOT
HETATM    1  C   UNL     1     -42.530  56.478 -55.842  1.00  0.00     0.066 A 
HETATM    2  N   UNL     1     -42.324  56.782 -54.549  1.00  0.00    -0.177 NA
HETATM    3  N   UNL     1     -42.081  58.108 -54.551  1.00  0.00    -0.256 N 
HETATM    4  H   UNL     1     -41.875  58.570 -53.672  1.00  0.00     0.191 HD
HETATM    5  C   UNL     1     -42.116  58.645 -55.796  1.00  0.00     0.175 A 
HETATM    6  C   UNL     1     -42.433  57.629 -56.660  1.00  0.00     0.035 A 
HETATM    7  C   UNL     1     -42.528  57.896 -58.124  1.00  0.00     0.107 A 
HETATM    8  C   UNL     1     -42.066  59.322 -58.421  1.00  0.00     0.067 A 
HETATM    9  C   UNL     1     -41.852  59.678 -59.883  1.00  0.00     0.020 C 
HETATM   10  N   UNL     1     -41.676  59.972 -61.096  1.00  0.00    -0.096 N 
HETATM   11  C   UNL     1     -41.762  60.231 -57.454  1.00  0.00     0.139 A 
HETATM   12  O   UNL     1     -41.849  59.913 -56.086  1.00  0.00    -0.279 OA
ENDROOT
BRANCH   7  13
HETATM   13  C   UNL     1     -43.986  57.666 -58.501  1.00  0.00    -0.010 A 
HETATM   14  C   UNL     1     -44.354  56.574 -59.303  1.00  0.00     0.073 A 
HETATM   15  C   UNL     1     -45.682  56.360 -59.679  1.00  0.00     0.038 A 
HETATM   16  C   UNL     1     -46.674  57.247 -59.261  1.00  0.00     0.022 A 
HETATM   17  C   UNL     1     -46.331  58.341 -58.473  1.00  0.00     0.011 A 
HETATM   18 BR   UNL     1     -47.671  59.550 -57.910  1.00  0.00    -0.051 Br
HETATM   19  C   UNL     1     -45.004  58.556 -58.098  1.00  0.00     0.030 A 
BRANCH  14  20
HETATM   20  O   UNL     1     -43.385  55.709 -59.721  1.00  0.00    -0.360 OA
HETATM   21  H   UNL     1     -42.534  55.968 -59.327  1.00  0.00     0.217 HD
ENDBRANCH  14  20
ENDBRANCH   7  13
BRANCH  11  22
HETATM   22  N   UNL     1     -41.336  61.520 -57.676  1.00  0.00    -0.282 NA
HETATM   23  H   UNL     1     -41.347  62.135 -56.866  1.00  0.00     0.126 HD
HETATM   24  H   UNL     1     -40.458  61.551 -58.188  1.00  0.00     0.126 HD
ENDBRANCH  11  22
BRANCH   1  25
HETATM   25  C   UNL     1     -42.789  55.065 -56.247  1.00  0.00     0.061 C 
BRANCH  25  26
HETATM   26  C   UNL     1     -43.042  54.148 -55.051  1.00  0.00     0.002 C 
HETATM   27  C   UNL     1     -41.782  53.395 -54.653  1.00  0.00     0.005 C 
ENDBRANCH  25  26
ENDBRANCH   1  25
TORSDOF 5
ENDMDL
MODEL 9
REMARK VINA RESULT:      -6.1      3.235      5.078
REMARK  5 active torsions:
REMARK  status: ('A' for Active; 'I' for Inactive)
REMARK    1  A    between atoms: C_2  and  C_3 
REMARK    2  A    between atoms: C_3  and  C_4 
REMARK    3  A    between atoms: C_10  and  C_11 
REMARK    4  A    between atoms: C_12  and  O_13 
REMARK    5  A    between atoms: C_22  and  N_23 
ROOT
HETATM    1  C   UNL     1     -43.066  56.055 -58.239  1.00  0.00     0.066 A 
HETATM    2  N   UNL     1     -43.307  55.207 -57.225  1.00  0.00    -0.177 NA
HETATM    3  N   UNL     1     -43.176  55.964 -56.116  1.00  0.00    -0.256 N 
HETATM    4  H   UNL     1     -43.297  55.530 -55.209  1.00  0.00     0.191 HD
HETATM    5  C   UNL     1     -42.851  57.251 -56.397  1.00  0.00     0.175 A 
HETATM    6  C   UNL     1     -42.798  57.361 -57.763  1.00  0.00     0.035 A 
HETATM    7  C   UNL     1     -42.440  58.663 -58.394  1.00  0.00     0.107 A 
HETATM    8  C   UNL     1     -42.015  59.661 -57.317  1.00  0.00     0.067 A 
HETATM    9  C   UNL     1     -41.372  60.951 -57.800  1.00  0.00     0.020 C 
HETATM   10  N   UNL     1     -40.839  62.021 -58.201  1.00  0.00    -0.096 N 
HETATM   11  C   UNL     1     -42.105  59.410 -55.983  1.00  0.00     0.139 A 
HETATM   12  O   UNL     1     -42.601  58.188 -55.490  1.00  0.00    -0.279 OA
ENDROOT
BRANCH   7  13
HETATM   13  C   UNL     1     -43.679  59.119 -59.154  1.00  0.00    -0.010 A 
HETATM   14  C   UNL     1     -43.590  59.510 -60.499  1.00  0.00     0.073 A 
HETATM   15  C   UNL     1     -44.710  59.953 -61.205  1.00  0.00     0.038 A 
HETATM   16  C   UNL     1     -45.950  60.021 -60.570  1.00  0.00     0.022 A 
HETATM   17  C   UNL     1     -46.059  59.648 -59.235  1.00  0.00     0.011 A 
HETATM   18 BR   UNL     1     -47.736  59.744 -58.367  1.00  0.00    -0.051 Br
HETATM   19  C   UNL     1     -44.940  59.205 -58.528  1.00  0.00     0.030 A 
BRANCH  14  20
HETATM   20  O   UNL     1     -42.377  59.453 -61.122  1.00  0.00    -0.360 OA
HETATM   21  H   UNL     1     -42.126  60.346 -61.415  1.00  0.00     0.217 HD
ENDBRANCH  14  20
ENDBRANCH   7  13
BRANCH  11  22
HETATM   22  N   UNL     1     -41.727  60.274 -54.981  1.00  0.00    -0.282 NA
HETATM   23  H   UNL     1     -41.736  61.262 -55.223  1.00  0.00     0.126 HD
HETATM   24  H   UNL     1     -42.200  60.074 -54.103  1.00  0.00     0.126 HD
ENDBRANCH  11  22
BRANCH   1  25
HETATM   25  C   UNL     1     -43.075  55.560 -59.647  1.00  0.00     0.061 C 
BRANCH  25  26
HETATM   26  C   UNL     1     -44.428  54.979 -60.057  1.00  0.00     0.002 C 
HETATM   27  C   UNL     1     -45.374  56.067 -60.541  1.00  0.00     0.005 C 
ENDBRANCH  25  26
ENDBRANCH   1  25
TORSDOF 5
ENDMDL
MODEL 10
REMARK VINA RESULT:      -6.0      3.140      4.960
REMARK  5 active torsions:
REMARK  status: ('A' for Active; 'I' for Inactive)
REMARK    1  A    between atoms: C_2  and  C_3 
REMARK    2  A    between atoms: C_3  and  C_4 
REMARK    3  A    between atoms: C_10  and  C_11 
REMARK    4  A    between atoms: C_12  and  O_13 
REMARK    5  A    between atoms: C_22  and  N_23 
ROOT
HETATM    1  C   UNL     1     -42.410  57.458 -59.848  1.00  0.00     0.066 A 
HETATM    2  N   UNL     1     -42.811  56.373 -60.534  1.00  0.00    -0.177 NA
HETATM    3  N   UNL     1     -43.208  55.503 -59.582  1.00  0.00    -0.256 N 
HETATM    4  H   UNL     1     -43.542  54.589 -59.863  1.00  0.00     0.191 HD
HETATM    5  C   UNL     1     -43.060  55.997 -58.328  1.00  0.00     0.175 A 
HETATM    6  C   UNL     1     -42.573  57.272 -58.455  1.00  0.00     0.035 A 
HETATM    7  C   UNL     1     -42.280  58.084 -57.239  1.00  0.00     0.107 A 
HETATM    8  C   UNL     1     -42.441  57.221 -55.989  1.00  0.00     0.067 A 
HETATM    9  C   UNL     1     -41.932  57.811 -54.684  1.00  0.00     0.020 C 
HETATM   10  N   UNL     1     -41.511  58.301 -53.601  1.00  0.00    -0.096 N 
HETATM   11  C   UNL     1     -42.925  55.949 -56.010  1.00  0.00     0.139 A 
HETATM   12  O   UNL     1     -43.314  55.325 -57.211  1.00  0.00    -0.279 OA
ENDROOT
BRANCH   7  13
HETATM   13  C   UNL     1     -43.254  59.255 -57.268  1.00  0.00    -0.010 A 
HETATM   14  C   UNL     1     -42.820  60.555 -56.969  1.00  0.00     0.073 A 
HETATM   15  C   UNL     1     -43.703  61.637 -56.967  1.00  0.00     0.038 A 
HETATM   16  C   UNL     1     -45.051  61.434 -57.260  1.00  0.00     0.022 A 
HETATM   17  C   UNL     1     -45.506  60.152 -57.551  1.00  0.00     0.011 A 
HETATM   18 BR   UNL     1     -47.334  59.870 -57.942  1.00  0.00    -0.051 Br
HETATM   19  C   UNL     1     -44.624  59.070 -57.552  1.00  0.00     0.030 A 
BRANCH  14  20
HETATM   20  O   UNL     1     -41.502  60.757 -56.673  1.00  0.00    -0.360 OA
HETATM   21  H   UNL     1     -41.106  61.327 -57.355  1.00  0.00     0.217 HD
ENDBRANCH  14  20
ENDBRANCH   7  13
BRANCH  11  22
HETATM   22  N   UNL     1     -43.079  55.134 -54.912  1.00  0.00    -0.282 NA
HETATM   23  H   UNL     1     -43.103  54.136 -55.103  1.00  0.00     0.126 HD
HETATM   24  H   UNL     1     -42.442  55.382 -54.159  1.00  0.00     0.126 HD
ENDBRANCH  11  22
BRANCH   1  25
HETATM   25  C   UNL     1     -41.850  58.637 -60.573  1.00  0.00     0.061 C 
BRANCH  25  26
HETATM   26  C   UNL     1     -42.897  59.722 -60.826  1.00  0.00     0.002 C 
HETATM   27  C   UNL     1     -42.332  61.109 -60.564  1.00  0.00     0.005 C 
ENDBRANCH  25  26
ENDBRANCH   1  25
TORSDOF 5
ENDMDL
