MODEL 1
REMARK VINA RESULT:      -9.0      0.000      0.000
REMARK  5 active torsions:
REMARK  status: ('A' for Active; 'I' for Inactive)
REMARK    1  A    between atoms: C_7  and  C_8 
REMARK    2  A    between atoms: C_16  and  C_17 
REMARK    3  A    between atoms: C_19  and  O_20 
REMARK    4  A    between atoms: C_24  and  C_25 
REMARK       I    between atoms: C_25  and  N_26 
REMARK    5  A    between atoms: N_26  and  C_27 
ROOT
HETATM    1  C   UNL     1     -45.070  59.077 -54.492  1.00  0.00     0.070 C 
HETATM    2  C   UNL     1     -44.082  58.249 -53.705  1.00  0.00     0.037 C 
HETATM    3  N   UNL     1     -43.475  57.205 -54.404  1.00  0.00    -0.192 N 
HETATM    4  C   UNL     1     -42.762  56.239 -53.793  1.00  0.00     0.726 A 
HETATM    5  N   UNL     1     -42.445  56.383 -52.474  1.00  0.00    -0.083 N 
HETATM    6  N   UNL     1     -41.792  55.308 -51.997  1.00  0.00    -0.135 NA
HETATM    7  C   UNL     1     -41.693  54.548 -53.103  1.00  0.00     0.199 A 
HETATM    8  N   UNL     1     -42.296  55.097 -54.225  1.00  0.00    -0.041 NA
HETATM    9  C   UNL     1     -42.765  57.570 -51.680  1.00  0.00     0.202 C 
HETATM   10  C   UNL     1     -43.779  58.456 -52.397  1.00  0.00     0.062 C 
HETATM   11  H   UNL     1     -43.819  57.022 -55.345  1.00  0.00     0.184 HD
ENDROOT
BRANCH  10  12
HETATM   12  C   UNL     1     -44.592  59.396 -51.570  1.00  0.00     0.256 C 
HETATM   13  N   UNL     1     -44.050  60.655 -51.438  1.00  0.00    -0.323 N 
HETATM   14  H   UNL     1     -43.188  60.864 -51.923  1.00  0.00     0.169 HD
HETATM   15  O   UNL     1     -45.627  58.990 -51.055  1.00  0.00    -0.267 OA
BRANCH  13  16
HETATM   16  C   UNL     1     -44.557  61.729 -50.674  1.00  0.00     0.035 A 
HETATM   17  C   UNL     1     -45.441  62.692 -51.164  1.00  0.00     0.029 A 
HETATM   18  C   UNL     1     -45.894  63.724 -50.336  1.00  0.00     0.002 A 
HETATM   19  C   UNL     1     -45.475  63.797 -49.010  1.00  0.00     0.000 A 
HETATM   20  C   UNL     1     -44.597  62.841 -48.510  1.00  0.00     0.002 A 
HETATM   21  C   UNL     1     -44.134  61.816 -49.340  1.00  0.00     0.029 A 
ENDBRANCH  13  16
ENDBRANCH  10  12
BRANCH   9  22
HETATM   22  C   UNL     1     -41.460  58.293 -51.341  1.00  0.00    -0.025 A 
HETATM   23  C   UNL     1     -40.432  58.450 -52.292  1.00  0.00     0.046 A 
HETATM   24  C   UNL     1     -39.266  59.129 -51.951  1.00  0.00     0.066 A 
HETATM   25  C   UNL     1     -39.091  59.649 -50.676  1.00  0.00     0.036 A 
HETATM   26  C   UNL     1     -40.089  59.481 -49.719  1.00  0.00     0.003 A 
HETATM   27  C   UNL     1     -41.266  58.807 -50.047  1.00  0.00     0.010 A 
BRANCH  24  28
HETATM   28  O   UNL     1     -38.261  59.311 -52.853  1.00  0.00    -0.361 OA
HETATM   29  H   UNL     1     -38.062  58.465 -53.285  1.00  0.00     0.217 HD
ENDBRANCH  24  28
ENDBRANCH   9  22
BRANCH   7  30
HETATM   30  C   UNL     1     -41.009  53.258 -53.135  1.00  0.00     0.014 A 
HETATM   31  C   UNL     1     -41.064  52.444 -54.277  1.00  0.00     0.017 A 
HETATM   32  C   UNL     1     -40.418  51.204 -54.303  1.00  0.00     0.025 A 
HETATM   33  C   UNL     1     -39.707  50.773 -53.185  1.00  0.00     0.034 A 
HETATM   34 CL   UNL     1     -38.913  49.248 -53.214  1.00  0.00    -0.084 Cl
HETATM   35  C   UNL     1     -39.640  51.568 -52.043  1.00  0.00     0.025 A 
HETATM   36  C   UNL     1     -40.290  52.807 -52.017  1.00  0.00     0.017 A 
ENDBRANCH   7  30
TORSDOF 5
ENDMDL
MODEL 2
REMARK VINA RESULT:      -8.8      1.170      1.583
REMARK  5 active torsions:
REMARK  status: ('A' for Active; 'I' for Inactive)
REMARK    1  A    between atoms: C_7  and  C_8 
REMARK    2  A    between atoms: C_16  and  C_17 
REMARK    3  A    between atoms: C_19  and  O_20 
REMARK    4  A    between atoms: C_24  and  C_25 
REMARK       I    between atoms: C_25  and  N_26 
REMARK    5  A    between atoms: N_26  and  C_27 
ROOT
HETATM    1  C   UNL     1     -43.665  59.302 -56.273  1.00  0.00     0.070 C 
HETATM    2  C   UNL     1     -43.094  58.445 -55.169  1.00  0.00     0.037 C 
HETATM    3  N   UNL     1     -42.345  57.343 -55.585  1.00  0.00    -0.192 N 
HETATM    4  C   UNL     1     -41.974  56.357 -54.745  1.00  0.00     0.726 A 
HETATM    5  N   UNL     1     -42.155  56.527 -53.403  1.00  0.00    -0.083 N 
HETATM    6  N   UNL     1     -41.797  55.433 -52.708  1.00  0.00    -0.135 NA
HETATM    7  C   UNL     1     -41.351  54.631 -53.693  1.00  0.00     0.199 A 
HETATM    8  N   UNL     1     -41.461  55.175 -54.964  1.00  0.00    -0.041 NA
HETATM    9  C   UNL     1     -42.662  57.757 -52.794  1.00  0.00     0.202 C 
HETATM   10  C   UNL     1     -43.279  58.677 -53.844  1.00  0.00     0.062 C 
HETATM   11  H   UNL     1     -42.331  57.149 -56.584  1.00  0.00     0.184 HD
ENDROOT
BRANCH  10  12
HETATM   12  C   UNL     1     -44.272  59.693 -53.384  1.00  0.00     0.256 C 
HETATM   13  N   UNL     1     -43.723  60.892 -52.991  1.00  0.00    -0.323 N 
HETATM   14  H   UNL     1     -42.723  61.017 -53.074  1.00  0.00     0.169 HD
HETATM   15  O   UNL     1     -45.459  59.389 -53.353  1.00  0.00    -0.267 OA
BRANCH  13  16
HETATM   16  C   UNL     1     -44.401  62.011 -52.459  1.00  0.00     0.035 A 
HETATM   17  C   UNL     1     -45.003  63.005 -53.232  1.00  0.00     0.029 A 
HETATM   18  C   UNL     1     -45.655  64.081 -52.620  1.00  0.00     0.002 A 
HETATM   19  C   UNL     1     -45.720  64.166 -51.232  1.00  0.00     0.000 A 
HETATM   20  C   UNL     1     -45.126  63.179 -50.452  1.00  0.00     0.002 A 
HETATM   21  C   UNL     1     -44.464  62.110 -51.062  1.00  0.00     0.029 A 
ENDBRANCH  13  16
ENDBRANCH  10  12
BRANCH   9  22
HETATM   22  C   UNL     1     -41.526  58.412 -52.006  1.00  0.00    -0.025 A 
HETATM   23  C   UNL     1     -40.256  58.626 -52.576  1.00  0.00     0.046 A 
HETATM   24  C   UNL     1     -39.253  59.241 -51.832  1.00  0.00     0.066 A 
HETATM   25  C   UNL     1     -39.480  59.641 -50.523  1.00  0.00     0.036 A 
HETATM   26  C   UNL     1     -40.724  59.414 -49.938  1.00  0.00     0.003 A 
HETATM   27  C   UNL     1     -41.742  58.804 -50.672  1.00  0.00     0.010 A 
BRANCH  24  28
HETATM   28  O   UNL     1     -38.019  59.476 -52.361  1.00  0.00    -0.361 OA
HETATM   29  H   UNL     1     -38.107  60.062 -53.130  1.00  0.00     0.217 HD
ENDBRANCH  24  28
ENDBRANCH   9  22
BRANCH   7  30
HETATM   30  C   UNL     1     -40.793  53.301 -53.458  1.00  0.00     0.014 A 
HETATM   31  C   UNL     1     -40.276  52.952 -52.200  1.00  0.00     0.017 A 
HETATM   32  C   UNL     1     -39.732  51.683 -51.979  1.00  0.00     0.025 A 
HETATM   33  C   UNL     1     -39.705  50.753 -53.016  1.00  0.00     0.034 A 
HETATM   34 CL   UNL     1     -39.035  49.192 -52.746  1.00  0.00    -0.084 Cl
HETATM   35  C   UNL     1     -40.215  51.081 -54.270  1.00  0.00     0.025 A 
HETATM   36  C   UNL     1     -40.757  52.353 -54.491  1.00  0.00     0.017 A 
ENDBRANCH   7  30
TORSDOF 5
ENDMDL
MODEL 3
REMARK VINA RESULT:      -8.7      4.010      9.155
REMARK  5 active torsions:
REMARK  status: ('A' for Active; 'I' for Inactive)
REMARK    1  A    between atoms: C_7  and  C_8 
REMARK    2  A    between atoms: C_16  and  C_17 
REMARK    3  A    between atoms: C_19  and  O_20 
REMARK    4  A    between atoms: C_24  and  C_25 
REMARK       I    between atoms: C_25  and  N_26 
REMARK    5  A    between atoms: N_26  and  C_27 
ROOT
HETATM    1  C   UNL     1     -40.617  56.206 -50.123  1.00  0.00     0.070 C 
HETATM    2  C   UNL     1     -41.740  56.764 -50.964  1.00  0.00     0.037 C 
HETATM    3  N   UNL     1     -42.096  58.086 -50.697  1.00  0.00    -0.192 N 
HETATM    4  C   UNL     1     -43.220  58.648 -51.184  1.00  0.00     0.726 A 
HETATM    5  N   UNL     1     -43.939  57.980 -52.132  1.00  0.00    -0.083 N 
HETATM    6  N   UNL     1     -45.062  58.640 -52.465  1.00  0.00    -0.135 NA
HETATM    7  C   UNL     1     -44.949  59.749 -51.710  1.00  0.00     0.199 A 
HETATM    8  N   UNL     1     -43.824  59.772 -50.900  1.00  0.00    -0.041 NA
HETATM    9  C   UNL     1     -43.527  56.708 -52.726  1.00  0.00     0.202 C 
HETATM   10  C   UNL     1     -42.403  56.062 -51.920  1.00  0.00     0.062 C 
HETATM   11  H   UNL     1     -41.649  58.529 -49.898  1.00  0.00     0.184 HD
ENDROOT
BRANCH  10  12
HETATM   12  C   UNL     1     -42.210  54.587 -52.048  1.00  0.00     0.256 C 
HETATM   13  N   UNL     1     -41.017  54.215 -52.626  1.00  0.00    -0.323 N 
HETATM   14  H   UNL     1     -40.357  54.937 -52.880  1.00  0.00     0.169 HD
HETATM   15  O   UNL     1     -43.107  53.838 -51.680  1.00  0.00    -0.267 OA
BRANCH  13  16
HETATM   16  C   UNL     1     -40.585  52.905 -52.928  1.00  0.00     0.035 A 
HETATM   17  C   UNL     1     -40.755  52.289 -54.170  1.00  0.00     0.029 A 
HETATM   18  C   UNL     1     -40.295  50.986 -54.382  1.00  0.00     0.002 A 
HETATM   19  C   UNL     1     -39.653  50.291 -53.360  1.00  0.00     0.000 A 
HETATM   20  C   UNL     1     -39.476  50.896 -52.120  1.00  0.00     0.002 A 
HETATM   21  C   UNL     1     -39.947  52.194 -51.902  1.00  0.00     0.029 A 
ENDBRANCH  13  16
ENDBRANCH  10  12
BRANCH   9  22
HETATM   22  C   UNL     1     -43.161  56.951 -54.191  1.00  0.00    -0.025 A 
HETATM   23  C   UNL     1     -43.454  56.006 -55.194  1.00  0.00     0.046 A 
HETATM   24  C   UNL     1     -43.121  56.272 -56.519  1.00  0.00     0.066 A 
HETATM   25  C   UNL     1     -42.488  57.456 -56.872  1.00  0.00     0.036 A 
HETATM   26  C   UNL     1     -42.171  58.389 -55.887  1.00  0.00     0.003 A 
HETATM   27  C   UNL     1     -42.504  58.140 -54.555  1.00  0.00     0.010 A 
BRANCH  24  28
HETATM   28  O   UNL     1     -43.405  55.386 -57.514  1.00  0.00    -0.361 OA
HETATM   29  H   UNL     1     -42.575  55.058 -57.898  1.00  0.00     0.217 HD
ENDBRANCH  24  28
ENDBRANCH   9  22
BRANCH   7  30
HETATM   30  C   UNL     1     -45.917  60.842 -51.736  1.00  0.00     0.014 A 
HETATM   31  C   UNL     1     -46.672  61.106 -52.889  1.00  0.00     0.017 A 
HETATM   32  C   UNL     1     -47.591  62.160 -52.916  1.00  0.00     0.025 A 
HETATM   33  C   UNL     1     -47.763  62.954 -51.785  1.00  0.00     0.034 A 
HETATM   34 CL   UNL     1     -48.891  64.253 -51.817  1.00  0.00    -0.084 Cl
HETATM   35  C   UNL     1     -47.024  62.707 -50.631  1.00  0.00     0.025 A 
HETATM   36  C   UNL     1     -46.102  61.654 -50.606  1.00  0.00     0.017 A 
ENDBRANCH   7  30
TORSDOF 5
ENDMDL
MODEL 4
REMARK VINA RESULT:      -8.6      2.182      3.194
REMARK  5 active torsions:
REMARK  status: ('A' for Active; 'I' for Inactive)
REMARK    1  A    between atoms: C_7  and  C_8 
REMARK    2  A    between atoms: C_16  and  C_17 
REMARK    3  A    between atoms: C_19  and  O_20 
REMARK    4  A    between atoms: C_24  and  C_25 
REMARK       I    between atoms: C_25  and  N_26 
REMARK    5  A    between atoms: N_26  and  C_27 
ROOT
HETATM    1  C   UNL     1     -45.921  58.904 -50.674  1.00  0.00     0.070 C 
HETATM    2  C   UNL     1     -44.793  58.367 -51.522  1.00  0.00     0.037 C 
HETATM    3  N   UNL     1     -44.725  56.977 -51.629  1.00  0.00    -0.192 N 
HETATM    4  C   UNL     1     -43.655  56.339 -52.142  1.00  0.00     0.726 A 
HETATM    5  N   UNL     1     -42.686  57.068 -52.766  1.00  0.00    -0.083 N 
HETATM    6  N   UNL     1     -41.658  56.297 -53.163  1.00  0.00    -0.135 NA
HETATM    7  C   UNL     1     -42.087  55.076 -52.791  1.00  0.00     0.199 A 
HETATM    8  N   UNL     1     -43.315  55.077 -52.146  1.00  0.00    -0.041 NA
HETATM    9  C   UNL     1     -42.763  58.512 -52.991  1.00  0.00     0.202 C 
HETATM   10  C   UNL     1     -43.871  59.141 -52.150  1.00  0.00     0.062 C 
HETATM   11  H   UNL     1     -45.368  56.441 -51.050  1.00  0.00     0.184 HD
ENDROOT
BRANCH  10  12
HETATM   12  C   UNL     1     -43.775  60.600 -51.850  1.00  0.00     0.256 C 
HETATM   13  N   UNL     1     -43.637  60.901 -50.513  1.00  0.00    -0.323 N 
HETATM   14  H   UNL     1     -43.572  60.140 -49.851  1.00  0.00     0.169 HD
HETATM   15  O   UNL     1     -43.861  61.402 -52.772  1.00  0.00    -0.267 OA
BRANCH  13  16
HETATM   16  C   UNL     1     -43.581  62.184 -49.926  1.00  0.00     0.035 A 
HETATM   17  C   UNL     1     -42.682  63.182 -50.305  1.00  0.00     0.029 A 
HETATM   18  C   UNL     1     -42.696  64.427 -49.668  1.00  0.00     0.002 A 
HETATM   19  C   UNL     1     -43.615  64.688 -48.655  1.00  0.00     0.000 A 
HETATM   20  C   UNL     1     -44.517  63.701 -48.270  1.00  0.00     0.002 A 
HETATM   21  C   UNL     1     -44.496  62.452 -48.898  1.00  0.00     0.029 A 
ENDBRANCH  13  16
ENDBRANCH  10  12
BRANCH   9  22
HETATM   22  C   UNL     1     -42.924  58.762 -54.492  1.00  0.00    -0.025 A 
HETATM   23  C   UNL     1     -41.985  59.517 -55.221  1.00  0.00     0.046 A 
HETATM   24  C   UNL     1     -42.156  59.708 -56.589  1.00  0.00     0.066 A 
HETATM   25  C   UNL     1     -43.253  59.174 -57.251  1.00  0.00     0.036 A 
HETATM   26  C   UNL     1     -44.202  58.445 -56.538  1.00  0.00     0.003 A 
HETATM   27  C   UNL     1     -44.041  58.240 -55.167  1.00  0.00     0.010 A 
BRANCH  24  28
HETATM   28  O   UNL     1     -41.257  60.420 -57.325  1.00  0.00    -0.361 OA
HETATM   29  H   UNL     1     -40.377  60.023 -57.225  1.00  0.00     0.217 HD
ENDBRANCH  24  28
ENDBRANCH   9  22
BRANCH   7  30
HETATM   30  C   UNL     1     -41.337  53.848 -53.042  1.00  0.00     0.014 A 
HETATM   31  C   UNL     1     -41.389  53.219 -54.296  1.00  0.00     0.017 A 
HETATM   32  C   UNL     1     -40.679  52.038 -54.532  1.00  0.00     0.025 A 
HETATM   33  C   UNL     1     -39.908  51.481 -53.515  1.00  0.00     0.034 A 
HETATM   34 CL   UNL     1     -39.035  50.026 -53.803  1.00  0.00    -0.084 Cl
HETATM   35  C   UNL     1     -39.842  52.092 -52.265  1.00  0.00     0.025 A 
HETATM   36  C   UNL     1     -40.556  53.272 -52.028  1.00  0.00     0.017 A 
ENDBRANCH   7  30
TORSDOF 5
ENDMDL
MODEL 5
REMARK VINA RESULT:      -8.3      2.501      3.587
REMARK  5 active torsions:
REMARK  status: ('A' for Active; 'I' for Inactive)
REMARK    1  A    between atoms: C_7  and  C_8 
REMARK    2  A    between atoms: C_16  and  C_17 
REMARK    3  A    between atoms: C_19  and  O_20 
REMARK    4  A    between atoms: C_24  and  C_25 
REMARK       I    between atoms: C_25  and  N_26 
REMARK    5  A    between atoms: N_26  and  C_27 
ROOT
HETATM    1  C   UNL     1     -43.254  57.493 -58.021  1.00  0.00     0.070 C 
HETATM    2  C   UNL     1     -42.974  56.995 -56.623  1.00  0.00     0.037 C 
HETATM    3  N   UNL     1     -41.993  56.008 -56.518  1.00  0.00    -0.192 N 
HETATM    4  C   UNL     1     -41.796  55.296 -55.391  1.00  0.00     0.726 A 
HETATM    5  N   UNL     1     -42.431  55.680 -54.246  1.00  0.00    -0.083 N 
HETATM    6  N   UNL     1     -42.184  54.834 -53.230  1.00  0.00    -0.135 NA
HETATM    7  C   UNL     1     -41.337  53.965 -53.812  1.00  0.00     0.199 A 
HETATM    8  N   UNL     1     -41.090  54.223 -55.153  1.00  0.00    -0.041 NA
HETATM    9  C   UNL     1     -43.266  56.876 -54.133  1.00  0.00     0.202 C 
HETATM   10  C   UNL     1     -43.615  57.435 -55.510  1.00  0.00     0.062 C 
HETATM   11  H   UNL     1     -41.625  55.633 -57.390  1.00  0.00     0.184 HD
ENDROOT
BRANCH  10  12
HETATM   12  C   UNL     1     -44.828  58.298 -55.625  1.00  0.00     0.256 C 
HETATM   13  N   UNL     1     -44.597  59.639 -55.411  1.00  0.00    -0.323 N 
HETATM   14  H   UNL     1     -43.650  59.945 -55.236  1.00  0.00     0.169 HD
HETATM   15  O   UNL     1     -45.910  57.772 -55.856  1.00  0.00    -0.267 OA
BRANCH  13  16
HETATM   16  C   UNL     1     -45.552  60.680 -55.396  1.00  0.00     0.035 A 
HETATM   17  C   UNL     1     -46.168  61.196 -56.537  1.00  0.00     0.029 A 
HETATM   18  C   UNL     1     -47.104  62.230 -56.430  1.00  0.00     0.002 A 
HETATM   19  C   UNL     1     -47.439  62.748 -55.182  1.00  0.00     0.000 A 
HETATM   20  C   UNL     1     -46.832  62.240 -54.038  1.00  0.00     0.002 A 
HETATM   21  C   UNL     1     -45.888  61.215 -54.145  1.00  0.00     0.029 A 
ENDBRANCH  13  16
ENDBRANCH  10  12
BRANCH   9  22
HETATM   22  C   UNL     1     -42.550  57.885 -53.233  1.00  0.00    -0.025 A 
HETATM   23  C   UNL     1     -43.186  58.463 -52.117  1.00  0.00     0.046 A 
HETATM   24  C   UNL     1     -42.496  59.364 -51.311  1.00  0.00     0.066 A 
HETATM   25  C   UNL     1     -41.184  59.716 -51.597  1.00  0.00     0.036 A 
HETATM   26  C   UNL     1     -40.550  59.170 -52.711  1.00  0.00     0.003 A 
HETATM   27  C   UNL     1     -41.227  58.261 -53.525  1.00  0.00     0.010 A 
BRANCH  24  28
HETATM   28  O   UNL     1     -43.079  59.928 -50.216  1.00  0.00    -0.361 OA
HETATM   29  H   UNL     1     -43.612  60.690 -50.495  1.00  0.00     0.217 HD
ENDBRANCH  24  28
ENDBRANCH   9  22
BRANCH   7  30
HETATM   30  C   UNL     1     -40.720  52.845 -53.105  1.00  0.00     0.014 A 
HETATM   31  C   UNL     1     -40.280  51.710 -53.803  1.00  0.00     0.017 A 
HETATM   32  C   UNL     1     -39.699  50.634 -53.124  1.00  0.00     0.025 A 
HETATM   33  C   UNL     1     -39.551  50.691 -51.741  1.00  0.00     0.034 A 
HETATM   34 CL   UNL     1     -38.838  49.368 -50.903  1.00  0.00    -0.084 Cl
HETATM   35  C   UNL     1     -39.980  51.810 -51.031  1.00  0.00     0.025 A 
HETATM   36  C   UNL     1     -40.564  52.884 -51.711  1.00  0.00     0.017 A 
ENDBRANCH   7  30
TORSDOF 5
ENDMDL
MODEL 6
REMARK VINA RESULT:      -8.2      4.469      8.805
REMARK  5 active torsions:
REMARK  status: ('A' for Active; 'I' for Inactive)
REMARK    1  A    between atoms: C_7  and  C_8 
REMARK    2  A    between atoms: C_16  and  C_17 
REMARK    3  A    between atoms: C_19  and  O_20 
REMARK    4  A    between atoms: C_24  and  C_25 
REMARK       I    between atoms: C_25  and  N_26 
REMARK    5  A    between atoms: N_26  and  C_27 
ROOT
HETATM    1  C   UNL     1     -43.776  53.139 -56.180  1.00  0.00     0.070 C 
HETATM    2  C   UNL     1     -43.283  54.557 -56.021  1.00  0.00     0.037 C 
HETATM    3  N   UNL     1     -43.545  55.412 -57.092  1.00  0.00    -0.192 N 
HETATM    4  C   UNL     1     -42.971  56.626 -57.210  1.00  0.00     0.726 A 
HETATM    5  N   UNL     1     -42.267  57.131 -56.156  1.00  0.00    -0.083 N 
HETATM    6  N   UNL     1     -41.704  58.316 -56.453  1.00  0.00    -0.135 NA
HETATM    7  C   UNL     1     -42.148  58.510 -57.709  1.00  0.00     0.199 A 
HETATM    8  N   UNL     1     -42.924  57.473 -58.204  1.00  0.00    -0.041 NA
HETATM    9  C   UNL     1     -42.153  56.471 -54.855  1.00  0.00     0.202 C 
HETATM   10  C   UNL     1     -42.613  55.017 -54.933  1.00  0.00     0.062 C 
HETATM   11  H   UNL     1     -43.948  54.992 -57.927  1.00  0.00     0.184 HD
ENDROOT
BRANCH  10  12
HETATM   12  C   UNL     1     -42.107  54.069 -53.897  1.00  0.00     0.256 C 
HETATM   13  N   UNL     1     -41.107  53.228 -54.331  1.00  0.00    -0.323 N 
HETATM   14  H   UNL     1     -40.766  53.330 -55.277  1.00  0.00     0.169 HD
HETATM   15  O   UNL     1     -42.622  54.078 -52.785  1.00  0.00    -0.267 OA
BRANCH  13  16
HETATM   16  C   UNL     1     -40.480  52.196 -53.599  1.00  0.00     0.035 A 
HETATM   17  C   UNL     1     -40.001  52.337 -52.295  1.00  0.00     0.029 A 
HETATM   18  C   UNL     1     -39.391  51.260 -51.645  1.00  0.00     0.002 A 
HETATM   19  C   UNL     1     -39.264  50.031 -52.287  1.00  0.00     0.000 A 
HETATM   20  C   UNL     1     -39.739  49.879 -53.585  1.00  0.00     0.002 A 
HETATM   21  C   UNL     1     -40.338  50.958 -54.241  1.00  0.00     0.029 A 
ENDBRANCH  13  16
ENDBRANCH  10  12
BRANCH   9  22
HETATM   22  C   UNL     1     -42.923  57.296 -53.822  1.00  0.00    -0.025 A 
HETATM   23  C   UNL     1     -42.314  57.750 -52.636  1.00  0.00     0.046 A 
HETATM   24  C   UNL     1     -43.043  58.514 -51.728  1.00  0.00     0.066 A 
HETATM   25  C   UNL     1     -44.373  58.829 -51.968  1.00  0.00     0.036 A 
HETATM   26  C   UNL     1     -44.994  58.366 -53.126  1.00  0.00     0.003 A 
HETATM   27  C   UNL     1     -44.276  57.604 -54.048  1.00  0.00     0.010 A 
BRANCH  24  28
HETATM   28  O   UNL     1     -42.478  58.982 -50.580  1.00  0.00    -0.361 OA
HETATM   29  H   UNL     1     -43.169  59.090 -49.905  1.00  0.00     0.217 HD
ENDBRANCH  24  28
ENDBRANCH   9  22
BRANCH   7  30
HETATM   30  C   UNL     1     -41.850  59.706 -58.492  1.00  0.00     0.014 A 
HETATM   31  C   UNL     1     -42.090  59.737 -59.875  1.00  0.00     0.017 A 
HETATM   32  C   UNL     1     -41.795  60.879 -60.626  1.00  0.00     0.025 A 
HETATM   33  C   UNL     1     -41.261  62.000 -59.996  1.00  0.00     0.034 A 
HETATM   34 CL   UNL     1     -40.895  63.406 -60.918  1.00  0.00    -0.084 Cl
HETATM   35  C   UNL     1     -41.017  61.989 -58.624  1.00  0.00     0.025 A 
HETATM   36  C   UNL     1     -41.310  60.844 -57.874  1.00  0.00     0.017 A 
ENDBRANCH   7  30
TORSDOF 5
ENDMDL
MODEL 7
REMARK VINA RESULT:      -8.1      5.073      8.430
REMARK  5 active torsions:
REMARK  status: ('A' for Active; 'I' for Inactive)
REMARK    1  A    between atoms: C_7  and  C_8 
REMARK    2  A    between atoms: C_16  and  C_17 
REMARK    3  A    between atoms: C_19  and  O_20 
REMARK    4  A    between atoms: C_24  and  C_25 
REMARK       I    between atoms: C_25  and  N_26 
REMARK    5  A    between atoms: N_26  and  C_27 
ROOT
HETATM    1  C   UNL     1     -43.248  53.722 -55.825  1.00  0.00     0.070 C 
HETATM    2  C   UNL     1     -42.972  55.156 -56.208  1.00  0.00     0.037 C 
HETATM    3  N   UNL     1     -43.637  55.618 -57.344  1.00  0.00    -0.192 N 
HETATM    4  C   UNL     1     -43.321  56.780 -57.950  1.00  0.00     0.726 A 
HETATM    5  N   UNL     1     -42.463  57.639 -57.329  1.00  0.00    -0.083 N 
HETATM    6  N   UNL     1     -42.198  58.717 -58.088  1.00  0.00    -0.135 NA
HETATM    7  C   UNL     1     -42.976  58.480 -59.160  1.00  0.00     0.199 A 
HETATM    8  N   UNL     1     -43.672  57.282 -59.104  1.00  0.00    -0.041 NA
HETATM    9  C   UNL     1     -41.910  57.420 -55.991  1.00  0.00     0.202 C 
HETATM   10  C   UNL     1     -42.129  55.981 -55.534  1.00  0.00     0.062 C 
HETATM   11  H   UNL     1     -44.166  54.931 -57.877  1.00  0.00     0.184 HD
ENDROOT
BRANCH  10  12
HETATM   12  C   UNL     1     -41.225  55.440 -54.475  1.00  0.00     0.256 C 
HETATM   13  N   UNL     1     -41.807  55.322 -53.233  1.00  0.00    -0.323 N 
HETATM   14  H   UNL     1     -42.784  55.562 -53.131  1.00  0.00     0.169 HD
HETATM   15  O   UNL     1     -40.062  55.184 -54.763  1.00  0.00    -0.267 OA
BRANCH  13  16
HETATM   16  C   UNL     1     -41.189  54.899 -52.036  1.00  0.00     0.035 A 
HETATM   17  C   UNL     1     -40.566  53.661 -51.868  1.00  0.00     0.029 A 
HETATM   18  C   UNL     1     -39.978  53.325 -50.644  1.00  0.00     0.002 A 
HETATM   19  C   UNL     1     -39.999  54.225 -49.583  1.00  0.00     0.000 A 
HETATM   20  C   UNL     1     -40.614  55.463 -49.740  1.00  0.00     0.002 A 
HETATM   21  C   UNL     1     -41.213  55.796 -50.958  1.00  0.00     0.029 A 
ENDBRANCH  13  16
ENDBRANCH  10  12
BRANCH   9  22
HETATM   22  C   UNL     1     -42.513  58.457 -55.041  1.00  0.00    -0.025 A 
HETATM   23  C   UNL     1     -43.907  58.611 -54.901  1.00  0.00     0.046 A 
HETATM   24  C   UNL     1     -44.417  59.554 -54.014  1.00  0.00     0.066 A 
HETATM   25  C   UNL     1     -43.571  60.361 -53.266  1.00  0.00     0.036 A 
HETATM   26  C   UNL     1     -42.191  60.236 -53.412  1.00  0.00     0.003 A 
HETATM   27  C   UNL     1     -41.664  59.292 -54.294  1.00  0.00     0.010 A 
BRANCH  24  28
HETATM   28  O   UNL     1     -45.759  59.715 -53.844  1.00  0.00    -0.361 OA
HETATM   29  H   UNL     1     -46.158  58.860 -53.613  1.00  0.00     0.217 HD
ENDBRANCH  24  28
ENDBRANCH   9  22
BRANCH   7  30
HETATM   30  C   UNL     1     -43.091  59.399 -60.290  1.00  0.00     0.014 A 
HETATM   31  C   UNL     1     -41.948  59.979 -60.863  1.00  0.00     0.017 A 
HETATM   32  C   UNL     1     -42.059  60.866 -61.938  1.00  0.00     0.025 A 
HETATM   33  C   UNL     1     -43.318  61.177 -62.449  1.00  0.00     0.034 A 
HETATM   34 CL   UNL     1     -43.457  62.270 -63.770  1.00  0.00    -0.084 Cl
HETATM   35  C   UNL     1     -44.463  60.611 -61.894  1.00  0.00     0.025 A 
HETATM   36  C   UNL     1     -44.350  59.725 -60.816  1.00  0.00     0.017 A 
ENDBRANCH   7  30
TORSDOF 5
ENDMDL
MODEL 8
REMARK VINA RESULT:      -7.9      3.700      9.127
REMARK  5 active torsions:
REMARK  status: ('A' for Active; 'I' for Inactive)
REMARK    1  A    between atoms: C_7  and  C_8 
REMARK    2  A    between atoms: C_16  and  C_17 
REMARK    3  A    between atoms: C_19  and  O_20 
REMARK    4  A    between atoms: C_24  and  C_25 
REMARK       I    between atoms: C_25  and  N_26 
REMARK    5  A    between atoms: N_26  and  C_27 
ROOT
HETATM    1  C   UNL     1     -39.305  58.535 -52.694  1.00  0.00     0.070 C 
HETATM    2  C   UNL     1     -40.776  58.775 -52.449  1.00  0.00     0.037 C 
HETATM    3  N   UNL     1     -41.087  59.897 -51.681  1.00  0.00    -0.192 N 
HETATM    4  C   UNL     1     -42.317  60.115 -51.177  1.00  0.00     0.726 A 
HETATM    5  N   UNL     1     -43.352  59.327 -51.590  1.00  0.00    -0.083 N 
HETATM    6  N   UNL     1     -44.495  59.627 -50.948  1.00  0.00    -0.135 NA
HETATM    7  C   UNL     1     -44.101  60.657 -50.177  1.00  0.00     0.199 A 
HETATM    8  N   UNL     1     -42.755  60.971 -50.292  1.00  0.00    -0.041 NA
HETATM    9  C   UNL     1     -43.233  58.292 -52.618  1.00  0.00     0.202 C 
HETATM   10  C   UNL     1     -41.770  57.973 -52.912  1.00  0.00     0.062 C 
HETATM   11  H   UNL     1     -40.305  60.399 -51.265  1.00  0.00     0.184 HD
ENDROOT
BRANCH  10  12
HETATM   12  C   UNL     1     -41.454  56.645 -53.516  1.00  0.00     0.256 C 
HETATM   13  N   UNL     1     -41.131  55.665 -52.604  1.00  0.00    -0.323 N 
HETATM   14  H   UNL     1     -41.166  55.890 -51.619  1.00  0.00     0.169 HD
HETATM   15  O   UNL     1     -41.465  56.530 -54.735  1.00  0.00    -0.267 OA
BRANCH  13  16
HETATM   16  C   UNL     1     -40.734  54.338 -52.878  1.00  0.00     0.035 A 
HETATM   17  C   UNL     1     -40.711  53.773 -54.155  1.00  0.00     0.029 A 
HETATM   18  C   UNL     1     -40.303  52.448 -54.335  1.00  0.00     0.002 A 
HETATM   19  C   UNL     1     -39.904  51.680 -53.245  1.00  0.00     0.000 A 
HETATM   20  C   UNL     1     -39.920  52.233 -51.968  1.00  0.00     0.002 A 
HETATM   21  C   UNL     1     -40.340  53.554 -51.785  1.00  0.00     0.029 A 
ENDBRANCH  13  16
ENDBRANCH  10  12
BRANCH   9  22
HETATM   22  C   UNL     1     -44.016  58.743 -53.853  1.00  0.00    -0.025 A 
HETATM   23  C   UNL     1     -44.963  57.907 -54.475  1.00  0.00     0.046 A 
HETATM   24  C   UNL     1     -45.668  58.359 -55.587  1.00  0.00     0.066 A 
HETATM   25  C   UNL     1     -45.443  59.627 -56.105  1.00  0.00     0.036 A 
HETATM   26  C   UNL     1     -44.493  60.457 -55.514  1.00  0.00     0.003 A 
HETATM   27  C   UNL     1     -43.782  60.019 -54.396  1.00  0.00     0.010 A 
BRANCH  24  28
HETATM   28  O   UNL     1     -46.601  57.580 -56.202  1.00  0.00    -0.361 OA
HETATM   29  H   UNL     1     -46.197  56.733 -56.450  1.00  0.00     0.217 HD
ENDBRANCH  24  28
ENDBRANCH   9  22
BRANCH   7  30
HETATM   30  C   UNL     1     -45.004  61.394 -49.296  1.00  0.00     0.014 A 
HETATM   31  C   UNL     1     -44.787  61.423 -47.909  1.00  0.00     0.017 A 
HETATM   32  C   UNL     1     -45.657  62.119 -47.065  1.00  0.00     0.025 A 
HETATM   33  C   UNL     1     -46.749  62.795 -47.605  1.00  0.00     0.034 A 
HETATM   34 CL   UNL     1     -47.822  63.651 -46.567  1.00  0.00    -0.084 Cl
HETATM   35  C   UNL     1     -46.979  62.779 -48.978  1.00  0.00     0.025 A 
HETATM   36  C   UNL     1     -46.109  62.079 -49.822  1.00  0.00     0.017 A 
ENDBRANCH   7  30
TORSDOF 5
ENDMDL
MODEL 9
REMARK VINA RESULT:      -7.8      4.623      8.057
REMARK  5 active torsions:
REMARK  status: ('A' for Active; 'I' for Inactive)
REMARK    1  A    between atoms: C_7  and  C_8 
REMARK    2  A    between atoms: C_16  and  C_17 
REMARK    3  A    between atoms: C_19  and  O_20 
REMARK    4  A    between atoms: C_24  and  C_25 
REMARK       I    between atoms: C_25  and  N_26 
REMARK    5  A    between atoms: N_26  and  C_27 
ROOT
HETATM    1  C   UNL     1     -43.219  54.152 -55.480  1.00  0.00     0.070 C 
HETATM    2  C   UNL     1     -42.871  55.620 -55.427  1.00  0.00     0.037 C 
HETATM    3  N   UNL     1     -43.366  56.398 -56.474  1.00  0.00    -0.192 N 
HETATM    4  C   UNL     1     -42.952  57.659 -56.702  1.00  0.00     0.726 A 
HETATM    5  N   UNL     1     -42.174  58.280 -55.769  1.00  0.00    -0.083 N 
HETATM    6  N   UNL     1     -41.791  59.504 -56.173  1.00  0.00    -0.135 NA
HETATM    7  C   UNL     1     -42.417  59.598 -57.360  1.00  0.00     0.199 A 
HETATM    8  N   UNL     1     -43.133  58.464 -57.716  1.00  0.00    -0.041 NA
HETATM    9  C   UNL     1     -41.814  57.690 -54.479  1.00  0.00     0.202 C 
HETATM   10  C   UNL     1     -42.116  56.194 -54.455  1.00  0.00     0.062 C 
HETATM   11  H   UNL     1     -43.828  55.902 -57.235  1.00  0.00     0.184 HD
ENDROOT
BRANCH  10  12
HETATM   12  C   UNL     1     -41.374  55.349 -53.472  1.00  0.00     0.256 C 
HETATM   13  N   UNL     1     -41.943  55.297 -52.219  1.00  0.00    -0.323 N 
HETATM   14  H   UNL     1     -42.815  55.785 -52.063  1.00  0.00     0.169 HD
HETATM   15  O   UNL     1     -40.331  54.810 -53.822  1.00  0.00    -0.267 OA
BRANCH  13  16
HETATM   16  C   UNL     1     -41.442  54.632 -51.079  1.00  0.00     0.035 A 
HETATM   17  C   UNL     1     -40.941  53.329 -51.086  1.00  0.00     0.029 A 
HETATM   18  C   UNL     1     -40.464  52.747 -49.908  1.00  0.00     0.002 A 
HETATM   19  C   UNL     1     -40.473  53.466 -48.715  1.00  0.00     0.000 A 
HETATM   20  C   UNL     1     -40.968  54.766 -48.696  1.00  0.00     0.002 A 
HETATM   21  C   UNL     1     -41.457  55.344 -49.871  1.00  0.00     0.029 A 
ENDBRANCH  13  16
ENDBRANCH  10  12
BRANCH   9  22
HETATM   22  C   UNL     1     -42.525  58.471 -53.373  1.00  0.00    -0.025 A 
HETATM   23  C   UNL     1     -41.808  59.183 -52.391  1.00  0.00     0.046 A 
HETATM   24  C   UNL     1     -42.492  59.897 -51.411  1.00  0.00     0.066 A 
HETATM   25  C   UNL     1     -43.879  59.909 -51.375  1.00  0.00     0.036 A 
HETATM   26  C   UNL     1     -44.601  59.190 -52.325  1.00  0.00     0.003 A 
HETATM   27  C   UNL     1     -43.930  58.474 -53.318  1.00  0.00     0.010 A 
BRANCH  24  28
HETATM   28  O   UNL     1     -41.827  60.608 -50.458  1.00  0.00    -0.361 OA
HETATM   29  H   UNL     1     -40.900  60.715 -50.726  1.00  0.00     0.217 HD
ENDBRANCH  24  28
ENDBRANCH   9  22
BRANCH   7  30
HETATM   30  C   UNL     1     -42.361  60.786 -58.208  1.00  0.00     0.014 A 
HETATM   31  C   UNL     1     -43.489  61.204 -58.932  1.00  0.00     0.017 A 
HETATM   32  C   UNL     1     -43.432  62.335 -59.753  1.00  0.00     0.025 A 
HETATM   33  C   UNL     1     -42.245  63.058 -59.850  1.00  0.00     0.034 A 
HETATM   34 CL   UNL     1     -42.172  64.449 -60.860  1.00  0.00    -0.084 Cl
HETATM   35  C   UNL     1     -41.116  62.658 -59.138  1.00  0.00     0.025 A 
HETATM   36  C   UNL     1     -41.174  61.525 -58.320  1.00  0.00     0.017 A 
ENDBRANCH   7  30
TORSDOF 5
ENDMDL
MODEL 10
REMARK VINA RESULT:      -7.6      4.090      5.452
REMARK  5 active torsions:
REMARK  status: ('A' for Active; 'I' for Inactive)
REMARK    1  A    between atoms: C_7  and  C_8 
REMARK    2  A    between atoms: C_16  and  C_17 
REMARK    3  A    between atoms: C_19  and  O_20 
REMARK    4  A    between atoms: C_24  and  C_25 
REMARK       I    between atoms: C_25  and  N_26 
REMARK    5  A    between atoms: N_26  and  C_27 
ROOT
HETATM    1  C   UNL     1     -42.871  63.245 -53.314  1.00  0.00     0.070 C 
HETATM    2  C   UNL     1     -43.356  61.852 -53.635  1.00  0.00     0.037 C 
HETATM    3  N   UNL     1     -42.947  61.337 -54.865  1.00  0.00    -0.192 N 
HETATM    4  C   UNL     1     -43.480  60.221 -55.400  1.00  0.00     0.726 A 
HETATM    5  N   UNL     1     -44.304  59.448 -54.635  1.00  0.00    -0.083 N 
HETATM    6  N   UNL     1     -44.805  58.411 -55.330  1.00  0.00    -0.135 NA
HETATM    7  C   UNL     1     -44.202  58.578 -56.522  1.00  0.00     0.199 A 
HETATM    8  N   UNL     1     -43.386  59.698 -56.594  1.00  0.00    -0.041 NA
HETATM    9  C   UNL     1     -44.594  59.707 -53.224  1.00  0.00     0.202 C 
HETATM   10  C   UNL     1     -44.152  61.111 -52.820  1.00  0.00     0.062 C 
HETATM   11  H   UNL     1     -42.448  61.972 -55.485  1.00  0.00     0.184 HD
ENDROOT
BRANCH  10  12
HETATM   12  C   UNL     1     -44.800  61.730 -51.626  1.00  0.00     0.256 C 
HETATM   13  N   UNL     1     -44.054  61.663 -50.472  1.00  0.00    -0.323 N 
HETATM   14  H   UNL     1     -43.132  61.249 -50.514  1.00  0.00     0.169 HD
HETATM   15  O   UNL     1     -45.924  62.204 -51.741  1.00  0.00    -0.267 OA
BRANCH  13  16
HETATM   16  C   UNL     1     -44.427  62.107 -49.184  1.00  0.00     0.035 A 
HETATM   17  C   UNL     1     -44.397  63.441 -48.774  1.00  0.00     0.029 A 
HETATM   18  C   UNL     1     -44.785  63.791 -47.477  1.00  0.00     0.002 A 
HETATM   19  C   UNL     1     -45.216  62.815 -46.583  1.00  0.00     0.000 A 
HETATM   20  C   UNL     1     -45.252  61.482 -46.982  1.00  0.00     0.002 A 
HETATM   21  C   UNL     1     -44.852  61.128 -48.274  1.00  0.00     0.029 A 
ENDBRANCH  13  16
ENDBRANCH  10  12
BRANCH   9  22
HETATM   22  C   UNL     1     -43.948  58.603 -52.385  1.00  0.00    -0.025 A 
HETATM   23  C   UNL     1     -44.716  57.595 -51.769  1.00  0.00     0.046 A 
HETATM   24  C   UNL     1     -44.090  56.597 -51.028  1.00  0.00     0.066 A 
HETATM   25  C   UNL     1     -42.711  56.584 -50.872  1.00  0.00     0.036 A 
HETATM   26  C   UNL     1     -41.940  57.587 -51.456  1.00  0.00     0.003 A 
HETATM   27  C   UNL     1     -42.553  58.591 -52.207  1.00  0.00     0.010 A 
BRANCH  24  28
HETATM   28  O   UNL     1     -44.804  55.600 -50.434  1.00  0.00    -0.361 OA
HETATM   29  H   UNL     1     -44.962  54.892 -51.079  1.00  0.00     0.217 HD
ENDBRANCH  24  28
ENDBRANCH   9  22
BRANCH   7  30
HETATM   30  C   UNL     1     -44.378  57.665 -57.648  1.00  0.00     0.014 A 
HETATM   31  C   UNL     1     -45.496  57.770 -58.489  1.00  0.00     0.017 A 
HETATM   32  C   UNL     1     -45.670  56.889 -59.561  1.00  0.00     0.025 A 
HETATM   33  C   UNL     1     -44.720  55.899 -59.800  1.00  0.00     0.034 A 
HETATM   34 CL   UNL     1     -44.932  54.812 -61.117  1.00  0.00    -0.084 Cl
HETATM   35  C   UNL     1     -43.602  55.780 -58.977  1.00  0.00     0.025 A 
HETATM   36  C   UNL     1     -43.432  56.661 -57.903  1.00  0.00     0.017 A 
ENDBRANCH   7  30
TORSDOF 5
ENDMDL
