MODEL 1
REMARK VINA RESULT:      -8.2      0.000      0.000
REMARK  8 active torsions:
REMARK  status: ('A' for Active; 'I' for Inactive)
REMARK       I    between atoms: N_2  and  C_3 
REMARK    1  A    between atoms: N_2  and  C_29 
REMARK    2  A    between atoms: C_3  and  C_4 
REMARK    3  A    between atoms: C_7  and  C_8 
REMARK       I    between atoms: C_8  and  N_9 
REMARK    4  A    between atoms: N_9  and  C_10 
REMARK    5  A    between atoms: N_20  and  C_21 
REMARK    6  A    between atoms: C_21  and  C_22 
REMARK    7  A    between atoms: C_29  and  C_30 
REMARK    8  A    between atoms: C_30  and  C_31 
ROOT
HETATM    1  C   UNL     1     -44.529  57.771 -53.949  1.00  0.00     0.098 C 
HETATM    2  C   UNL     1     -43.544  56.684 -53.744  1.00  0.00     0.206 C 
HETATM    3  O   UNL     1     -42.803  56.300 -54.649  1.00  0.00    -0.286 OA
HETATM    4  C   UNL     1     -43.494  56.038 -52.400  1.00  0.00     0.098 C 
HETATM    5  C   UNL     1     -44.114  56.684 -51.395  1.00  0.00     0.111 C 
HETATM    6  N   UNL     1     -44.851  57.855 -51.546  1.00  0.00    -0.362 N 
HETATM    7  C   UNL     1     -45.069  58.311 -52.843  1.00  0.00     0.111 C 
ENDROOT
BRANCH   1   8
HETATM    8  C   UNL     1     -44.940  58.355 -55.247  1.00  0.00     0.258 C 
HETATM    9  N   UNL     1     -44.170  59.361 -55.829  1.00  0.00    -0.352 N 
HETATM   10  C   UNL     1     -44.539  59.771 -57.178  1.00  0.00     0.152 C 
HETATM   11  O   UNL     1     -45.887  57.831 -55.842  1.00  0.00    -0.267 OA
BRANCH   9  12
HETATM   12  C   UNL     1     -43.240  60.274 -55.139  1.00  0.00     0.131 C 
BRANCH  12  13
HETATM   13  C   UNL     1     -41.795  59.796 -54.996  1.00  0.00     0.079 C 
BRANCH  13  14
HETATM   14  C   UNL     1     -41.372  59.646 -53.561  1.00  0.00     0.035 A 
HETATM   15  N   UNL     1     -40.197  59.010 -53.335  1.00  0.00    -0.266 NA
HETATM   16  C   UNL     1     -39.790  58.901 -52.052  1.00  0.00     0.117 A 
HETATM   17  C   UNL     1     -40.504  59.393 -50.973  1.00  0.00     0.019 A 
HETATM   18  C   UNL     1     -41.713  60.031 -51.223  1.00  0.00     0.003 A 
HETATM   19  C   UNL     1     -42.159  60.158 -52.534  1.00  0.00     0.027 A 
ENDBRANCH  13  14
ENDBRANCH  12  13
ENDBRANCH   9  12
ENDBRANCH   1   8
BRANCH   4  20
HETATM   20  C   UNL     1     -42.878  54.708 -52.138  1.00  0.00     0.257 C 
HETATM   21  N   UNL     1     -41.695  54.493 -52.800  1.00  0.00    -0.352 N 
HETATM   22  H   UNL     1     -41.241  55.293 -53.241  1.00  0.00     0.163 HD
HETATM   23  O   UNL     1     -43.433  53.861 -51.444  1.00  0.00    -0.267 OA
BRANCH  21  24
HETATM   24  C   UNL     1     -40.984  53.214 -52.832  1.00  0.00     0.084 C 
HETATM   25  C   UNL     1     -40.404  53.052 -54.245  1.00  0.00     0.025 C 
HETATM   26  C   UNL     1     -39.691  51.747 -54.595  1.00  0.00     0.002 C 
HETATM   27  C   UNL     1     -40.380  50.473 -54.108  1.00  0.00     0.000 C 
HETATM   28  C   UNL     1     -39.749  49.852 -52.861  1.00  0.00     0.000 C 
HETATM   29  C   UNL     1     -39.909  50.628 -51.552  1.00  0.00     0.000 C 
HETATM   30  C   UNL     1     -39.125  51.939 -51.493  1.00  0.00     0.002 C 
HETATM   31  C   UNL     1     -39.957  53.206 -51.695  1.00  0.00     0.025 C 
ENDBRANCH  21  24
ENDBRANCH   4  20
BRANCH   6  32
HETATM   32  C   UNL     1     -45.364  58.610 -50.379  1.00  0.00     0.159 C 
BRANCH  32  33
HETATM   33  C   UNL     1     -45.277  60.138 -50.515  1.00  0.00     0.139 C 
HETATM   34  O   UNL     1     -46.548  60.731 -50.849  1.00  0.00    -0.384 OA
HETATM   35  C   UNL     1     -46.527  62.065 -50.333  1.00  0.00     0.168 C 
HETATM   36  C   UNL     1     -45.764  61.968 -49.035  1.00  0.00     0.029 C 
HETATM   37  C   UNL     1     -44.731  60.897 -49.309  1.00  0.00     0.035 C 
ENDBRANCH  32  33
ENDBRANCH   6  32
TORSDOF 8
ENDMDL
MODEL 2
REMARK VINA RESULT:      -8.0      1.539      4.387
REMARK  8 active torsions:
REMARK  status: ('A' for Active; 'I' for Inactive)
REMARK       I    between atoms: N_2  and  C_3 
REMARK    1  A    between atoms: N_2  and  C_29 
REMARK    2  A    between atoms: C_3  and  C_4 
REMARK    3  A    between atoms: C_7  and  C_8 
REMARK       I    between atoms: C_8  and  N_9 
REMARK    4  A    between atoms: N_9  and  C_10 
REMARK    5  A    between atoms: N_20  and  C_21 
REMARK    6  A    between atoms: C_21  and  C_22 
REMARK    7  A    between atoms: C_29  and  C_30 
REMARK    8  A    between atoms: C_30  and  C_31 
ROOT
HETATM    1  C   UNL     1     -45.143  58.964 -51.510  1.00  0.00     0.098 C 
HETATM    2  C   UNL     1     -44.810  57.532 -51.699  1.00  0.00     0.206 C 
HETATM    3  O   UNL     1     -44.860  56.726 -50.771  1.00  0.00    -0.286 OA
HETATM    4  C   UNL     1     -44.379  57.095 -53.059  1.00  0.00     0.098 C 
HETATM    5  C   UNL     1     -44.620  57.947 -54.073  1.00  0.00     0.111 C 
HETATM    6  N   UNL     1     -45.165  59.219 -53.922  1.00  0.00    -0.362 N 
HETATM    7  C   UNL     1     -45.346  59.687 -52.624  1.00  0.00     0.111 C 
ENDROOT
BRANCH   1   8
HETATM    8  C   UNL     1     -45.322  59.663 -50.217  1.00  0.00     0.258 C 
HETATM    9  N   UNL     1     -44.710  60.899 -50.008  1.00  0.00    -0.352 N 
HETATM   10  C   UNL     1     -45.062  61.605 -48.782  1.00  0.00     0.152 C 
HETATM   11  O   UNL     1     -46.125  59.188 -49.409  1.00  0.00    -0.267 OA
BRANCH   9  12
HETATM   12  C   UNL     1     -43.525  61.429 -50.706  1.00  0.00     0.131 C 
BRANCH  12  13
HETATM   13  C   UNL     1     -42.184  60.781 -50.362  1.00  0.00     0.079 C 
BRANCH  13  14
HETATM   14  C   UNL     1     -41.654  59.917 -51.472  1.00  0.00     0.035 A 
HETATM   15  N   UNL     1     -41.940  60.307 -52.738  1.00  0.00    -0.266 NA
HETATM   16  C   UNL     1     -41.440  59.558 -53.744  1.00  0.00     0.117 A 
HETATM   17  C   UNL     1     -40.666  58.426 -53.549  1.00  0.00     0.019 A 
HETATM   18  C   UNL     1     -40.393  58.034 -52.244  1.00  0.00     0.003 A 
HETATM   19  C   UNL     1     -40.896  58.785 -51.188  1.00  0.00     0.027 A 
ENDBRANCH  13  14
ENDBRANCH  12  13
ENDBRANCH   9  12
ENDBRANCH   1   8
BRANCH   4  20
HETATM   20  C   UNL     1     -43.642  55.831 -53.332  1.00  0.00     0.257 C 
HETATM   21  N   UNL     1     -42.645  55.552 -52.431  1.00  0.00    -0.352 N 
HETATM   22  H   UNL     1     -42.614  56.095 -51.568  1.00  0.00     0.163 HD
HETATM   23  O   UNL     1     -43.873  55.147 -54.325  1.00  0.00    -0.267 OA
BRANCH  21  24
HETATM   24  C   UNL     1     -41.682  54.458 -52.573  1.00  0.00     0.084 C 
HETATM   25  C   UNL     1     -40.958  54.661 -53.912  1.00  0.00     0.025 C 
HETATM   26  C   UNL     1     -39.960  53.600 -54.369  1.00  0.00     0.002 C 
HETATM   27  C   UNL     1     -40.408  52.152 -54.174  1.00  0.00     0.000 C 
HETATM   28  C   UNL     1     -39.774  51.453 -52.970  1.00  0.00     0.000 C 
HETATM   29  C   UNL     1     -40.208  51.942 -51.586  1.00  0.00     0.000 C 
HETATM   30  C   UNL     1     -39.724  53.347 -51.230  1.00  0.00     0.002 C 
HETATM   31  C   UNL     1     -40.781  54.447 -51.334  1.00  0.00     0.025 C 
ENDBRANCH  21  24
ENDBRANCH   4  20
BRANCH   6  32
HETATM   32  C   UNL     1     -45.564  60.040 -55.089  1.00  0.00     0.159 C 
BRANCH  32  33
HETATM   33  C   UNL     1     -44.950  59.594 -56.426  1.00  0.00     0.139 C 
HETATM   34  O   UNL     1     -45.896  58.888 -57.254  1.00  0.00    -0.384 OA
HETATM   35  C   UNL     1     -45.490  59.094 -58.609  1.00  0.00     0.168 C 
HETATM   36  C   UNL     1     -44.967  60.509 -58.649  1.00  0.00     0.029 C 
HETATM   37  C   UNL     1     -44.330  60.690 -57.288  1.00  0.00     0.035 C 
ENDBRANCH  32  33
ENDBRANCH   6  32
TORSDOF 8
ENDMDL
MODEL 3
REMARK VINA RESULT:      -7.9      2.380      8.083
REMARK  8 active torsions:
REMARK  status: ('A' for Active; 'I' for Inactive)
REMARK       I    between atoms: N_2  and  C_3 
REMARK    1  A    between atoms: N_2  and  C_29 
REMARK    2  A    between atoms: C_3  and  C_4 
REMARK    3  A    between atoms: C_7  and  C_8 
REMARK       I    between atoms: C_8  and  N_9 
REMARK    4  A    between atoms: N_9  and  C_10 
REMARK    5  A    between atoms: N_20  and  C_21 
REMARK    6  A    between atoms: C_21  and  C_22 
REMARK    7  A    between atoms: C_29  and  C_30 
REMARK    8  A    between atoms: C_30  and  C_31 
ROOT
HETATM    1  C   UNL     1     -43.032  58.203 -53.468  1.00  0.00     0.098 C 
HETATM    2  C   UNL     1     -44.217  58.869 -52.878  1.00  0.00     0.206 C 
HETATM    3  O   UNL     1     -44.845  59.734 -53.487  1.00  0.00    -0.286 OA
HETATM    4  C   UNL     1     -44.615  58.477 -51.495  1.00  0.00     0.098 C 
HETATM    5  C   UNL     1     -44.075  57.345 -51.007  1.00  0.00     0.111 C 
HETATM    6  N   UNL     1     -43.126  56.575 -51.672  1.00  0.00    -0.362 N 
HETATM    7  C   UNL     1     -42.606  57.083 -52.859  1.00  0.00     0.111 C 
ENDROOT
BRANCH   1   8
HETATM    8  C   UNL     1     -42.303  58.619 -54.688  1.00  0.00     0.258 C 
HETATM    9  N   UNL     1     -42.777  58.236 -55.942  1.00  0.00    -0.352 N 
HETATM   10  C   UNL     1     -42.109  58.817 -57.100  1.00  0.00     0.152 C 
HETATM   11  O   UNL     1     -41.367  59.413 -54.558  1.00  0.00    -0.267 OA
BRANCH   9  12
HETATM   12  C   UNL     1     -43.649  57.087 -56.246  1.00  0.00     0.131 C 
BRANCH  12  13
HETATM   13  C   UNL     1     -42.971  55.857 -56.849  1.00  0.00     0.079 C 
BRANCH  13  14
HETATM   14  C   UNL     1     -42.229  55.042 -55.826  1.00  0.00     0.035 A 
HETATM   15  N   UNL     1     -40.942  55.393 -55.584  1.00  0.00    -0.266 NA
HETATM   16  C   UNL     1     -40.277  54.691 -54.642  1.00  0.00     0.117 A 
HETATM   17  C   UNL     1     -40.833  53.644 -53.926  1.00  0.00     0.019 A 
HETATM   18  C   UNL     1     -42.149  53.291 -54.196  1.00  0.00     0.003 A 
HETATM   19  C   UNL     1     -42.860  53.995 -55.162  1.00  0.00     0.027 A 
ENDBRANCH  13  14
ENDBRANCH  12  13
ENDBRANCH   9  12
ENDBRANCH   1   8
BRANCH   4  20
HETATM   20  C   UNL     1     -45.496  59.298 -50.619  1.00  0.00     0.257 C 
HETATM   21  N   UNL     1     -45.096  60.604 -50.479  1.00  0.00    -0.352 N 
HETATM   22  H   UNL     1     -44.378  60.955 -51.113  1.00  0.00     0.163 HD
HETATM   23  O   UNL     1     -46.452  58.812 -50.022  1.00  0.00    -0.267 OA
BRANCH  21  24
HETATM   24  C   UNL     1     -45.701  61.562 -49.551  1.00  0.00     0.084 C 
HETATM   25  C   UNL     1     -44.845  61.559 -48.275  1.00  0.00     0.025 C 
HETATM   26  C   UNL     1     -45.307  62.400 -47.087  1.00  0.00     0.002 C 
HETATM   27  C   UNL     1     -46.802  62.328 -46.775  1.00  0.00     0.000 C 
HETATM   28  C   UNL     1     -47.604  63.540 -47.251  1.00  0.00     0.000 C 
HETATM   29  C   UNL     1     -47.765  63.706 -48.763  1.00  0.00     0.000 C 
HETATM   30  C   UNL     1     -46.476  64.065 -49.502  1.00  0.00     0.002 C 
HETATM   31  C   UNL     1     -45.817  62.913 -50.262  1.00  0.00     0.025 C 
ENDBRANCH  21  24
ENDBRANCH   4  20
BRANCH   6  32
HETATM   32  C   UNL     1     -42.697  55.252 -51.159  1.00  0.00     0.159 C 
BRANCH  32  33
HETATM   33  C   UNL     1     -41.726  55.310 -49.969  1.00  0.00     0.139 C 
HETATM   34  O   UNL     1     -41.898  54.200 -49.067  1.00  0.00    -0.384 OA
HETATM   35  C   UNL     1     -40.635  53.985 -48.432  1.00  0.00     0.168 C 
HETATM   36  C   UNL     1     -39.609  54.272 -49.501  1.00  0.00     0.029 C 
HETATM   37  C   UNL     1     -40.240  55.385 -50.309  1.00  0.00     0.035 C 
ENDBRANCH  32  33
ENDBRANCH   6  32
TORSDOF 8
ENDMDL
MODEL 4
REMARK VINA RESULT:      -7.7      2.505      5.432
REMARK  8 active torsions:
REMARK  status: ('A' for Active; 'I' for Inactive)
REMARK       I    between atoms: N_2  and  C_3 
REMARK    1  A    between atoms: N_2  and  C_29 
REMARK    2  A    between atoms: C_3  and  C_4 
REMARK    3  A    between atoms: C_7  and  C_8 
REMARK       I    between atoms: C_8  and  N_9 
REMARK    4  A    between atoms: N_9  and  C_10 
REMARK    5  A    between atoms: N_20  and  C_21 
REMARK    6  A    between atoms: C_21  and  C_22 
REMARK    7  A    between atoms: C_29  and  C_30 
REMARK    8  A    between atoms: C_30  and  C_31 
ROOT
HETATM    1  C   UNL     1     -43.865  59.003 -56.167  1.00  0.00     0.098 C 
HETATM    2  C   UNL     1     -44.020  57.770 -55.359  1.00  0.00     0.206 C 
HETATM    3  O   UNL     1     -44.725  57.739 -54.352  1.00  0.00    -0.286 OA
HETATM    4  C   UNL     1     -43.263  56.559 -55.791  1.00  0.00     0.098 C 
HETATM    5  C   UNL     1     -42.750  56.577 -57.035  1.00  0.00     0.111 C 
HETATM    6  N   UNL     1     -42.815  57.667 -57.899  1.00  0.00    -0.362 N 
HETATM    7  C   UNL     1     -43.326  58.857 -57.390  1.00  0.00     0.111 C 
ENDROOT
BRANCH   1   8
HETATM    8  C   UNL     1     -44.289  60.368 -55.782  1.00  0.00     0.258 C 
HETATM    9  N   UNL     1     -43.477  61.135 -54.947  1.00  0.00    -0.352 N 
HETATM   10  C   UNL     1     -43.872  62.523 -54.744  1.00  0.00     0.152 C 
HETATM   11  O   UNL     1     -45.291  60.837 -56.327  1.00  0.00    -0.267 OA
BRANCH   9  12
HETATM   12  C   UNL     1     -42.461  60.639 -54.001  1.00  0.00     0.131 C 
BRANCH  12  13
HETATM   13  C   UNL     1     -42.885  60.536 -52.536  1.00  0.00     0.079 C 
BRANCH  13  14
HETATM   14  C   UNL     1     -42.206  59.406 -51.813  1.00  0.00     0.035 A 
HETATM   15  N   UNL     1     -42.944  58.289 -51.598  1.00  0.00    -0.266 NA
HETATM   16  C   UNL     1     -42.334  57.255 -50.981  1.00  0.00     0.117 A 
HETATM   17  C   UNL     1     -41.016  57.279 -50.559  1.00  0.00     0.019 A 
HETATM   18  C   UNL     1     -40.279  58.437 -50.776  1.00  0.00     0.003 A 
HETATM   19  C   UNL     1     -40.880  59.519 -51.407  1.00  0.00     0.027 A 
ENDBRANCH  13  14
ENDBRANCH  12  13
ENDBRANCH   9  12
ENDBRANCH   1   8
BRANCH   4  20
HETATM   20  C   UNL     1     -42.984  55.394 -54.907  1.00  0.00     0.257 C 
HETATM   21  N   UNL     1     -41.675  55.285 -54.510  1.00  0.00    -0.352 N 
HETATM   22  H   UNL     1     -41.058  56.082 -54.672  1.00  0.00     0.163 HD
HETATM   23  O   UNL     1     -43.850  54.569 -54.629  1.00  0.00    -0.267 OA
BRANCH  21  24
HETATM   24  C   UNL     1     -41.123  54.145 -53.775  1.00  0.00     0.084 C 
HETATM   25  C   UNL     1     -41.794  54.127 -52.394  1.00  0.00     0.025 C 
HETATM   26  C   UNL     1     -41.328  53.094 -51.371  1.00  0.00     0.002 C 
HETATM   27  C   UNL     1     -39.815  52.901 -51.276  1.00  0.00     0.000 C 
HETATM   28  C   UNL     1     -39.294  51.646 -51.977  1.00  0.00     0.000 C 
HETATM   29  C   UNL     1     -39.359  51.636 -53.505  1.00  0.00     0.000 C 
HETATM   30  C   UNL     1     -40.774  51.564 -54.079  1.00  0.00     0.002 C 
HETATM   31  C   UNL     1     -41.325  52.884 -54.621  1.00  0.00     0.025 C 
ENDBRANCH  21  24
ENDBRANCH   4  20
BRANCH   6  32
HETATM   32  C   UNL     1     -42.385  57.567 -59.313  1.00  0.00     0.159 C 
BRANCH  32  33
HETATM   33  C   UNL     1     -43.447  56.998 -60.267  1.00  0.00     0.139 C 
HETATM   34  O   UNL     1     -43.434  55.557 -60.303  1.00  0.00    -0.384 OA
HETATM   35  C   UNL     1     -44.759  55.142 -60.646  1.00  0.00     0.168 C 
HETATM   36  C   UNL     1     -45.666  56.131 -59.955  1.00  0.00     0.029 C 
HETATM   37  C   UNL     1     -44.889  57.427 -60.012  1.00  0.00     0.035 C 
ENDBRANCH  32  33
ENDBRANCH   6  32
TORSDOF 8
ENDMDL
MODEL 5
REMARK VINA RESULT:      -7.7      2.654      7.685
REMARK  8 active torsions:
REMARK  status: ('A' for Active; 'I' for Inactive)
REMARK       I    between atoms: N_2  and  C_3 
REMARK    1  A    between atoms: N_2  and  C_29 
REMARK    2  A    between atoms: C_3  and  C_4 
REMARK    3  A    between atoms: C_7  and  C_8 
REMARK       I    between atoms: C_8  and  N_9 
REMARK    4  A    between atoms: N_9  and  C_10 
REMARK    5  A    between atoms: N_20  and  C_21 
REMARK    6  A    between atoms: C_21  and  C_22 
REMARK    7  A    between atoms: C_29  and  C_30 
REMARK    8  A    between atoms: C_30  and  C_31 
ROOT
HETATM    1  C   UNL     1     -41.302  57.702 -53.355  1.00  0.00     0.098 C 
HETATM    2  C   UNL     1     -42.045  57.968 -54.609  1.00  0.00     0.206 C 
HETATM    3  O   UNL     1     -41.852  58.985 -55.275  1.00  0.00    -0.286 OA
HETATM    4  C   UNL     1     -43.067  56.967 -55.034  1.00  0.00     0.098 C 
HETATM    5  C   UNL     1     -43.024  55.765 -54.432  1.00  0.00     0.111 C 
HETATM    6  N   UNL     1     -42.151  55.430 -53.401  1.00  0.00    -0.362 N 
HETATM    7  C   UNL     1     -41.364  56.450 -52.872  1.00  0.00     0.111 C 
ENDROOT
BRANCH   1   8
HETATM    8  C   UNL     1     -40.460  58.665 -52.609  1.00  0.00     0.258 C 
HETATM    9  N   UNL     1     -40.827  59.054 -51.321  1.00  0.00    -0.352 N 
HETATM   10  C   UNL     1     -39.870  59.870 -50.586  1.00  0.00     0.152 C 
HETATM   11  O   UNL     1     -39.377  58.991 -53.105  1.00  0.00    -0.267 OA
BRANCH   9  12
HETATM   12  C   UNL     1     -42.180  59.011 -50.736  1.00  0.00     0.131 C 
BRANCH  12  13
HETATM   13  C   UNL     1     -42.955  60.328 -50.714  1.00  0.00     0.079 C 
BRANCH  13  14
HETATM   14  C   UNL     1     -43.547  60.677 -52.051  1.00  0.00     0.035 A 
HETATM   15  N   UNL     1     -42.835  61.528 -52.830  1.00  0.00    -0.266 NA
HETATM   16  C   UNL     1     -43.340  61.820 -54.047  1.00  0.00     0.117 A 
HETATM   17  C   UNL     1     -44.532  61.307 -54.530  1.00  0.00     0.019 A 
HETATM   18  C   UNL     1     -45.254  60.446 -53.713  1.00  0.00     0.003 A 
HETATM   19  C   UNL     1     -44.760  60.127 -52.453  1.00  0.00     0.027 A 
ENDBRANCH  13  14
ENDBRANCH  12  13
ENDBRANCH   9  12
ENDBRANCH   1   8
BRANCH   4  20
HETATM   20  C   UNL     1     -44.155  57.253 -56.009  1.00  0.00     0.257 C 
HETATM   21  N   UNL     1     -43.911  56.795 -57.280  1.00  0.00    -0.352 N 
HETATM   22  H   UNL     1     -43.135  56.147 -57.413  1.00  0.00     0.163 HD
HETATM   23  O   UNL     1     -45.146  57.909 -55.701  1.00  0.00    -0.267 OA
BRANCH  21  24
HETATM   24  C   UNL     1     -44.750  57.090 -58.443  1.00  0.00     0.084 C 
HETATM   25  C   UNL     1     -44.251  58.415 -59.038  1.00  0.00     0.025 C 
HETATM   26  C   UNL     1     -45.018  59.020 -60.213  1.00  0.00     0.002 C 
HETATM   27  C   UNL     1     -46.540  58.984 -60.090  1.00  0.00     0.000 C 
HETATM   28  C   UNL     1     -47.214  57.888 -60.917  1.00  0.00     0.000 C 
HETATM   29  C   UNL     1     -46.983  56.445 -60.462  1.00  0.00     0.000 C 
HETATM   30  C   UNL     1     -45.554  55.940 -60.657  1.00  0.00     0.002 C 
HETATM   31  C   UNL     1     -44.703  55.885 -59.388  1.00  0.00     0.025 C 
ENDBRANCH  21  24
ENDBRANCH   4  20
BRANCH   6  32
HETATM   32  C   UNL     1     -42.035  54.042 -52.896  1.00  0.00     0.159 C 
BRANCH  32  33
HETATM   33  C   UNL     1     -40.645  53.411 -53.070  1.00  0.00     0.139 C 
HETATM   34  O   UNL     1     -40.345  52.454 -52.034  1.00  0.00    -0.384 OA
HETATM   35  C   UNL     1     -39.425  51.515 -52.596  1.00  0.00     0.168 C 
HETATM   36  C   UNL     1     -39.864  51.351 -54.030  1.00  0.00     0.029 C 
HETATM   37  C   UNL     1     -40.372  52.726 -54.406  1.00  0.00     0.035 C 
ENDBRANCH  32  33
ENDBRANCH   6  32
TORSDOF 8
ENDMDL
MODEL 6
REMARK VINA RESULT:      -7.7      2.732      8.627
REMARK  8 active torsions:
REMARK  status: ('A' for Active; 'I' for Inactive)
REMARK       I    between atoms: N_2  and  C_3 
REMARK    1  A    between atoms: N_2  and  C_29 
REMARK    2  A    between atoms: C_3  and  C_4 
REMARK    3  A    between atoms: C_7  and  C_8 
REMARK       I    between atoms: C_8  and  N_9 
REMARK    4  A    between atoms: N_9  and  C_10 
REMARK    5  A    between atoms: N_20  and  C_21 
REMARK    6  A    between atoms: C_21  and  C_22 
REMARK    7  A    between atoms: C_29  and  C_30 
REMARK    8  A    between atoms: C_30  and  C_31 
ROOT
HETATM    1  C   UNL     1     -43.050  58.278 -53.769  1.00  0.00     0.098 C 
HETATM    2  C   UNL     1     -44.219  58.917 -53.120  1.00  0.00     0.206 C 
HETATM    3  O   UNL     1     -44.831  59.843 -53.651  1.00  0.00    -0.286 OA
HETATM    4  C   UNL     1     -44.621  58.417 -51.773  1.00  0.00     0.098 C 
HETATM    5  C   UNL     1     -44.103  57.237 -51.385  1.00  0.00     0.111 C 
HETATM    6  N   UNL     1     -43.172  56.507 -52.117  1.00  0.00    -0.362 N 
HETATM    7  C   UNL     1     -42.645  57.103 -53.259  1.00  0.00     0.111 C 
ENDROOT
BRANCH   1   8
HETATM    8  C   UNL     1     -42.316  58.781 -54.953  1.00  0.00     0.258 C 
HETATM    9  N   UNL     1     -42.778  58.480 -56.234  1.00  0.00    -0.352 N 
HETATM   10  C   UNL     1     -42.106  59.142 -57.345  1.00  0.00     0.152 C 
HETATM   11  O   UNL     1     -41.387  59.571 -54.764  1.00  0.00    -0.267 OA
BRANCH   9  12
HETATM   12  C   UNL     1     -43.638  57.346 -56.620  1.00  0.00     0.131 C 
BRANCH  12  13
HETATM   13  C   UNL     1     -43.112  56.439 -57.732  1.00  0.00     0.079 C 
BRANCH  13  14
HETATM   14  C   UNL     1     -44.132  56.189 -58.809  1.00  0.00     0.035 A 
HETATM   15  N   UNL     1     -45.133  57.095 -58.923  1.00  0.00    -0.266 NA
HETATM   16  C   UNL     1     -46.035  56.899 -59.909  1.00  0.00     0.117 A 
HETATM   17  C   UNL     1     -45.991  55.833 -60.791  1.00  0.00     0.019 A 
HETATM   18  C   UNL     1     -44.964  54.907 -60.651  1.00  0.00     0.003 A 
HETATM   19  C   UNL     1     -44.022  55.081 -59.644  1.00  0.00     0.027 A 
ENDBRANCH  13  14
ENDBRANCH  12  13
ENDBRANCH   9  12
ENDBRANCH   1   8
BRANCH   4  20
HETATM   20  C   UNL     1     -45.482  59.179 -50.826  1.00  0.00     0.257 C 
HETATM   21  N   UNL     1     -45.009  60.429 -50.513  1.00  0.00    -0.352 N 
HETATM   22  H   UNL     1     -44.249  60.809 -51.078  1.00  0.00     0.163 HD
HETATM   23  O   UNL     1     -46.487  58.686 -50.323  1.00  0.00    -0.267 OA
BRANCH  21  24
HETATM   24  C   UNL     1     -45.589  61.302 -49.490  1.00  0.00     0.084 C 
HETATM   25  C   UNL     1     -44.611  61.325 -48.306  1.00  0.00     0.025 C 
HETATM   26  C   UNL     1     -45.013  62.084 -47.043  1.00  0.00     0.002 C 
HETATM   27  C   UNL     1     -46.458  61.881 -46.590  1.00  0.00     0.000 C 
HETATM   28  C   UNL     1     -47.395  63.040 -46.932  1.00  0.00     0.000 C 
HETATM   29  C   UNL     1     -47.721  63.244 -48.413  1.00  0.00     0.000 C 
HETATM   30  C   UNL     1     -46.546  63.732 -49.259  1.00  0.00     0.002 C 
HETATM   31  C   UNL     1     -45.881  62.664 -50.129  1.00  0.00     0.025 C 
ENDBRANCH  21  24
ENDBRANCH   4  20
BRANCH   6  32
HETATM   32  C   UNL     1     -42.769  55.137 -51.719  1.00  0.00     0.159 C 
BRANCH  32  33
HETATM   33  C   UNL     1     -41.264  54.961 -51.460  1.00  0.00     0.139 C 
HETATM   34  O   UNL     1     -40.953  54.914 -50.054  1.00  0.00    -0.384 OA
HETATM   35  C   UNL     1     -39.757  54.141 -49.923  1.00  0.00     0.168 C 
HETATM   36  C   UNL     1     -39.874  53.063 -50.972  1.00  0.00     0.029 C 
HETATM   37  C   UNL     1     -40.601  53.748 -52.107  1.00  0.00     0.035 C 
ENDBRANCH  32  33
ENDBRANCH   6  32
TORSDOF 8
ENDMDL
MODEL 7
REMARK VINA RESULT:      -7.6      2.615      6.554
REMARK  8 active torsions:
REMARK  status: ('A' for Active; 'I' for Inactive)
REMARK       I    between atoms: N_2  and  C_3 
REMARK    1  A    between atoms: N_2  and  C_29 
REMARK    2  A    between atoms: C_3  and  C_4 
REMARK    3  A    between atoms: C_7  and  C_8 
REMARK       I    between atoms: C_8  and  N_9 
REMARK    4  A    between atoms: N_9  and  C_10 
REMARK    5  A    between atoms: N_20  and  C_21 
REMARK    6  A    between atoms: C_21  and  C_22 
REMARK    7  A    between atoms: C_29  and  C_30 
REMARK    8  A    between atoms: C_30  and  C_31 
ROOT
HETATM    1  C   UNL     1     -43.585  57.469 -52.237  1.00  0.00     0.098 C 
HETATM    2  C   UNL     1     -44.020  57.306 -53.643  1.00  0.00     0.206 C 
HETATM    3  O   UNL     1     -44.625  56.305 -54.024  1.00  0.00    -0.286 OA
HETATM    4  C   UNL     1     -43.674  58.393 -54.605  1.00  0.00     0.098 C 
HETATM    5  C   UNL     1     -43.276  59.565 -54.077  1.00  0.00     0.111 C 
HETATM    6  N   UNL     1     -43.096  59.796 -52.717  1.00  0.00    -0.362 N 
HETATM    7  C   UNL     1     -43.206  58.703 -51.862  1.00  0.00     0.111 C 
ENDROOT
BRANCH   1   8
HETATM    8  C   UNL     1     -43.572  56.420 -51.191  1.00  0.00     0.258 C 
HETATM    9  N   UNL     1     -42.427  55.647 -51.000  1.00  0.00    -0.352 N 
HETATM   10  C   UNL     1     -42.427  54.751 -49.850  1.00  0.00     0.152 C 
HETATM   11  O   UNL     1     -44.538  56.355 -50.426  1.00  0.00    -0.267 OA
BRANCH   9  12
HETATM   12  C   UNL     1     -41.359  55.390 -51.983  1.00  0.00     0.131 C 
BRANCH  12  13
HETATM   13  C   UNL     1     -41.719  54.485 -53.161  1.00  0.00     0.079 C 
BRANCH  13  14
HETATM   14  C   UNL     1     -40.936  53.201 -53.167  1.00  0.00     0.035 A 
HETATM   15  N   UNL     1     -40.267  52.889 -52.031  1.00  0.00    -0.266 NA
HETATM   16  C   UNL     1     -39.589  51.722 -52.014  1.00  0.00     0.117 A 
HETATM   17  C   UNL     1     -39.541  50.843 -53.083  1.00  0.00     0.019 A 
HETATM   18  C   UNL     1     -40.223  51.186 -54.244  1.00  0.00     0.003 A 
HETATM   19  C   UNL     1     -40.928  52.382 -54.293  1.00  0.00     0.027 A 
ENDBRANCH  13  14
ENDBRANCH  12  13
ENDBRANCH   9  12
ENDBRANCH   1   8
BRANCH   4  20
HETATM   20  C   UNL     1     -43.670  58.224 -56.085  1.00  0.00     0.257 C 
HETATM   21  N   UNL     1     -44.599  57.329 -56.554  1.00  0.00    -0.352 N 
HETATM   22  H   UNL     1     -45.325  57.013 -55.912  1.00  0.00     0.163 HD
HETATM   23  O   UNL     1     -42.848  58.790 -56.800  1.00  0.00    -0.267 OA
BRANCH  21  24
HETATM   24  C   UNL     1     -44.684  56.875 -57.944  1.00  0.00     0.084 C 
HETATM   25  C   UNL     1     -45.250  58.040 -58.769  1.00  0.00     0.025 C 
HETATM   26  C   UNL     1     -45.543  57.809 -60.250  1.00  0.00     0.002 C 
HETATM   27  C   UNL     1     -46.228  56.484 -60.583  1.00  0.00     0.000 C 
HETATM   28  C   UNL     1     -45.293  55.418 -61.158  1.00  0.00     0.000 C 
HETATM   29  C   UNL     1     -44.257  54.825 -60.201  1.00  0.00     0.000 C 
HETATM   30  C   UNL     1     -43.155  55.796 -59.780  1.00  0.00     0.002 C 
HETATM   31  C   UNL     1     -43.300  56.376 -58.372  1.00  0.00     0.025 C 
ENDBRANCH  21  24
ENDBRANCH   4  20
BRANCH   6  32
HETATM   32  C   UNL     1     -42.823  61.152 -52.185  1.00  0.00     0.159 C 
BRANCH  32  33
HETATM   33  C   UNL     1     -43.964  61.754 -51.350  1.00  0.00     0.139 C 
HETATM   34  O   UNL     1     -45.261  61.319 -51.802  1.00  0.00    -0.384 OA
HETATM   35  C   UNL     1     -46.131  61.371 -50.668  1.00  0.00     0.168 C 
HETATM   36  C   UNL     1     -45.271  60.952 -49.501  1.00  0.00     0.029 C 
HETATM   37  C   UNL     1     -43.907  61.508 -49.845  1.00  0.00     0.035 C 
ENDBRANCH  32  33
ENDBRANCH   6  32
TORSDOF 8
ENDMDL
MODEL 8
REMARK VINA RESULT:      -7.3      2.426      4.181
REMARK  8 active torsions:
REMARK  status: ('A' for Active; 'I' for Inactive)
REMARK       I    between atoms: N_2  and  C_3 
REMARK    1  A    between atoms: N_2  and  C_29 
REMARK    2  A    between atoms: C_3  and  C_4 
REMARK    3  A    between atoms: C_7  and  C_8 
REMARK       I    between atoms: C_8  and  N_9 
REMARK    4  A    between atoms: N_9  and  C_10 
REMARK    5  A    between atoms: N_20  and  C_21 
REMARK    6  A    between atoms: C_21  and  C_22 
REMARK    7  A    between atoms: C_29  and  C_30 
REMARK    8  A    between atoms: C_30  and  C_31 
ROOT
HETATM    1  C   UNL     1     -43.238  60.736 -53.774  1.00  0.00     0.098 C 
HETATM    2  C   UNL     1     -42.142  59.796 -53.440  1.00  0.00     0.206 C 
HETATM    3  O   UNL     1     -41.039  59.866 -53.980  1.00  0.00    -0.286 OA
HETATM    4  C   UNL     1     -42.427  58.729 -52.437  1.00  0.00     0.098 C 
HETATM    5  C   UNL     1     -43.534  58.882 -51.687  1.00  0.00     0.111 C 
HETATM    6  N   UNL     1     -44.454  59.915 -51.842  1.00  0.00    -0.362 N 
HETATM    7  C   UNL     1     -44.284  60.767 -52.930  1.00  0.00     0.111 C 
ENDROOT
BRANCH   1   8
HETATM    8  C   UNL     1     -43.273  61.679 -54.915  1.00  0.00     0.258 C 
HETATM    9  N   UNL     1     -43.509  61.198 -56.203  1.00  0.00    -0.352 N 
HETATM   10  C   UNL     1     -43.694  62.194 -57.250  1.00  0.00     0.152 C 
HETATM   11  O   UNL     1     -43.227  62.887 -54.668  1.00  0.00    -0.267 OA
BRANCH   9  12
HETATM   12  C   UNL     1     -43.279  59.826 -56.691  1.00  0.00     0.131 C 
BRANCH  12  13
HETATM   13  C   UNL     1     -44.508  58.921 -56.786  1.00  0.00     0.079 C 
BRANCH  13  14
HETATM   14  C   UNL     1     -44.242  57.659 -57.559  1.00  0.00     0.035 A 
HETATM   15  N   UNL     1     -44.944  57.487 -58.705  1.00  0.00    -0.266 NA
HETATM   16  C   UNL     1     -44.687  56.374 -59.425  1.00  0.00     0.117 A 
HETATM   17  C   UNL     1     -43.762  55.413 -59.054  1.00  0.00     0.019 A 
HETATM   18  C   UNL     1     -43.060  55.600 -57.870  1.00  0.00     0.003 A 
HETATM   19  C   UNL     1     -43.304  56.736 -57.106  1.00  0.00     0.027 A 
ENDBRANCH  13  14
ENDBRANCH  12  13
ENDBRANCH   9  12
ENDBRANCH   1   8
BRANCH   4  20
HETATM   20  C   UNL     1     -41.611  57.493 -52.283  1.00  0.00     0.257 C 
HETATM   21  N   UNL     1     -42.051  56.428 -53.030  1.00  0.00    -0.352 N 
HETATM   22  H   UNL     1     -42.746  56.607 -53.755  1.00  0.00     0.163 HD
HETATM   23  O   UNL     1     -40.673  57.429 -51.494  1.00  0.00    -0.267 OA
BRANCH  21  24
HETATM   24  C   UNL     1     -41.517  55.068 -52.930  1.00  0.00     0.084 C 
HETATM   25  C   UNL     1     -41.925  54.520 -51.555  1.00  0.00     0.025 C 
HETATM   26  C   UNL     1     -41.411  53.144 -51.137  1.00  0.00     0.002 C 
HETATM   27  C   UNL     1     -39.939  52.872 -51.449  1.00  0.00     0.000 C 
HETATM   28  C   UNL     1     -39.708  51.988 -52.675  1.00  0.00     0.000 C 
HETATM   29  C   UNL     1     -40.048  52.599 -54.036  1.00  0.00     0.000 C 
HETATM   30  C   UNL     1     -41.541  52.819 -54.276  1.00  0.00     0.002 C 
HETATM   31  C   UNL     1     -42.018  54.265 -54.135  1.00  0.00     0.025 C 
ENDBRANCH  21  24
ENDBRANCH   4  20
BRANCH   6  32
HETATM   32  C   UNL     1     -45.559  60.126 -50.878  1.00  0.00     0.159 C 
BRANCH  32  33
HETATM   33  C   UNL     1     -45.420  61.386 -50.009  1.00  0.00     0.139 C 
HETATM   34  O   UNL     1     -46.611  61.659 -49.244  1.00  0.00    -0.384 OA
HETATM   35  C   UNL     1     -46.196  62.370 -48.075  1.00  0.00     0.168 C 
HETATM   36  C   UNL     1     -44.868  61.759 -47.700  1.00  0.00     0.029 C 
HETATM   37  C   UNL     1     -44.245  61.413 -49.034  1.00  0.00     0.035 C 
ENDBRANCH  32  33
ENDBRANCH   6  32
TORSDOF 8
ENDMDL
MODEL 9
REMARK VINA RESULT:      -7.2      3.074      7.903
REMARK  8 active torsions:
REMARK  status: ('A' for Active; 'I' for Inactive)
REMARK       I    between atoms: N_2  and  C_3 
REMARK    1  A    between atoms: N_2  and  C_29 
REMARK    2  A    between atoms: C_3  and  C_4 
REMARK    3  A    between atoms: C_7  and  C_8 
REMARK       I    between atoms: C_8  and  N_9 
REMARK    4  A    between atoms: N_9  and  C_10 
REMARK    5  A    between atoms: N_20  and  C_21 
REMARK    6  A    between atoms: C_21  and  C_22 
REMARK    7  A    between atoms: C_29  and  C_30 
REMARK    8  A    between atoms: C_30  and  C_31 
ROOT
HETATM    1  C   UNL     1     -41.060  57.150 -53.927  1.00  0.00     0.098 C 
HETATM    2  C   UNL     1     -41.749  57.076 -55.237  1.00  0.00     0.206 C 
HETATM    3  O   UNL     1     -42.112  58.086 -55.838  1.00  0.00    -0.286 OA
HETATM    4  C   UNL     1     -42.020  55.721 -55.801  1.00  0.00     0.098 C 
HETATM    5  C   UNL     1     -41.356  54.691 -55.247  1.00  0.00     0.111 C 
HETATM    6  N   UNL     1     -40.507  54.799 -54.149  1.00  0.00    -0.362 N 
HETATM    7  C   UNL     1     -40.448  56.031 -53.504  1.00  0.00     0.111 C 
ENDROOT
BRANCH   1   8
HETATM    8  C   UNL     1     -40.937  58.347 -53.063  1.00  0.00     0.258 C 
HETATM    9  N   UNL     1     -41.950  58.652 -52.155  1.00  0.00    -0.352 N 
HETATM   10  C   UNL     1     -41.688  59.743 -51.225  1.00  0.00     0.152 C 
HETATM   11  O   UNL     1     -39.868  58.964 -53.081  1.00  0.00    -0.267 OA
BRANCH   9  12
HETATM   12  C   UNL     1     -43.360  58.226 -52.226  1.00  0.00     0.131 C 
BRANCH  12  13
HETATM   13  C   UNL     1     -43.872  57.367 -51.069  1.00  0.00     0.079 C 
BRANCH  13  14
HETATM   14  C   UNL     1     -43.027  56.146 -50.835  1.00  0.00     0.035 A 
HETATM   15  N   UNL     1     -43.422  55.004 -51.449  1.00  0.00    -0.266 NA
HETATM   16  C   UNL     1     -42.651  53.910 -51.274  1.00  0.00     0.117 A 
HETATM   17  C   UNL     1     -41.499  53.894 -50.507  1.00  0.00     0.019 A 
HETATM   18  C   UNL     1     -41.116  55.071 -49.875  1.00  0.00     0.003 A 
HETATM   19  C   UNL     1     -41.890  56.214 -50.035  1.00  0.00     0.027 A 
ENDBRANCH  13  14
ENDBRANCH  12  13
ENDBRANCH   9  12
ENDBRANCH   1   8
BRANCH   4  20
HETATM   20  C   UNL     1     -43.025  55.449 -56.866  1.00  0.00     0.257 C 
HETATM   21  N   UNL     1     -43.209  56.485 -57.748  1.00  0.00    -0.352 N 
HETATM   22  H   UNL     1     -42.532  57.249 -57.735  1.00  0.00     0.163 HD
HETATM   23  O   UNL     1     -43.678  54.410 -56.892  1.00  0.00    -0.267 OA
BRANCH  21  24
HETATM   24  C   UNL     1     -44.248  56.522 -58.779  1.00  0.00     0.084 C 
HETATM   25  C   UNL     1     -44.418  57.989 -59.198  1.00  0.00     0.025 C 
HETATM   26  C   UNL     1     -45.519  58.338 -60.198  1.00  0.00     0.002 C 
HETATM   27  C   UNL     1     -46.863  57.650 -59.958  1.00  0.00     0.000 C 
HETATM   28  C   UNL     1     -47.141  56.469 -60.889  1.00  0.00     0.000 C 
HETATM   29  C   UNL     1     -46.283  55.218 -60.684  1.00  0.00     0.000 C 
HETATM   30  C   UNL     1     -44.815  55.386 -61.072  1.00  0.00     0.002 C 
HETATM   31  C   UNL     1     -43.847  55.559 -59.901  1.00  0.00     0.025 C 
ENDBRANCH  21  24
ENDBRANCH   4  20
BRANCH   6  32
HETATM   32  C   UNL     1     -39.673  53.662 -53.693  1.00  0.00     0.159 C 
BRANCH  32  33
HETATM   33  C   UNL     1     -40.409  52.315 -53.625  1.00  0.00     0.139 C 
HETATM   34  O   UNL     1     -40.278  51.557 -54.845  1.00  0.00    -0.384 OA
HETATM   35  C   UNL     1     -40.396  50.178 -54.487  1.00  0.00     0.168 C 
HETATM   36  C   UNL     1     -39.713  50.065 -53.146  1.00  0.00     0.029 C 
HETATM   37  C   UNL     1     -40.021  51.386 -52.477  1.00  0.00     0.035 C 
ENDBRANCH  32  33
ENDBRANCH   6  32
TORSDOF 8
ENDMDL
MODEL 10
REMARK VINA RESULT:      -7.2      3.539      8.603
REMARK  8 active torsions:
REMARK  status: ('A' for Active; 'I' for Inactive)
REMARK       I    between atoms: N_2  and  C_3 
REMARK    1  A    between atoms: N_2  and  C_29 
REMARK    2  A    between atoms: C_3  and  C_4 
REMARK    3  A    between atoms: C_7  and  C_8 
REMARK       I    between atoms: C_8  and  N_9 
REMARK    4  A    between atoms: N_9  and  C_10 
REMARK    5  A    between atoms: N_20  and  C_21 
REMARK    6  A    between atoms: C_21  and  C_22 
REMARK    7  A    between atoms: C_29  and  C_30 
REMARK    8  A    between atoms: C_30  and  C_31 
ROOT
HETATM    1  C   UNL     1     -42.943  58.778 -54.529  1.00  0.00     0.098 C 
HETATM    2  C   UNL     1     -42.292  59.479 -55.660  1.00  0.00     0.206 C 
HETATM    3  O   UNL     1     -41.847  60.621 -55.547  1.00  0.00    -0.286 OA
HETATM    4  C   UNL     1     -42.215  58.762 -56.967  1.00  0.00     0.098 C 
HETATM    5  C   UNL     1     -42.453  57.438 -56.946  1.00  0.00     0.111 C 
HETATM    6  N   UNL     1     -42.836  56.724 -55.815  1.00  0.00    -0.362 N 
HETATM    7  C   UNL     1     -43.120  57.453 -54.663  1.00  0.00     0.111 C 
ENDROOT
BRANCH   1   8
HETATM    8  C   UNL     1     -43.372  59.383 -53.247  1.00  0.00     0.258 C 
HETATM    9  N   UNL     1     -42.458  59.510 -52.201  1.00  0.00    -0.352 N 
HETATM   10  C   UNL     1     -42.899  60.261 -51.033  1.00  0.00     0.152 C 
HETATM   11  O   UNL     1     -44.499  59.883 -53.192  1.00  0.00    -0.267 OA
BRANCH   9  12
HETATM   12  C   UNL     1     -41.230  58.719 -51.998  1.00  0.00     0.131 C 
BRANCH  12  13
HETATM   13  C   UNL     1     -41.154  57.897 -50.712  1.00  0.00     0.079 C 
BRANCH  13  14
HETATM   14  C   UNL     1     -41.701  56.506 -50.878  1.00  0.00     0.035 A 
HETATM   15  N   UNL     1     -40.803  55.491 -50.856  1.00  0.00    -0.266 NA
HETATM   16  C   UNL     1     -41.286  54.236 -50.970  1.00  0.00     0.117 A 
HETATM   17  C   UNL     1     -42.631  53.938 -51.109  1.00  0.00     0.019 A 
HETATM   18  C   UNL     1     -43.536  54.992 -51.142  1.00  0.00     0.003 A 
HETATM   19  C   UNL     1     -43.068  56.296 -51.029  1.00  0.00     0.027 A 
ENDBRANCH  13  14
ENDBRANCH  12  13
ENDBRANCH   9  12
ENDBRANCH   1   8
BRANCH   4  20
HETATM   20  C   UNL     1     -41.973  59.437 -58.272  1.00  0.00     0.257 C 
HETATM   21  N   UNL     1     -41.394  60.677 -58.169  1.00  0.00    -0.352 N 
HETATM   22  H   UNL     1     -41.003  60.949 -57.267  1.00  0.00     0.163 HD
HETATM   23  O   UNL     1     -42.336  58.942 -59.335  1.00  0.00    -0.267 OA
BRANCH  21  24
HETATM   24  C   UNL     1     -41.203  61.599 -59.290  1.00  0.00     0.084 C 
HETATM   25  C   UNL     1     -42.513  62.382 -59.461  1.00  0.00     0.025 C 
HETATM   26  C   UNL     1     -42.634  63.353 -60.634  1.00  0.00     0.002 C 
HETATM   27  C   UNL     1     -42.095  62.838 -61.969  1.00  0.00     0.000 C 
HETATM   28  C   UNL     1     -40.723  63.395 -62.352  1.00  0.00     0.000 C 
HETATM   29  C   UNL     1     -39.534  62.928 -61.510  1.00  0.00     0.000 C 
HETATM   30  C   UNL     1     -39.527  63.456 -60.075  1.00  0.00     0.002 C 
HETATM   31  C   UNL     1     -39.960  62.449 -59.008  1.00  0.00     0.025 C 
ENDBRANCH  21  24
ENDBRANCH   4  20
BRANCH   6  32
HETATM   32  C   UNL     1     -42.917  55.244 -55.817  1.00  0.00     0.159 C 
BRANCH  32  33
HETATM   33  C   UNL     1     -42.070  54.555 -54.736  1.00  0.00     0.139 C 
HETATM   34  O   UNL     1     -42.296  53.132 -54.688  1.00  0.00    -0.384 OA
HETATM   35  C   UNL     1     -41.095  52.541 -54.183  1.00  0.00     0.168 C 
HETATM   36  C   UNL     1     -39.979  53.371 -54.768  1.00  0.00     0.029 C 
HETATM   37  C   UNL     1     -40.561  54.766 -54.818  1.00  0.00     0.035 C 
ENDBRANCH  32  33
ENDBRANCH   6  32
TORSDOF 8
ENDMDL
