MODEL 1
REMARK VINA RESULT:      -8.1      0.000      0.000
REMARK  6 active torsions:
REMARK  status: ('A' for Active; 'I' for Inactive)
REMARK    1  A    between atoms: C_8  and  N_9 
REMARK       I    between atoms: N_9  and  C_10 
REMARK    2  A    between atoms: C_10  and  C_11 
REMARK    3  A    between atoms: C_11  and  N_12 
REMARK    4  A    between atoms: N_12  and  C_15 
REMARK    5  A    between atoms: C_15  and  C_16 
REMARK    6  A    between atoms: C_16  and  C_17 
ROOT
HETATM    1  N   UNL     1     -42.989  54.489 -54.860  1.00  0.00    -0.062 N 
HETATM    2  H   UNL     1     -43.644  53.892 -55.384  1.00  0.00     0.278 HD
HETATM    3  H   UNL     1     -42.166  54.608 -55.472  1.00  0.00     0.278 HD
ENDROOT
BRANCH   1   4
HETATM    4  C   UNL     1     -43.532  55.891 -54.724  1.00  0.00     0.335 C 
BRANCH   4   5
HETATM    5  C   UNL     1     -43.750  56.548 -56.088  1.00  0.00     0.248 C 
HETATM    6  N   UNL     1     -43.140  55.891 -57.131  1.00  0.00    -0.322 N 
HETATM    7  H   UNL     1     -42.518  55.114 -56.937  1.00  0.00     0.169 HD
HETATM    8  O   UNL     1     -44.455  57.553 -56.137  1.00  0.00    -0.271 OA
BRANCH   6   9
HETATM    9  C   UNL     1     -43.253  56.192 -58.482  1.00  0.00     0.085 A 
HETATM   10  C   UNL     1     -42.668  57.328 -59.014  1.00  0.00     0.052 A 
HETATM   11  C   UNL     1     -41.866  58.425 -58.422  1.00  0.00     0.072 C 
HETATM   12  N   UNL     1     -42.963  57.313 -60.349  1.00  0.00    -0.280 N 
HETATM   13  H   UNL     1     -42.705  57.989 -61.062  1.00  0.00     0.189 HD
HETATM   14  N   UNL     1     -43.678  56.251 -60.724  1.00  0.00    -0.177 NA
HETATM   15  C   UNL     1     -43.875  55.555 -59.597  1.00  0.00     0.079 A 
HETATM   16  C   UNL     1     -44.656  54.297 -59.700  1.00  0.00     0.075 C 
ENDBRANCH   6   9
ENDBRANCH   4   5
ENDBRANCH   1   4
BRANCH   1  17
HETATM   17  C   UNL     1     -42.493  53.757 -53.613  1.00  0.00     0.194 C 
HETATM   18  C   UNL     1     -43.228  54.417 -52.436  1.00  0.00     0.041 C 
BRANCH  17  19
HETATM   19  C   UNL     1     -40.912  53.723 -53.495  1.00  0.00     0.007 C 
HETATM   20  C   UNL     1     -40.252  54.354 -54.754  1.00  0.00     0.022 C 
HETATM   21  C   UNL     1     -40.473  54.679 -52.348  1.00  0.00     0.022 C 
BRANCH  19  22
HETATM   22  C   UNL     1     -40.393  52.283 -53.293  1.00  0.00    -0.048 A 
HETATM   23  C   UNL     1     -40.455  51.341 -54.338  1.00  0.00     0.008 A 
HETATM   24  C   UNL     1     -40.026  50.022 -54.160  1.00  0.00     0.001 A 
HETATM   25  C   UNL     1     -39.527  49.609 -52.932  1.00  0.00     0.000 A 
HETATM   26  C   UNL     1     -39.448  50.518 -51.884  1.00  0.00     0.001 A 
HETATM   27  C   UNL     1     -39.872  51.839 -52.063  1.00  0.00     0.008 A 
ENDBRANCH  19  22
ENDBRANCH  17  19
ENDBRANCH   1  17
TORSDOF 6
ENDMDL
MODEL 2
REMARK VINA RESULT:      -7.8      1.082      1.900
REMARK  6 active torsions:
REMARK  status: ('A' for Active; 'I' for Inactive)
REMARK    1  A    between atoms: C_8  and  N_9 
REMARK       I    between atoms: N_9  and  C_10 
REMARK    2  A    between atoms: C_10  and  C_11 
REMARK    3  A    between atoms: C_11  and  N_12 
REMARK    4  A    between atoms: N_12  and  C_15 
REMARK    5  A    between atoms: C_15  and  C_16 
REMARK    6  A    between atoms: C_16  and  C_17 
ROOT
HETATM    1  N   UNL     1     -42.955  54.457 -55.090  1.00  0.00    -0.062 N 
HETATM    2  H   UNL     1     -43.668  53.887 -55.566  1.00  0.00     0.278 HD
HETATM    3  H   UNL     1     -42.138  54.469 -55.720  1.00  0.00     0.278 HD
ENDROOT
BRANCH   1   4
HETATM    4  C   UNL     1     -43.377  55.906 -55.031  1.00  0.00     0.335 C 
BRANCH   4   5
HETATM    5  C   UNL     1     -43.125  56.622 -56.358  1.00  0.00     0.248 C 
HETATM    6  N   UNL     1     -44.126  56.453 -57.286  1.00  0.00    -0.322 N 
HETATM    7  H   UNL     1     -44.882  55.806 -57.093  1.00  0.00     0.169 HD
HETATM    8  O   UNL     1     -42.101  57.292 -56.466  1.00  0.00    -0.271 OA
BRANCH   6   9
HETATM    9  C   UNL     1     -44.221  57.069 -58.528  1.00  0.00     0.085 A 
HETATM   10  C   UNL     1     -44.303  56.324 -59.692  1.00  0.00     0.052 A 
HETATM   11  C   UNL     1     -44.307  54.866 -59.962  1.00  0.00     0.072 C 
HETATM   12  N   UNL     1     -44.391  57.231 -60.712  1.00  0.00    -0.280 N 
HETATM   13  H   UNL     1     -44.462  57.054 -61.710  1.00  0.00     0.189 HD
HETATM   14  N   UNL     1     -44.389  58.498 -60.299  1.00  0.00    -0.177 NA
HETATM   15  C   UNL     1     -44.278  58.425 -58.966  1.00  0.00     0.079 A 
HETATM   16  C   UNL     1     -44.246  59.703 -58.213  1.00  0.00     0.075 C 
ENDBRANCH   6   9
ENDBRANCH   4   5
ENDBRANCH   1   4
BRANCH   1  17
HETATM   17  C   UNL     1     -42.497  53.761 -53.808  1.00  0.00     0.194 C 
HETATM   18  C   UNL     1     -43.271  54.450 -52.674  1.00  0.00     0.041 C 
BRANCH  17  19
HETATM   19  C   UNL     1     -40.920  53.737 -53.639  1.00  0.00     0.007 C 
HETATM   20  C   UNL     1     -40.223  54.332 -54.895  1.00  0.00     0.022 C 
HETATM   21  C   UNL     1     -40.520  54.730 -52.509  1.00  0.00     0.022 C 
BRANCH  19  22
HETATM   22  C   UNL     1     -40.404  52.306 -53.376  1.00  0.00    -0.048 A 
HETATM   23  C   UNL     1     -40.468  51.320 -54.381  1.00  0.00     0.008 A 
HETATM   24  C   UNL     1     -40.041  50.009 -54.147  1.00  0.00     0.001 A 
HETATM   25  C   UNL     1     -39.542  49.648 -52.903  1.00  0.00     0.000 A 
HETATM   26  C   UNL     1     -39.461  50.600 -51.895  1.00  0.00     0.001 A 
HETATM   27  C   UNL     1     -39.883  51.913 -52.129  1.00  0.00     0.008 A 
ENDBRANCH  19  22
ENDBRANCH  17  19
ENDBRANCH   1  17
TORSDOF 6
ENDMDL
MODEL 3
REMARK VINA RESULT:      -7.8      1.425      1.849
REMARK  6 active torsions:
REMARK  status: ('A' for Active; 'I' for Inactive)
REMARK    1  A    between atoms: C_8  and  N_9 
REMARK       I    between atoms: N_9  and  C_10 
REMARK    2  A    between atoms: C_10  and  C_11 
REMARK    3  A    between atoms: C_11  and  N_12 
REMARK    4  A    between atoms: N_12  and  C_15 
REMARK    5  A    between atoms: C_15  and  C_16 
REMARK    6  A    between atoms: C_16  and  C_17 
ROOT
HETATM    1  N   UNL     1     -42.676  54.819 -55.409  1.00  0.00    -0.062 N 
HETATM    2  H   UNL     1     -43.342  54.388 -56.066  1.00  0.00     0.278 HD
HETATM    3  H   UNL     1     -41.792  54.923 -55.932  1.00  0.00     0.278 HD
ENDROOT
BRANCH   1   4
HETATM    4  C   UNL     1     -43.072  56.243 -55.100  1.00  0.00     0.335 C 
BRANCH   4   5
HETATM    5  C   UNL     1     -43.264  57.065 -56.375  1.00  0.00     0.248 C 
HETATM    6  N   UNL     1     -44.029  56.444 -57.334  1.00  0.00    -0.322 N 
HETATM    7  H   UNL     1     -44.314  55.480 -57.198  1.00  0.00     0.169 HD
HETATM    8  O   UNL     1     -42.765  58.187 -56.417  1.00  0.00    -0.271 OA
BRANCH   6   9
HETATM    9  C   UNL     1     -44.457  56.989 -58.537  1.00  0.00     0.085 A 
HETATM   10  C   UNL     1     -43.661  56.942 -59.669  1.00  0.00     0.052 A 
HETATM   11  C   UNL     1     -42.309  56.394 -59.932  1.00  0.00     0.072 C 
HETATM   12  N   UNL     1     -44.380  57.553 -60.659  1.00  0.00    -0.280 N 
HETATM   13  H   UNL     1     -44.115  57.709 -61.627  1.00  0.00     0.189 HD
HETATM   14  N   UNL     1     -45.580  57.975 -60.262  1.00  0.00    -0.177 NA
HETATM   15  C   UNL     1     -45.648  57.649 -58.965  1.00  0.00     0.079 A 
HETATM   16  C   UNL     1     -46.891  58.002 -58.237  1.00  0.00     0.075 C 
ENDBRANCH   6   9
ENDBRANCH   4   5
ENDBRANCH   1   4
BRANCH   1  17
HETATM   17  C   UNL     1     -42.380  53.860 -54.256  1.00  0.00     0.194 C 
HETATM   18  C   UNL     1     -43.312  54.297 -53.116  1.00  0.00     0.041 C 
BRANCH  17  19
HETATM   19  C   UNL     1     -40.839  53.785 -53.884  1.00  0.00     0.007 C 
HETATM   20  C   UNL     1     -39.964  54.310 -55.058  1.00  0.00     0.022 C 
HETATM   21  C   UNL     1     -40.547  54.802 -52.743  1.00  0.00     0.022 C 
BRANCH  19  22
HETATM   22  C   UNL     1     -40.419  52.347 -53.514  1.00  0.00    -0.048 A 
HETATM   23  C   UNL     1     -39.919  52.049 -52.232  1.00  0.00     0.008 A 
HETATM   24  C   UNL     1     -39.497  50.759 -51.893  1.00  0.00     0.001 A 
HETATM   25  C   UNL     1     -39.560  49.735 -52.827  1.00  0.00     0.000 A 
HETATM   26  C   UNL     1     -40.055  49.997 -54.098  1.00  0.00     0.001 A 
HETATM   27  C   UNL     1     -40.483  51.285 -54.437  1.00  0.00     0.008 A 
ENDBRANCH  19  22
ENDBRANCH  17  19
ENDBRANCH   1  17
TORSDOF 6
ENDMDL
MODEL 4
REMARK VINA RESULT:      -7.6      1.687      2.083
REMARK  6 active torsions:
REMARK  status: ('A' for Active; 'I' for Inactive)
REMARK    1  A    between atoms: C_8  and  N_9 
REMARK       I    between atoms: N_9  and  C_10 
REMARK    2  A    between atoms: C_10  and  C_11 
REMARK    3  A    between atoms: C_11  and  N_12 
REMARK    4  A    between atoms: N_12  and  C_15 
REMARK    5  A    between atoms: C_15  and  C_16 
REMARK    6  A    between atoms: C_16  and  C_17 
ROOT
HETATM    1  N   UNL     1     -43.568  55.213 -53.161  1.00  0.00    -0.062 N 
HETATM    2  H   UNL     1     -42.965  56.042 -53.265  1.00  0.00     0.278 HD
HETATM    3  H   UNL     1     -44.464  55.563 -52.786  1.00  0.00     0.278 HD
ENDROOT
BRANCH   1   4
HETATM    4  C   UNL     1     -43.947  54.653 -54.511  1.00  0.00     0.335 C 
BRANCH   4   5
HETATM    5  C   UNL     1     -43.095  55.251 -55.631  1.00  0.00     0.248 C 
HETATM    6  N   UNL     1     -43.595  56.422 -56.151  1.00  0.00    -0.322 N 
HETATM    7  H   UNL     1     -44.510  56.748 -55.860  1.00  0.00     0.169 HD
HETATM    8  O   UNL     1     -42.055  54.673 -55.935  1.00  0.00    -0.271 OA
BRANCH   6   9
HETATM    9  C   UNL     1     -42.985  57.240 -57.094  1.00  0.00     0.085 A 
HETATM   10  C   UNL     1     -42.486  58.484 -56.746  1.00  0.00     0.052 A 
HETATM   11  C   UNL     1     -42.449  59.239 -55.471  1.00  0.00     0.072 C 
HETATM   12  N   UNL     1     -41.954  59.008 -57.892  1.00  0.00    -0.280 N 
HETATM   13  H   UNL     1     -41.503  59.909 -58.025  1.00  0.00     0.189 HD
HETATM   14  N   UNL     1     -42.055  58.197 -58.945  1.00  0.00    -0.177 NA
HETATM   15  C   UNL     1     -42.690  57.112 -58.483  1.00  0.00     0.079 A 
HETATM   16  C   UNL     1     -42.952  56.014 -59.446  1.00  0.00     0.075 C 
ENDBRANCH   6   9
ENDBRANCH   4   5
ENDBRANCH   1   4
BRANCH   1  17
HETATM   17  C   UNL     1     -42.996  54.276 -52.098  1.00  0.00     0.194 C 
HETATM   18  C   UNL     1     -43.795  54.574 -50.821  1.00  0.00     0.041 C 
BRANCH  17  19
HETATM   19  C   UNL     1     -41.419  54.382 -51.955  1.00  0.00     0.007 C 
HETATM   20  C   UNL     1     -40.875  55.602 -52.752  1.00  0.00     0.022 C 
HETATM   21  C   UNL     1     -41.072  54.740 -50.480  1.00  0.00     0.022 C 
BRANCH  19  22
HETATM   22  C   UNL     1     -40.722  53.089 -52.428  1.00  0.00    -0.048 A 
HETATM   23  C   UNL     1     -40.796  52.681 -53.774  1.00  0.00     0.008 A 
HETATM   24  C   UNL     1     -40.203  51.491 -54.211  1.00  0.00     0.001 A 
HETATM   25  C   UNL     1     -39.525  50.678 -53.314  1.00  0.00     0.000 A 
HETATM   26  C   UNL     1     -39.431  51.057 -51.981  1.00  0.00     0.001 A 
HETATM   27  C   UNL     1     -40.019  52.249 -51.543  1.00  0.00     0.008 A 
ENDBRANCH  19  22
ENDBRANCH  17  19
ENDBRANCH   1  17
TORSDOF 6
ENDMDL
MODEL 5
REMARK VINA RESULT:      -7.6      0.880      1.832
REMARK  6 active torsions:
REMARK  status: ('A' for Active; 'I' for Inactive)
REMARK    1  A    between atoms: C_8  and  N_9 
REMARK       I    between atoms: N_9  and  C_10 
REMARK    2  A    between atoms: C_10  and  C_11 
REMARK    3  A    between atoms: C_11  and  N_12 
REMARK    4  A    between atoms: N_12  and  C_15 
REMARK    5  A    between atoms: C_15  and  C_16 
REMARK    6  A    between atoms: C_16  and  C_17 
ROOT
HETATM    1  N   UNL     1     -42.990  55.370 -54.456  1.00  0.00    -0.062 N 
HETATM    2  H   UNL     1     -43.470  54.477 -54.273  1.00  0.00     0.278 HD
HETATM    3  H   UNL     1     -42.563  55.275 -55.390  1.00  0.00     0.278 HD
ENDROOT
BRANCH   1   4
HETATM    4  C   UNL     1     -43.989  56.488 -54.638  1.00  0.00     0.335 C 
BRANCH   4   5
HETATM    5  C   UNL     1     -44.018  56.991 -56.081  1.00  0.00     0.248 C 
HETATM    6  N   UNL     1     -43.290  56.222 -56.958  1.00  0.00    -0.322 N 
HETATM    7  H   UNL     1     -42.712  55.470 -56.602  1.00  0.00     0.169 HD
HETATM    8  O   UNL     1     -44.695  57.986 -56.330  1.00  0.00    -0.271 OA
BRANCH   6   9
HETATM    9  C   UNL     1     -43.224  56.373 -58.338  1.00  0.00     0.085 A 
HETATM   10  C   UNL     1     -42.560  57.445 -58.910  1.00  0.00     0.052 A 
HETATM   11  C   UNL     1     -41.827  58.601 -58.341  1.00  0.00     0.072 C 
HETATM   12  N   UNL     1     -42.680  57.282 -60.262  1.00  0.00    -0.280 N 
HETATM   13  H   UNL     1     -42.323  57.877 -61.004  1.00  0.00     0.189 HD
HETATM   14  N   UNL     1     -43.353  56.185 -60.608  1.00  0.00    -0.177 NA
HETATM   15  C   UNL     1     -43.704  55.616 -59.447  1.00  0.00     0.079 A 
HETATM   16  C   UNL     1     -44.481  54.353 -59.513  1.00  0.00     0.075 C 
ENDBRANCH   6   9
ENDBRANCH   4   5
ENDBRANCH   1   4
BRANCH   1  17
HETATM   17  C   UNL     1     -41.834  55.556 -53.474  1.00  0.00     0.194 C 
HETATM   18  C   UNL     1     -40.569  55.620 -54.343  1.00  0.00     0.041 C 
BRANCH  17  19
HETATM   19  C   UNL     1     -41.812  54.468 -52.320  1.00  0.00     0.007 C 
HETATM   20  C   UNL     1     -41.207  55.060 -51.016  1.00  0.00     0.022 C 
HETATM   21  C   UNL     1     -43.278  54.139 -51.912  1.00  0.00     0.022 C 
BRANCH  19  22
HETATM   22  C   UNL     1     -41.023  53.211 -52.745  1.00  0.00    -0.048 A 
HETATM   23  C   UNL     1     -40.026  52.669 -51.911  1.00  0.00     0.008 A 
HETATM   24  C   UNL     1     -39.275  51.555 -52.298  1.00  0.00     0.001 A 
HETATM   25  C   UNL     1     -39.498  50.955 -53.530  1.00  0.00     0.000 A 
HETATM   26  C   UNL     1     -40.479  51.464 -54.372  1.00  0.00     0.001 A 
HETATM   27  C   UNL     1     -41.235  52.575 -53.983  1.00  0.00     0.008 A 
ENDBRANCH  19  22
ENDBRANCH  17  19
ENDBRANCH   1  17
TORSDOF 6
ENDMDL
MODEL 6
REMARK VINA RESULT:      -7.5      1.576      2.271
REMARK  6 active torsions:
REMARK  status: ('A' for Active; 'I' for Inactive)
REMARK    1  A    between atoms: C_8  and  N_9 
REMARK       I    between atoms: N_9  and  C_10 
REMARK    2  A    between atoms: C_10  and  C_11 
REMARK    3  A    between atoms: C_11  and  N_12 
REMARK    4  A    between atoms: N_12  and  C_15 
REMARK    5  A    between atoms: C_15  and  C_16 
REMARK    6  A    between atoms: C_16  and  C_17 
ROOT
HETATM    1  N   UNL     1     -43.637  55.607 -53.124  1.00  0.00    -0.062 N 
HETATM    2  H   UNL     1     -44.311  55.167 -52.480  1.00  0.00     0.278 HD
HETATM    3  H   UNL     1     -43.845  55.219 -54.057  1.00  0.00     0.278 HD
ENDROOT
BRANCH   1   4
HETATM    4  C   UNL     1     -43.930  57.080 -53.282  1.00  0.00     0.335 C 
BRANCH   4   5
HETATM    5  C   UNL     1     -44.090  57.470 -54.751  1.00  0.00     0.248 C 
HETATM    6  N   UNL     1     -42.902  57.694 -55.406  1.00  0.00    -0.322 N 
HETATM    7  H   UNL     1     -42.035  57.699 -54.880  1.00  0.00     0.169 HD
HETATM    8  O   UNL     1     -45.228  57.516 -55.214  1.00  0.00    -0.271 OA
BRANCH   6   9
HETATM    9  C   UNL     1     -42.735  57.953 -56.760  1.00  0.00     0.085 A 
HETATM   10  C   UNL     1     -42.374  59.212 -57.209  1.00  0.00     0.052 A 
HETATM   11  C   UNL     1     -42.099  60.493 -56.515  1.00  0.00     0.072 C 
HETATM   12  N   UNL     1     -42.290  59.116 -58.570  1.00  0.00    -0.280 N 
HETATM   13  H   UNL     1     -42.054  59.841 -59.242  1.00  0.00     0.189 HD
HETATM   14  N   UNL     1     -42.552  57.894 -59.034  1.00  0.00    -0.177 NA
HETATM   15  C   UNL     1     -42.835  57.166 -57.946  1.00  0.00     0.079 A 
HETATM   16  C   UNL     1     -43.174  55.736 -58.150  1.00  0.00     0.075 C 
ENDBRANCH   6   9
ENDBRANCH   4   5
ENDBRANCH   1   4
BRANCH   1  17
HETATM   17  C   UNL     1     -42.216  55.162 -52.782  1.00  0.00     0.194 C 
HETATM   18  C   UNL     1     -41.483  56.441 -52.349  1.00  0.00     0.041 C 
BRANCH  17  19
HETATM   19  C   UNL     1     -41.520  54.339 -53.946  1.00  0.00     0.007 C 
HETATM   20  C   UNL     1     -42.557  53.945 -55.036  1.00  0.00     0.022 C 
HETATM   21  C   UNL     1     -40.544  55.278 -54.711  1.00  0.00     0.022 C 
BRANCH  19  22
HETATM   22  C   UNL     1     -40.819  53.076 -53.402  1.00  0.00    -0.048 A 
HETATM   23  C   UNL     1     -40.473  52.972 -52.041  1.00  0.00     0.008 A 
HETATM   24  C   UNL     1     -39.803  51.852 -51.540  1.00  0.00     0.001 A 
HETATM   25  C   UNL     1     -39.458  50.807 -52.386  1.00  0.00     0.000 A 
HETATM   26  C   UNL     1     -39.792  50.878 -53.733  1.00  0.00     0.001 A 
HETATM   27  C   UNL     1     -40.468  51.996 -54.235  1.00  0.00     0.008 A 
ENDBRANCH  19  22
ENDBRANCH  17  19
ENDBRANCH   1  17
TORSDOF 6
ENDMDL
MODEL 7
REMARK VINA RESULT:      -7.5      3.817      5.234
REMARK  6 active torsions:
REMARK  status: ('A' for Active; 'I' for Inactive)
REMARK    1  A    between atoms: C_8  and  N_9 
REMARK       I    between atoms: N_9  and  C_10 
REMARK    2  A    between atoms: C_10  and  C_11 
REMARK    3  A    between atoms: C_11  and  N_12 
REMARK    4  A    between atoms: N_12  and  C_15 
REMARK    5  A    between atoms: C_15  and  C_16 
REMARK    6  A    between atoms: C_16  and  C_17 
ROOT
HETATM    1  N   UNL     1     -42.447  54.973 -52.212  1.00  0.00    -0.062 N 
HETATM    2  H   UNL     1     -42.767  54.011 -52.029  1.00  0.00     0.278 HD
HETATM    3  H   UNL     1     -43.120  55.370 -52.886  1.00  0.00     0.278 HD
ENDROOT
BRANCH   1   4
HETATM    4  C   UNL     1     -42.623  55.838 -50.987  1.00  0.00     0.335 C 
BRANCH   4   5
HETATM    5  C   UNL     1     -43.841  56.754 -51.111  1.00  0.00     0.248 C 
HETATM    6  N   UNL     1     -43.632  57.862 -51.898  1.00  0.00    -0.322 N 
HETATM    7  H   UNL     1     -42.700  58.062 -52.241  1.00  0.00     0.169 HD
HETATM    8  O   UNL     1     -44.877  56.413 -50.545  1.00  0.00    -0.271 OA
BRANCH   6   9
HETATM    9  C   UNL     1     -44.581  58.804 -52.276  1.00  0.00     0.085 A 
HETATM   10  C   UNL     1     -44.921  58.984 -53.606  1.00  0.00     0.052 A 
HETATM   11  C   UNL     1     -44.459  58.348 -54.863  1.00  0.00     0.072 C 
HETATM   12  N   UNL     1     -45.874  59.964 -53.620  1.00  0.00    -0.280 N 
HETATM   13  H   UNL     1     -46.356  60.366 -54.420  1.00  0.00     0.189 HD
HETATM   14  N   UNL     1     -46.187  60.419 -52.407  1.00  0.00    -0.177 NA
HETATM   15  C   UNL     1     -45.403  59.730 -51.568  1.00  0.00     0.079 A 
HETATM   16  C   UNL     1     -45.529  60.025 -50.119  1.00  0.00     0.075 C 
ENDBRANCH   6   9
ENDBRANCH   4   5
ENDBRANCH   1   4
BRANCH   1  17
HETATM   17  C   UNL     1     -41.093  54.949 -52.921  1.00  0.00     0.194 C 
HETATM   18  C   UNL     1     -40.847  56.397 -53.373  1.00  0.00     0.041 C 
BRANCH  17  19
HETATM   19  C   UNL     1     -41.005  53.854 -54.065  1.00  0.00     0.007 C 
HETATM   20  C   UNL     1     -42.386  53.670 -54.757  1.00  0.00     0.022 C 
HETATM   21  C   UNL     1     -40.105  54.398 -55.213  1.00  0.00     0.022 C 
BRANCH  19  22
HETATM   22  C   UNL     1     -40.506  52.502 -53.514  1.00  0.00    -0.048 A 
HETATM   23  C   UNL     1     -40.052  52.388 -52.185  1.00  0.00     0.008 A 
HETATM   24  C   UNL     1     -39.560  51.179 -51.682  1.00  0.00     0.001 A 
HETATM   25  C   UNL     1     -39.505  50.055 -52.494  1.00  0.00     0.000 A 
HETATM   26  C   UNL     1     -39.952  50.135 -53.807  1.00  0.00     0.001 A 
HETATM   27  C   UNL     1     -40.449  51.342 -54.310  1.00  0.00     0.008 A 
ENDBRANCH  19  22
ENDBRANCH  17  19
ENDBRANCH   1  17
TORSDOF 6
ENDMDL
MODEL 8
REMARK VINA RESULT:      -7.5      3.393      5.458
REMARK  6 active torsions:
REMARK  status: ('A' for Active; 'I' for Inactive)
REMARK    1  A    between atoms: C_8  and  N_9 
REMARK       I    between atoms: N_9  and  C_10 
REMARK    2  A    between atoms: C_10  and  C_11 
REMARK    3  A    between atoms: C_11  and  N_12 
REMARK    4  A    between atoms: N_12  and  C_15 
REMARK    5  A    between atoms: C_15  and  C_16 
REMARK    6  A    between atoms: C_16  and  C_17 
ROOT
HETATM    1  N   UNL     1     -41.260  56.001 -55.284  1.00  0.00    -0.062 N 
HETATM    2  H   UNL     1     -40.624  56.027 -56.094  1.00  0.00     0.278 HD
HETATM    3  H   UNL     1     -40.695  56.302 -54.474  1.00  0.00     0.278 HD
ENDROOT
BRANCH   1   4
HETATM    4  C   UNL     1     -42.315  57.076 -55.395  1.00  0.00     0.335 C 
BRANCH   4   5
HETATM    5  C   UNL     1     -42.074  58.211 -54.400  1.00  0.00     0.248 C 
HETATM    6  N   UNL     1     -42.642  58.005 -53.165  1.00  0.00    -0.322 N 
HETATM    7  H   UNL     1     -43.253  57.208 -53.023  1.00  0.00     0.169 HD
HETATM    8  O   UNL     1     -41.388  59.162 -54.767  1.00  0.00    -0.271 OA
BRANCH   6   9
HETATM    9  C   UNL     1     -42.499  58.807 -52.040  1.00  0.00     0.085 A 
HETATM   10  C   UNL     1     -43.602  59.334 -51.391  1.00  0.00     0.052 A 
HETATM   11  C   UNL     1     -45.061  59.244 -51.640  1.00  0.00     0.072 C 
HETATM   12  N   UNL     1     -43.110  60.054 -50.338  1.00  0.00    -0.280 N 
HETATM   13  H   UNL     1     -43.623  60.586 -49.641  1.00  0.00     0.189 HD
HETATM   14  N   UNL     1     -41.780  60.021 -50.246  1.00  0.00    -0.177 NA
HETATM   15  C   UNL     1     -41.383  59.270 -51.282  1.00  0.00     0.079 A 
HETATM   16  C   UNL     1     -39.924  59.051 -51.446  1.00  0.00     0.075 C 
ENDBRANCH   6   9
ENDBRANCH   4   5
ENDBRANCH   1   4
BRANCH   1  17
HETATM   17  C   UNL     1     -41.687  54.563 -54.997  1.00  0.00     0.194 C 
HETATM   18  C   UNL     1     -43.122  54.451 -55.534  1.00  0.00     0.041 C 
BRANCH  17  19
HETATM   19  C   UNL     1     -41.494  54.143 -53.479  1.00  0.00     0.007 C 
HETATM   20  C   UNL     1     -40.701  55.234 -52.704  1.00  0.00     0.022 C 
HETATM   21  C   UNL     1     -42.882  54.149 -52.776  1.00  0.00     0.022 C 
BRANCH  19  22
HETATM   22  C   UNL     1     -40.776  52.782 -53.358  1.00  0.00    -0.048 A 
HETATM   23  C   UNL     1     -40.788  51.862 -54.425  1.00  0.00     0.008 A 
HETATM   24  C   UNL     1     -40.177  50.609 -54.317  1.00  0.00     0.001 A 
HETATM   25  C   UNL     1     -39.540  50.241 -53.140  1.00  0.00     0.000 A 
HETATM   26  C   UNL     1     -39.507  51.130 -52.073  1.00  0.00     0.001 A 
HETATM   27  C   UNL     1     -40.113  52.386 -52.181  1.00  0.00     0.008 A 
ENDBRANCH  19  22
ENDBRANCH  17  19
ENDBRANCH   1  17
TORSDOF 6
ENDMDL
MODEL 9
REMARK VINA RESULT:      -7.3      1.652      2.412
REMARK  6 active torsions:
REMARK  status: ('A' for Active; 'I' for Inactive)
REMARK    1  A    between atoms: C_8  and  N_9 
REMARK       I    between atoms: N_9  and  C_10 
REMARK    2  A    between atoms: C_10  and  C_11 
REMARK    3  A    between atoms: C_11  and  N_12 
REMARK    4  A    between atoms: N_12  and  C_15 
REMARK    5  A    between atoms: C_15  and  C_16 
REMARK    6  A    between atoms: C_16  and  C_17 
ROOT
HETATM    1  N   UNL     1     -43.564  57.553 -54.019  1.00  0.00    -0.062 N 
HETATM    2  H   UNL     1     -42.747  57.717 -54.625  1.00  0.00     0.278 HD
HETATM    3  H   UNL     1     -43.786  58.467 -53.593  1.00  0.00     0.278 HD
ENDROOT
BRANCH   1   4
HETATM    4  C   UNL     1     -44.790  57.241 -54.843  1.00  0.00     0.335 C 
BRANCH   4   5
HETATM    5  C   UNL     1     -44.565  57.540 -56.326  1.00  0.00     0.248 C 
HETATM    6  N   UNL     1     -43.591  56.768 -56.913  1.00  0.00    -0.322 N 
HETATM    7  H   UNL     1     -43.025  56.154 -56.337  1.00  0.00     0.169 HD
HETATM    8  O   UNL     1     -45.275  58.392 -56.855  1.00  0.00    -0.271 OA
BRANCH   6   9
HETATM    9  C   UNL     1     -43.250  56.742 -58.259  1.00  0.00     0.085 A 
HETATM   10  C   UNL     1     -42.453  57.729 -58.815  1.00  0.00     0.052 A 
HETATM   11  C   UNL     1     -41.811  58.944 -58.258  1.00  0.00     0.072 C 
HETATM   12  N   UNL     1     -42.310  57.397 -60.134  1.00  0.00    -0.280 N 
HETATM   13  H   UNL     1     -41.795  57.891 -60.857  1.00  0.00     0.189 HD
HETATM   14  N   UNL     1     -42.936  56.269 -60.470  1.00  0.00    -0.177 NA
HETATM   15  C   UNL     1     -43.526  55.854 -59.341  1.00  0.00     0.079 A 
HETATM   16  C   UNL     1     -44.313  54.598 -59.405  1.00  0.00     0.075 C 
ENDBRANCH   6   9
ENDBRANCH   4   5
ENDBRANCH   1   4
BRANCH   1  17
HETATM   17  C   UNL     1     -43.184  56.624 -52.866  1.00  0.00     0.194 C 
HETATM   18  C   UNL     1     -43.973  57.139 -51.653  1.00  0.00     0.041 C 
BRANCH  17  19
HETATM   19  C   UNL     1     -41.617  56.498 -52.655  1.00  0.00     0.007 C 
HETATM   20  C   UNL     1     -40.878  57.715 -53.279  1.00  0.00     0.022 C 
HETATM   21  C   UNL     1     -41.302  56.634 -51.137  1.00  0.00     0.022 C 
BRANCH  19  22
HETATM   22  C   UNL     1     -41.072  55.184 -53.255  1.00  0.00    -0.048 A 
HETATM   23  C   UNL     1     -40.644  55.127 -54.596  1.00  0.00     0.008 A 
HETATM   24  C   UNL     1     -40.184  53.936 -55.166  1.00  0.00     0.001 A 
HETATM   25  C   UNL     1     -40.143  52.771 -54.413  1.00  0.00     0.000 A 
HETATM   26  C   UNL     1     -40.553  52.798 -53.086  1.00  0.00     0.001 A 
HETATM   27  C   UNL     1     -41.008  53.990 -52.512  1.00  0.00     0.008 A 
ENDBRANCH  19  22
ENDBRANCH  17  19
ENDBRANCH   1  17
TORSDOF 6
ENDMDL
MODEL 10
REMARK VINA RESULT:      -7.1      1.941      3.176
REMARK  6 active torsions:
REMARK  status: ('A' for Active; 'I' for Inactive)
REMARK    1  A    between atoms: C_8  and  N_9 
REMARK       I    between atoms: N_9  and  C_10 
REMARK    2  A    between atoms: C_10  and  C_11 
REMARK    3  A    between atoms: C_11  and  N_12 
REMARK    4  A    between atoms: N_12  and  C_15 
REMARK    5  A    between atoms: C_15  and  C_16 
REMARK    6  A    between atoms: C_16  and  C_17 
ROOT
HETATM    1  N   UNL     1     -44.014  56.039 -53.702  1.00  0.00    -0.062 N 
HETATM    2  H   UNL     1     -44.723  55.320 -53.504  1.00  0.00     0.278 HD
HETATM    3  H   UNL     1     -43.283  55.568 -54.258  1.00  0.00     0.278 HD
ENDROOT
BRANCH   1   4
HETATM    4  C   UNL     1     -44.558  57.083 -54.649  1.00  0.00     0.335 C 
BRANCH   4   5
HETATM    5  C   UNL     1     -44.068  56.860 -56.079  1.00  0.00     0.248 C 
HETATM    6  N   UNL     1     -44.715  57.627 -57.020  1.00  0.00    -0.322 N 
HETATM    7  H   UNL     1     -45.515  58.185 -56.745  1.00  0.00     0.169 HD
HETATM    8  O   UNL     1     -43.147  56.066 -56.255  1.00  0.00    -0.271 OA
BRANCH   6   9
HETATM    9  C   UNL     1     -44.410  57.715 -58.372  1.00  0.00     0.085 A 
HETATM   10  C   UNL     1     -45.366  57.459 -59.340  1.00  0.00     0.052 A 
HETATM   11  C   UNL     1     -46.793  57.063 -59.273  1.00  0.00     0.072 C 
HETATM   12  N   UNL     1     -44.741  57.643 -60.543  1.00  0.00    -0.280 N 
HETATM   13  H   UNL     1     -45.126  57.540 -61.477  1.00  0.00     0.189 HD
HETATM   14  N   UNL     1     -43.465  58.012 -60.429  1.00  0.00    -0.177 NA
HETATM   15  C   UNL     1     -43.236  58.055 -59.109  1.00  0.00     0.079 A 
HETATM   16  C   UNL     1     -41.874  58.441 -58.666  1.00  0.00     0.075 C 
ENDBRANCH   6   9
ENDBRANCH   4   5
ENDBRANCH   1   4
BRANCH   1  17
HETATM   17  C   UNL     1     -43.343  56.487 -52.404  1.00  0.00     0.194 C 
HETATM   18  C   UNL     1     -43.989  57.837 -52.058  1.00  0.00     0.041 C 
BRANCH  17  19
HETATM   19  C   UNL     1     -41.759  56.492 -52.488  1.00  0.00     0.007 C 
HETATM   20  C   UNL     1     -41.250  57.775 -53.205  1.00  0.00     0.022 C 
HETATM   21  C   UNL     1     -41.179  56.636 -51.051  1.00  0.00     0.022 C 
BRANCH  19  22
HETATM   22  C   UNL     1     -41.229  55.236 -53.214  1.00  0.00    -0.048 A 
HETATM   23  C   UNL     1     -41.368  53.958 -52.638  1.00  0.00     0.008 A 
HETATM   24  C   UNL     1     -40.859  52.815 -53.264  1.00  0.00     0.001 A 
HETATM   25  C   UNL     1     -40.196  52.920 -54.479  1.00  0.00     0.000 A 
HETATM   26  C   UNL     1     -40.050  54.167 -55.074  1.00  0.00     0.001 A 
HETATM   27  C   UNL     1     -40.563  55.310 -54.452  1.00  0.00     0.008 A 
ENDBRANCH  19  22
ENDBRANCH  17  19
ENDBRANCH   1  17
TORSDOF 6
ENDMDL
