MODEL 1
REMARK VINA RESULT:      -7.9      0.000      0.000
REMARK  9 active torsions:
REMARK  status: ('A' for Active; 'I' for Inactive)
REMARK    1  A    between atoms: O_2  and  C_3 
REMARK    2  A    between atoms: C_6  and  C_7 
REMARK    3  A    between atoms: C_7  and  N_8 
REMARK       I    between atoms: N_8  and  C_9 
REMARK    4  A    between atoms: C_9  and  C_10 
REMARK    5  A    between atoms: C_10  and  S_11 
REMARK    6  A    between atoms: S_11  and  C_12 
REMARK    7  A    between atoms: N_13  and  C_14 
REMARK    8  A    between atoms: C_14  and  C_15 
REMARK    9  A    between atoms: C_21  and  C_22 
ROOT
HETATM    1  C   UNL     1     -42.326  58.500 -53.971  1.00  0.00     0.192 A 
HETATM    2  N   UNL     1     -42.212  58.340 -52.616  1.00  0.00    -0.307 N 
HETATM    3  C   UNL     1     -40.918  58.700 -52.319  1.00  0.00     0.135 A 
HETATM    4  N   UNL     1     -40.327  59.126 -53.417  1.00  0.00    -0.134 NA
HETATM    5  N   UNL     1     -41.216  59.001 -54.456  1.00  0.00    -0.123 NA
ENDROOT
BRANCH   1   6
HETATM    6  S   UNL     1     -43.716  58.044 -54.886  1.00  0.00    -0.081 SA
BRANCH   6   7
HETATM    7  C   UNL     1     -43.519  56.251 -55.028  1.00  0.00     0.185 C 
BRANCH   7   8
HETATM    8  C   UNL     1     -42.445  55.744 -55.978  1.00  0.00     0.227 C 
HETATM    9  N   UNL     1     -41.251  55.258 -55.538  1.00  0.00    -0.356 N 
HETATM   10  H   UNL     1     -40.677  54.914 -56.300  1.00  0.00     0.162 HD
HETATM   11  O   UNL     1     -42.679  55.640 -57.186  1.00  0.00    -0.273 OA
BRANCH   9  12
HETATM   12  C   UNL     1     -40.727  55.167 -54.196  1.00  0.00     0.161 C 
BRANCH  12  13
HETATM   13  C   UNL     1     -40.456  53.743 -53.781  1.00  0.00    -0.040 A 
HETATM   14  C   UNL     1     -40.604  52.688 -54.695  1.00  0.00     0.011 A 
HETATM   15  C   UNL     1     -40.310  51.370 -54.324  1.00  0.00     0.037 A 
HETATM   16  C   UNL     1     -39.848  51.091 -53.040  1.00  0.00     0.068 A 
HETATM   17  C   UNL     1     -39.695  52.138 -52.129  1.00  0.00     0.037 A 
HETATM   18  C   UNL     1     -39.995  53.454 -52.492  1.00  0.00     0.011 A 
BRANCH  16  19
HETATM   19  O   UNL     1     -39.510  49.857 -52.556  1.00  0.00    -0.356 OA
HETATM   20  C   UNL     1     -39.592  49.674 -51.148  1.00  0.00     0.210 C 
ENDBRANCH  16  19
ENDBRANCH  12  13
ENDBRANCH   9  12
ENDBRANCH   7   8
ENDBRANCH   6   7
ENDBRANCH   1   6
BRANCH   2  21
HETATM   21  C   UNL     1     -43.190  57.804 -51.688  1.00  0.00     0.171 C 
BRANCH  21  22
HETATM   22  C   UNL     1     -42.899  56.399 -51.205  1.00  0.00    -0.040 A 
HETATM   23  C   UNL     1     -42.003  56.116 -50.162  1.00  0.00     0.009 A 
HETATM   24  C   UNL     1     -41.780  54.799 -49.755  1.00  0.00     0.001 A 
HETATM   25  C   UNL     1     -42.467  53.750 -50.362  1.00  0.00     0.000 A 
HETATM   26  C   UNL     1     -43.384  54.017 -51.375  1.00  0.00     0.001 A 
HETATM   27  C   UNL     1     -43.601  55.332 -51.791  1.00  0.00     0.009 A 
ENDBRANCH  21  22
ENDBRANCH   2  21
BRANCH   3  28
HETATM   28  C   UNL     1     -40.237  58.636 -50.959  1.00  0.00     0.057 A 
HETATM   29  C   UNL     1     -39.112  59.612 -50.681  1.00  0.00     0.013 A 
HETATM   30  C   UNL     1     -40.431  59.804 -50.015  1.00  0.00     0.013 A 
ENDBRANCH   3  28
TORSDOF 9
ENDMDL
MODEL 2
REMARK VINA RESULT:      -7.8      2.506      5.186
REMARK  9 active torsions:
REMARK  status: ('A' for Active; 'I' for Inactive)
REMARK    1  A    between atoms: O_2  and  C_3 
REMARK    2  A    between atoms: C_6  and  C_7 
REMARK    3  A    between atoms: C_7  and  N_8 
REMARK       I    between atoms: N_8  and  C_9 
REMARK    4  A    between atoms: C_9  and  C_10 
REMARK    5  A    between atoms: C_10  and  S_11 
REMARK    6  A    between atoms: S_11  and  C_12 
REMARK    7  A    between atoms: N_13  and  C_14 
REMARK    8  A    between atoms: C_14  and  C_15 
REMARK    9  A    between atoms: C_21  and  C_22 
ROOT
HETATM    1  C   UNL     1     -42.097  59.080 -55.240  1.00  0.00     0.192 A 
HETATM    2  N   UNL     1     -42.753  57.945 -55.634  1.00  0.00    -0.307 N 
HETATM    3  C   UNL     1     -42.913  58.076 -56.994  1.00  0.00     0.135 A 
HETATM    4  N   UNL     1     -42.315  59.180 -57.392  1.00  0.00    -0.134 NA
HETATM    5  N   UNL     1     -41.801  59.810 -56.286  1.00  0.00    -0.123 NA
ENDROOT
BRANCH   1   6
HETATM    6  S   UNL     1     -41.776  59.489 -53.595  1.00  0.00    -0.081 SA
BRANCH   6   7
HETATM    7  C   UNL     1     -43.438  59.716 -52.917  1.00  0.00     0.185 C 
BRANCH   7   8
HETATM    8  C   UNL     1     -43.584  59.660 -51.404  1.00  0.00     0.227 C 
HETATM    9  N   UNL     1     -43.933  58.520 -50.745  1.00  0.00    -0.356 N 
HETATM   10  H   UNL     1     -43.932  58.647 -49.739  1.00  0.00     0.162 HD
HETATM   11  O   UNL     1     -43.262  60.630 -50.709  1.00  0.00    -0.273 OA
BRANCH   9  12
HETATM   12  C   UNL     1     -44.282  57.220 -51.267  1.00  0.00     0.161 C 
BRANCH  12  13
HETATM   13  C   UNL     1     -43.157  56.226 -51.127  1.00  0.00    -0.040 A 
HETATM   14  C   UNL     1     -43.407  54.846 -51.172  1.00  0.00     0.011 A 
HETATM   15  C   UNL     1     -42.358  53.922 -51.087  1.00  0.00     0.037 A 
HETATM   16  C   UNL     1     -41.042  54.366 -50.973  1.00  0.00     0.068 A 
HETATM   17  C   UNL     1     -40.789  55.738 -50.932  1.00  0.00     0.037 A 
HETATM   18  C   UNL     1     -41.833  56.663 -51.008  1.00  0.00     0.011 A 
BRANCH  16  19
HETATM   19  O   UNL     1     -39.929  53.575 -50.898  1.00  0.00    -0.356 OA
HETATM   20  C   UNL     1     -40.114  52.182 -51.113  1.00  0.00     0.210 C 
ENDBRANCH  16  19
ENDBRANCH  12  13
ENDBRANCH   9  12
ENDBRANCH   7   8
ENDBRANCH   6   7
ENDBRANCH   1   6
BRANCH   2  21
HETATM   21  C   UNL     1     -43.277  56.874 -54.806  1.00  0.00     0.171 C 
BRANCH  21  22
HETATM   22  C   UNL     1     -42.395  55.647 -54.729  1.00  0.00    -0.040 A 
HETATM   23  C   UNL     1     -42.899  54.337 -54.760  1.00  0.00     0.009 A 
HETATM   24  C   UNL     1     -42.035  53.241 -54.692  1.00  0.00     0.001 A 
HETATM   25  C   UNL     1     -40.657  53.437 -54.621  1.00  0.00     0.000 A 
HETATM   26  C   UNL     1     -40.140  54.729 -54.623  1.00  0.00     0.001 A 
HETATM   27  C   UNL     1     -41.001  55.826 -54.680  1.00  0.00     0.009 A 
ENDBRANCH  21  22
ENDBRANCH   2  21
BRANCH   3  28
HETATM   28  C   UNL     1     -43.650  57.126 -57.927  1.00  0.00     0.057 A 
HETATM   29  C   UNL     1     -43.088  56.919 -59.318  1.00  0.00     0.013 A 
HETATM   30  C   UNL     1     -42.960  55.832 -58.308  1.00  0.00     0.013 A 
ENDBRANCH   3  28
TORSDOF 9
ENDMDL
MODEL 3
REMARK VINA RESULT:      -7.7      2.457      4.971
REMARK  9 active torsions:
REMARK  status: ('A' for Active; 'I' for Inactive)
REMARK    1  A    between atoms: O_2  and  C_3 
REMARK    2  A    between atoms: C_6  and  C_7 
REMARK    3  A    between atoms: C_7  and  N_8 
REMARK       I    between atoms: N_8  and  C_9 
REMARK    4  A    between atoms: C_9  and  C_10 
REMARK    5  A    between atoms: C_10  and  S_11 
REMARK    6  A    between atoms: S_11  and  C_12 
REMARK    7  A    between atoms: N_13  and  C_14 
REMARK    8  A    between atoms: C_14  and  C_15 
REMARK    9  A    between atoms: C_21  and  C_22 
ROOT
HETATM    1  C   UNL     1     -42.109  59.329 -55.257  1.00  0.00     0.192 A 
HETATM    2  N   UNL     1     -42.686  58.152 -55.652  1.00  0.00    -0.307 N 
HETATM    3  C   UNL     1     -42.791  58.245 -57.021  1.00  0.00     0.135 A 
HETATM    4  N   UNL     1     -42.236  59.371 -57.419  1.00  0.00    -0.134 NA
HETATM    5  N   UNL     1     -41.805  60.052 -56.307  1.00  0.00    -0.123 NA
ENDROOT
BRANCH   1   6
HETATM    6  S   UNL     1     -41.884  59.791 -53.610  1.00  0.00    -0.081 SA
BRANCH   6   7
HETATM    7  C   UNL     1     -40.438  58.817 -53.125  1.00  0.00     0.185 C 
BRANCH   7   8
HETATM    8  C   UNL     1     -40.016  58.883 -51.666  1.00  0.00     0.227 C 
HETATM    9  N   UNL     1     -40.593  58.113 -50.702  1.00  0.00    -0.356 N 
HETATM   10  H   UNL     1     -40.155  58.245 -49.797  1.00  0.00     0.162 HD
HETATM   11  O   UNL     1     -39.035  59.556 -51.329  1.00  0.00    -0.273 OA
BRANCH   9  12
HETATM   12  C   UNL     1     -41.688  57.177 -50.799  1.00  0.00     0.161 C 
BRANCH  12  13
HETATM   13  C   UNL     1     -41.234  55.746 -50.657  1.00  0.00    -0.040 A 
HETATM   14  C   UNL     1     -40.287  55.386 -49.685  1.00  0.00     0.011 A 
HETATM   15  C   UNL     1     -39.897  54.052 -49.522  1.00  0.00     0.037 A 
HETATM   16  C   UNL     1     -40.461  53.055 -50.316  1.00  0.00     0.068 A 
HETATM   17  C   UNL     1     -41.406  53.409 -51.281  1.00  0.00     0.037 A 
HETATM   18  C   UNL     1     -41.792  54.741 -51.453  1.00  0.00     0.011 A 
BRANCH  16  19
HETATM   19  O   UNL     1     -40.183  51.718 -50.250  1.00  0.00    -0.356 OA
HETATM   20  C   UNL     1     -39.732  51.094 -51.445  1.00  0.00     0.210 C 
ENDBRANCH  16  19
ENDBRANCH  12  13
ENDBRANCH   9  12
ENDBRANCH   7   8
ENDBRANCH   6   7
ENDBRANCH   1   6
BRANCH   2  21
HETATM   21  C   UNL     1     -43.189  57.073 -54.823  1.00  0.00     0.171 C 
BRANCH  21  22
HETATM   22  C   UNL     1     -42.354  55.811 -54.854  1.00  0.00    -0.040 A 
HETATM   23  C   UNL     1     -40.951  55.819 -54.833  1.00  0.00     0.009 A 
HETATM   24  C   UNL     1     -40.233  54.621 -54.857  1.00  0.00     0.001 A 
HETATM   25  C   UNL     1     -40.904  53.400 -54.871  1.00  0.00     0.000 A 
HETATM   26  C   UNL     1     -42.296  53.375 -54.858  1.00  0.00     0.001 A 
HETATM   27  C   UNL     1     -43.016  54.570 -54.845  1.00  0.00     0.009 A 
ENDBRANCH  21  22
ENDBRANCH   2  21
BRANCH   3  28
HETATM   28  C   UNL     1     -43.434  57.236 -57.961  1.00  0.00     0.057 A 
HETATM   29  C   UNL     1     -42.911  57.155 -59.381  1.00  0.00     0.013 A 
HETATM   30  C   UNL     1     -42.595  56.061 -58.419  1.00  0.00     0.013 A 
ENDBRANCH   3  28
TORSDOF 9
ENDMDL
MODEL 4
REMARK VINA RESULT:      -7.5      3.499      7.062
REMARK  9 active torsions:
REMARK  status: ('A' for Active; 'I' for Inactive)
REMARK    1  A    between atoms: O_2  and  C_3 
REMARK    2  A    between atoms: C_6  and  C_7 
REMARK    3  A    between atoms: C_7  and  N_8 
REMARK       I    between atoms: N_8  and  C_9 
REMARK    4  A    between atoms: C_9  and  C_10 
REMARK    5  A    between atoms: C_10  and  S_11 
REMARK    6  A    between atoms: S_11  and  C_12 
REMARK    7  A    between atoms: N_13  and  C_14 
REMARK    8  A    between atoms: C_14  and  C_15 
REMARK    9  A    between atoms: C_21  and  C_22 
ROOT
HETATM    1  C   UNL     1     -42.676  54.448 -53.027  1.00  0.00     0.192 A 
HETATM    2  N   UNL     1     -41.459  54.206 -52.450  1.00  0.00    -0.307 N 
HETATM    3  C   UNL     1     -41.601  54.589 -51.137  1.00  0.00     0.135 A 
HETATM    4  N   UNL     1     -42.849  54.958 -50.929  1.00  0.00    -0.134 NA
HETATM    5  N   UNL     1     -43.525  54.867 -52.121  1.00  0.00    -0.123 NA
ENDROOT
BRANCH   1   6
HETATM    6  S   UNL     1     -42.998  54.277 -54.714  1.00  0.00    -0.081 SA
BRANCH   6   7
HETATM    7  C   UNL     1     -43.597  55.924 -55.166  1.00  0.00     0.185 C 
BRANCH   7   8
HETATM    8  C   UNL     1     -42.658  56.806 -55.974  1.00  0.00     0.227 C 
HETATM    9  N   UNL     1     -42.451  56.623 -57.308  1.00  0.00    -0.356 N 
HETATM   10  H   UNL     1     -41.839  57.331 -57.698  1.00  0.00     0.162 HD
HETATM   11  O   UNL     1     -42.145  57.806 -55.462  1.00  0.00    -0.273 OA
BRANCH   9  12
HETATM   12  C   UNL     1     -42.971  55.608 -58.195  1.00  0.00     0.161 C 
BRANCH  12  13
HETATM   13  C   UNL     1     -44.130  56.107 -59.020  1.00  0.00    -0.040 A 
HETATM   14  C   UNL     1     -44.710  55.296 -60.007  1.00  0.00     0.011 A 
HETATM   15  C   UNL     1     -45.815  55.740 -60.744  1.00  0.00     0.037 A 
HETATM   16  C   UNL     1     -46.366  56.995 -60.491  1.00  0.00     0.068 A 
HETATM   17  C   UNL     1     -45.794  57.803 -59.507  1.00  0.00     0.037 A 
HETATM   18  C   UNL     1     -44.686  57.367 -58.775  1.00  0.00     0.011 A 
BRANCH  16  19
HETATM   19  O   UNL     1     -47.449  57.541 -61.123  1.00  0.00    -0.356 OA
HETATM   20  C   UNL     1     -48.223  56.672 -61.940  1.00  0.00     0.210 C 
ENDBRANCH  16  19
ENDBRANCH  12  13
ENDBRANCH   9  12
ENDBRANCH   7   8
ENDBRANCH   6   7
ENDBRANCH   1   6
BRANCH   2  21
HETATM   21  C   UNL     1     -40.236  53.750 -53.085  1.00  0.00     0.171 C 
BRANCH  21  22
HETATM   22  C   UNL     1     -40.067  52.247 -53.124  1.00  0.00    -0.040 A 
HETATM   23  C   UNL     1     -40.261  51.483 -54.284  1.00  0.00     0.009 A 
HETATM   24  C   UNL     1     -40.084  50.097 -54.262  1.00  0.00     0.001 A 
HETATM   25  C   UNL     1     -39.683  49.460 -53.090  1.00  0.00     0.000 A 
HETATM   26  C   UNL     1     -39.453  50.208 -51.938  1.00  0.00     0.001 A 
HETATM   27  C   UNL     1     -39.640  51.591 -51.955  1.00  0.00     0.009 A 
ENDBRANCH  21  22
ENDBRANCH   2  21
BRANCH   3  28
HETATM   28  C   UNL     1     -40.523  54.601 -50.063  1.00  0.00     0.057 A 
HETATM   29  C   UNL     1     -40.953  54.817 -48.627  1.00  0.00     0.013 A 
HETATM   30  C   UNL     1     -40.508  53.463 -49.063  1.00  0.00     0.013 A 
ENDBRANCH   3  28
TORSDOF 9
ENDMDL
MODEL 5
REMARK VINA RESULT:      -7.3      3.071      6.784
REMARK  9 active torsions:
REMARK  status: ('A' for Active; 'I' for Inactive)
REMARK    1  A    between atoms: O_2  and  C_3 
REMARK    2  A    between atoms: C_6  and  C_7 
REMARK    3  A    between atoms: C_7  and  N_8 
REMARK       I    between atoms: N_8  and  C_9 
REMARK    4  A    between atoms: C_9  and  C_10 
REMARK    5  A    between atoms: C_10  and  S_11 
REMARK    6  A    between atoms: S_11  and  C_12 
REMARK    7  A    between atoms: N_13  and  C_14 
REMARK    8  A    between atoms: C_14  and  C_15 
REMARK    9  A    between atoms: C_21  and  C_22 
ROOT
HETATM    1  C   UNL     1     -42.817  54.502 -52.513  1.00  0.00     0.192 A 
HETATM    2  N   UNL     1     -41.559  54.192 -52.073  1.00  0.00    -0.307 N 
HETATM    3  C   UNL     1     -41.602  54.362 -50.709  1.00  0.00     0.135 A 
HETATM    4  N   UNL     1     -42.832  54.674 -50.354  1.00  0.00    -0.134 NA
HETATM    5  N   UNL     1     -43.596  54.760 -51.491  1.00  0.00    -0.123 NA
ENDROOT
BRANCH   1   6
HETATM    6  S   UNL     1     -43.265  54.592 -54.177  1.00  0.00    -0.081 SA
BRANCH   6   7
HETATM    7  C   UNL     1     -44.199  56.141 -54.247  1.00  0.00     0.185 C 
BRANCH   7   8
HETATM    8  C   UNL     1     -43.449  57.383 -54.703  1.00  0.00     0.227 C 
HETATM    9  N   UNL     1     -42.709  58.144 -53.850  1.00  0.00    -0.356 N 
HETATM   10  H   UNL     1     -42.235  58.900 -54.329  1.00  0.00     0.162 HD
HETATM   11  O   UNL     1     -43.386  57.669 -55.903  1.00  0.00    -0.273 OA
BRANCH   9  12
HETATM   12  C   UNL     1     -42.518  58.015 -52.424  1.00  0.00     0.161 C 
BRANCH  12  13
HETATM   13  C   UNL     1     -43.515  58.828 -51.637  1.00  0.00    -0.040 A 
HETATM   14  C   UNL     1     -44.762  58.291 -51.285  1.00  0.00     0.011 A 
HETATM   15  C   UNL     1     -45.671  59.028 -50.516  1.00  0.00     0.037 A 
HETATM   16  C   UNL     1     -45.338  60.307 -50.073  1.00  0.00     0.068 A 
HETATM   17  C   UNL     1     -44.095  60.843 -50.417  1.00  0.00     0.037 A 
HETATM   18  C   UNL     1     -43.189  60.114 -51.192  1.00  0.00     0.011 A 
BRANCH  16  19
HETATM   19  O   UNL     1     -46.121  61.124 -49.306  1.00  0.00    -0.356 OA
HETATM   20  C   UNL     1     -45.729  61.304 -47.951  1.00  0.00     0.210 C 
ENDBRANCH  16  19
ENDBRANCH  12  13
ENDBRANCH   9  12
ENDBRANCH   7   8
ENDBRANCH   6   7
ENDBRANCH   1   6
BRANCH   2  21
HETATM   21  C   UNL     1     -40.386  53.860 -52.860  1.00  0.00     0.171 C 
BRANCH  21  22
HETATM   22  C   UNL     1     -40.119  52.377 -53.003  1.00  0.00    -0.040 A 
HETATM   23  C   UNL     1     -39.629  51.581 -51.956  1.00  0.00     0.009 A 
HETATM   24  C   UNL     1     -39.409  50.215 -52.145  1.00  0.00     0.001 A 
HETATM   25  C   UNL     1     -39.702  49.619 -53.370  1.00  0.00     0.000 A 
HETATM   26  C   UNL     1     -40.221  50.388 -54.408  1.00  0.00     0.001 A 
HETATM   27  C   UNL     1     -40.432  51.756 -54.225  1.00  0.00     0.009 A 
ENDBRANCH  21  22
ENDBRANCH   2  21
BRANCH   3  28
HETATM   28  C   UNL     1     -40.446  54.223 -49.729  1.00  0.00     0.057 A 
HETATM   29  C   UNL     1     -40.717  54.502 -48.265  1.00  0.00     0.013 A 
HETATM   30  C   UNL     1     -40.508  53.098 -48.717  1.00  0.00     0.013 A 
ENDBRANCH   3  28
TORSDOF 9
ENDMDL
MODEL 6
REMARK VINA RESULT:      -7.2      2.486      5.903
REMARK  9 active torsions:
REMARK  status: ('A' for Active; 'I' for Inactive)
REMARK    1  A    between atoms: O_2  and  C_3 
REMARK    2  A    between atoms: C_6  and  C_7 
REMARK    3  A    between atoms: C_7  and  N_8 
REMARK       I    between atoms: N_8  and  C_9 
REMARK    4  A    between atoms: C_9  and  C_10 
REMARK    5  A    between atoms: C_10  and  S_11 
REMARK    6  A    between atoms: S_11  and  C_12 
REMARK    7  A    between atoms: N_13  and  C_14 
REMARK    8  A    between atoms: C_14  and  C_15 
REMARK    9  A    between atoms: C_21  and  C_22 
ROOT
HETATM    1  C   UNL     1     -42.791  54.458 -52.767  1.00  0.00     0.192 A 
HETATM    2  N   UNL     1     -41.538  54.233 -52.262  1.00  0.00    -0.307 N 
HETATM    3  C   UNL     1     -41.623  54.563 -50.930  1.00  0.00     0.135 A 
HETATM    4  N   UNL     1     -42.868  54.884 -50.644  1.00  0.00    -0.134 NA
HETATM    5  N   UNL     1     -43.603  54.816 -51.802  1.00  0.00    -0.123 NA
ENDROOT
BRANCH   1   6
HETATM    6  S   UNL     1     -43.196  54.340 -54.439  1.00  0.00    -0.081 SA
BRANCH   6   7
HETATM    7  C   UNL     1     -43.976  55.939 -54.767  1.00  0.00     0.185 C 
BRANCH   7   8
HETATM    8  C   UNL     1     -43.114  57.012 -55.415  1.00  0.00     0.227 C 
HETATM    9  N   UNL     1     -42.810  58.182 -54.788  1.00  0.00    -0.356 N 
HETATM   10  H   UNL     1     -42.184  58.757 -55.339  1.00  0.00     0.162 HD
HETATM   11  O   UNL     1     -42.553  56.795 -56.494  1.00  0.00    -0.273 OA
BRANCH   9  12
HETATM   12  C   UNL     1     -43.238  58.681 -53.502  1.00  0.00     0.161 C 
BRANCH  12  13
HETATM   13  C   UNL     1     -42.079  58.943 -52.574  1.00  0.00    -0.040 A 
HETATM   14  C   UNL     1     -40.766  58.629 -52.958  1.00  0.00     0.011 A 
HETATM   15  C   UNL     1     -39.684  58.913 -52.116  1.00  0.00     0.037 A 
HETATM   16  C   UNL     1     -39.897  59.531 -50.886  1.00  0.00     0.068 A 
HETATM   17  C   UNL     1     -41.201  59.849 -50.502  1.00  0.00     0.037 A 
HETATM   18  C   UNL     1     -42.285  59.560 -51.336  1.00  0.00     0.011 A 
BRANCH  16  19
HETATM   19  O   UNL     1     -38.933  59.878 -49.980  1.00  0.00    -0.356 OA
HETATM   20  C   UNL     1     -37.614  59.414 -50.236  1.00  0.00     0.210 C 
ENDBRANCH  16  19
ENDBRANCH  12  13
ENDBRANCH   9  12
ENDBRANCH   7   8
ENDBRANCH   6   7
ENDBRANCH   1   6
BRANCH   2  21
HETATM   21  C   UNL     1     -40.337  53.840 -52.976  1.00  0.00     0.171 C 
BRANCH  21  22
HETATM   22  C   UNL     1     -40.129  52.345 -53.086  1.00  0.00    -0.040 A 
HETATM   23  C   UNL     1     -40.328  51.628 -54.276  1.00  0.00     0.009 A 
HETATM   24  C   UNL     1     -40.114  50.249 -54.320  1.00  0.00     0.001 A 
HETATM   25  C   UNL     1     -39.669  49.571 -53.187  1.00  0.00     0.000 A 
HETATM   26  C   UNL     1     -39.435  50.273 -52.008  1.00  0.00     0.001 A 
HETATM   27  C   UNL     1     -39.659  51.650 -51.958  1.00  0.00     0.009 A 
ENDBRANCH  21  22
ENDBRANCH   2  21
BRANCH   3  28
HETATM   28  C   UNL     1     -40.490  54.568 -49.913  1.00  0.00     0.057 A 
HETATM   29  C   UNL     1     -40.848  54.756 -48.453  1.00  0.00     0.013 A 
HETATM   30  C   UNL     1     -40.412  53.415 -48.934  1.00  0.00     0.013 A 
ENDBRANCH   3  28
TORSDOF 9
ENDMDL
MODEL 7
REMARK VINA RESULT:      -7.0      3.346      5.841
REMARK  9 active torsions:
REMARK  status: ('A' for Active; 'I' for Inactive)
REMARK    1  A    between atoms: O_2  and  C_3 
REMARK    2  A    between atoms: C_6  and  C_7 
REMARK    3  A    between atoms: C_7  and  N_8 
REMARK       I    between atoms: N_8  and  C_9 
REMARK    4  A    between atoms: C_9  and  C_10 
REMARK    5  A    between atoms: C_10  and  S_11 
REMARK    6  A    between atoms: S_11  and  C_12 
REMARK    7  A    between atoms: N_13  and  C_14 
REMARK    8  A    between atoms: C_14  and  C_15 
REMARK    9  A    between atoms: C_21  and  C_22 
ROOT
HETATM    1  C   UNL     1     -42.595  59.685 -56.307  1.00  0.00     0.192 A 
HETATM    2  N   UNL     1     -43.272  59.438 -57.471  1.00  0.00    -0.307 N 
HETATM    3  C   UNL     1     -42.515  60.025 -58.458  1.00  0.00     0.135 A 
HETATM    4  N   UNL     1     -41.417  60.517 -57.923  1.00  0.00    -0.134 NA
HETATM    5  N   UNL     1     -41.468  60.301 -56.569  1.00  0.00    -0.123 NA
ENDROOT
BRANCH   1   6
HETATM    6  S   UNL     1     -43.192  59.288 -54.738  1.00  0.00    -0.081 SA
BRANCH   6   7
HETATM    7  C   UNL     1     -42.612  57.588 -54.518  1.00  0.00     0.185 C 
BRANCH   7   8
HETATM    8  C   UNL     1     -43.616  56.576 -53.988  1.00  0.00     0.227 C 
HETATM    9  N   UNL     1     -43.327  55.728 -52.962  1.00  0.00    -0.356 N 
HETATM   10  H   UNL     1     -44.125  55.160 -52.702  1.00  0.00     0.162 HD
HETATM   11  O   UNL     1     -44.783  56.581 -54.396  1.00  0.00    -0.273 OA
BRANCH   9  12
HETATM   12  C   UNL     1     -42.095  55.548 -52.231  1.00  0.00     0.161 C 
BRANCH  12  13
HETATM   13  C   UNL     1     -41.384  54.273 -52.610  1.00  0.00    -0.040 A 
HETATM   14  C   UNL     1     -41.364  53.831 -53.942  1.00  0.00     0.011 A 
HETATM   15  C   UNL     1     -40.667  52.671 -54.303  1.00  0.00     0.037 A 
HETATM   16  C   UNL     1     -39.966  51.947 -53.341  1.00  0.00     0.068 A 
HETATM   17  C   UNL     1     -39.980  52.386 -52.016  1.00  0.00     0.037 A 
HETATM   18  C   UNL     1     -40.682  53.538 -51.649  1.00  0.00     0.011 A 
BRANCH  16  19
HETATM   19  O   UNL     1     -39.234  50.813 -53.560  1.00  0.00    -0.356 OA
HETATM   20  C   UNL     1     -39.755  49.884 -54.502  1.00  0.00     0.210 C 
ENDBRANCH  16  19
ENDBRANCH  12  13
ENDBRANCH   9  12
ENDBRANCH   7   8
ENDBRANCH   6   7
ENDBRANCH   1   6
BRANCH   2  21
HETATM   21  C   UNL     1     -44.563  58.798 -57.643  1.00  0.00     0.171 C 
BRANCH  21  22
HETATM   22  C   UNL     1     -44.518  57.471 -58.370  1.00  0.00    -0.040 A 
HETATM   23  C   UNL     1     -45.404  57.132 -59.404  1.00  0.00     0.009 A 
HETATM   24  C   UNL     1     -45.310  55.894 -60.044  1.00  0.00     0.001 A 
HETATM   25  C   UNL     1     -44.314  54.990 -59.682  1.00  0.00     0.000 A 
HETATM   26  C   UNL     1     -43.406  55.325 -58.681  1.00  0.00     0.001 A 
HETATM   27  C   UNL     1     -43.504  56.557 -58.033  1.00  0.00     0.009 A 
ENDBRANCH  21  22
ENDBRANCH   2  21
BRANCH   3  28
HETATM   28  C   UNL     1     -42.851  60.114 -59.940  1.00  0.00     0.057 A 
HETATM   29  C   UNL     1     -41.723  60.409 -60.908  1.00  0.00     0.013 A 
HETATM   30  C   UNL     1     -42.303  59.038 -60.856  1.00  0.00     0.013 A 
ENDBRANCH   3  28
TORSDOF 9
ENDMDL
MODEL 8
REMARK VINA RESULT:      -6.9      1.984      3.218
REMARK  9 active torsions:
REMARK  status: ('A' for Active; 'I' for Inactive)
REMARK    1  A    between atoms: O_2  and  C_3 
REMARK    2  A    between atoms: C_6  and  C_7 
REMARK    3  A    between atoms: C_7  and  N_8 
REMARK       I    between atoms: N_8  and  C_9 
REMARK    4  A    between atoms: C_9  and  C_10 
REMARK    5  A    between atoms: C_10  and  S_11 
REMARK    6  A    between atoms: S_11  and  C_12 
REMARK    7  A    between atoms: N_13  and  C_14 
REMARK    8  A    between atoms: C_14  and  C_15 
REMARK    9  A    between atoms: C_21  and  C_22 
ROOT
HETATM    1  C   UNL     1     -42.594  59.158 -54.371  1.00  0.00     0.192 A 
HETATM    2  N   UNL     1     -42.687  58.882 -53.034  1.00  0.00    -0.307 N 
HETATM    3  C   UNL     1     -41.401  58.975 -52.557  1.00  0.00     0.135 A 
HETATM    4  N   UNL     1     -40.607  59.363 -53.534  1.00  0.00    -0.134 NA
HETATM    5  N   UNL     1     -41.361  59.479 -54.676  1.00  0.00    -0.123 NA
ENDROOT
BRANCH   1   6
HETATM    6  S   UNL     1     -43.911  59.033 -55.479  1.00  0.00    -0.081 SA
BRANCH   6   7
HETATM    7  C   UNL     1     -44.074  57.243 -55.692  1.00  0.00     0.185 C 
BRANCH   7   8
HETATM    8  C   UNL     1     -42.864  56.495 -56.229  1.00  0.00     0.227 C 
HETATM    9  N   UNL     1     -42.060  55.738 -55.432  1.00  0.00    -0.356 N 
HETATM   10  H   UNL     1     -41.335  55.268 -55.962  1.00  0.00     0.162 HD
HETATM   11  O   UNL     1     -42.647  56.450 -57.445  1.00  0.00    -0.273 OA
BRANCH   9  12
HETATM   12  C   UNL     1     -42.109  55.524 -54.005  1.00  0.00     0.161 C 
BRANCH  12  13
HETATM   13  C   UNL     1     -41.422  54.247 -53.593  1.00  0.00    -0.040 A 
HETATM   14  C   UNL     1     -41.187  53.224 -54.524  1.00  0.00     0.011 A 
HETATM   15  C   UNL     1     -40.509  52.056 -54.154  1.00  0.00     0.037 A 
HETATM   16  C   UNL     1     -40.041  51.902 -52.850  1.00  0.00     0.068 A 
HETATM   17  C   UNL     1     -40.268  52.920 -51.922  1.00  0.00     0.037 A 
HETATM   18  C   UNL     1     -40.952  54.083 -52.285  1.00  0.00     0.011 A 
BRANCH  16  19
HETATM   19  O   UNL     1     -39.353  50.825 -52.363  1.00  0.00    -0.356 OA
HETATM   20  C   UNL     1     -39.621  49.566 -52.965  1.00  0.00     0.210 C 
ENDBRANCH  16  19
ENDBRANCH  12  13
ENDBRANCH   9  12
ENDBRANCH   7   8
ENDBRANCH   6   7
ENDBRANCH   1   6
BRANCH   2  21
HETATM   21  C   UNL     1     -43.856  58.469 -52.279  1.00  0.00     0.171 C 
BRANCH  21  22
HETATM   22  C   UNL     1     -44.713  59.607 -51.770  1.00  0.00    -0.040 A 
HETATM   23  C   UNL     1     -45.884  60.034 -52.415  1.00  0.00     0.009 A 
HETATM   24  C   UNL     1     -46.640  61.087 -51.894  1.00  0.00     0.001 A 
HETATM   25  C   UNL     1     -46.255  61.708 -50.708  1.00  0.00     0.000 A 
HETATM   26  C   UNL     1     -45.114  61.274 -50.038  1.00  0.00     0.001 A 
HETATM   27  C   UNL     1     -44.351  60.229 -50.562  1.00  0.00     0.009 A 
ENDBRANCH  21  22
ENDBRANCH   2  21
BRANCH   3  28
HETATM   28  C   UNL     1     -40.925  58.688 -51.140  1.00  0.00     0.057 A 
HETATM   29  C   UNL     1     -39.556  59.194 -50.734  1.00  0.00     0.013 A 
HETATM   30  C   UNL     1     -40.773  59.861 -50.193  1.00  0.00     0.013 A 
ENDBRANCH   3  28
TORSDOF 9
ENDMDL
MODEL 9
REMARK VINA RESULT:      -6.9      2.578      5.345
REMARK  9 active torsions:
REMARK  status: ('A' for Active; 'I' for Inactive)
REMARK    1  A    between atoms: O_2  and  C_3 
REMARK    2  A    between atoms: C_6  and  C_7 
REMARK    3  A    between atoms: C_7  and  N_8 
REMARK       I    between atoms: N_8  and  C_9 
REMARK    4  A    between atoms: C_9  and  C_10 
REMARK    5  A    between atoms: C_10  and  S_11 
REMARK    6  A    between atoms: S_11  and  C_12 
REMARK    7  A    between atoms: N_13  and  C_14 
REMARK    8  A    between atoms: C_14  and  C_15 
REMARK    9  A    between atoms: C_21  and  C_22 
ROOT
HETATM    1  C   UNL     1     -44.424  57.915 -55.790  1.00  0.00     0.192 A 
HETATM    2  N   UNL     1     -43.302  57.498 -56.455  1.00  0.00    -0.307 N 
HETATM    3  C   UNL     1     -43.695  57.352 -57.765  1.00  0.00     0.135 A 
HETATM    4  N   UNL     1     -44.949  57.738 -57.884  1.00  0.00    -0.134 NA
HETATM    5  N   UNL     1     -45.406  58.094 -56.639  1.00  0.00    -0.123 NA
ENDROOT
BRANCH   1   6
HETATM    6  S   UNL     1     -44.517  58.109 -54.078  1.00  0.00    -0.081 SA
BRANCH   6   7
HETATM    7  C   UNL     1     -43.601  59.646 -53.808  1.00  0.00     0.185 C 
BRANCH   7   8
HETATM    8  C   UNL     1     -42.174  59.522 -53.297  1.00  0.00     0.227 C 
HETATM    9  N   UNL     1     -41.851  58.775 -52.205  1.00  0.00    -0.356 N 
HETATM   10  H   UNL     1     -40.851  58.759 -52.037  1.00  0.00     0.162 HD
HETATM   11  O   UNL     1     -41.235  60.000 -53.943  1.00  0.00    -0.273 OA
BRANCH   9  12
HETATM   12  C   UNL     1     -42.705  58.035 -51.305  1.00  0.00     0.161 C 
BRANCH  12  13
HETATM   13  C   UNL     1     -42.212  56.630 -51.073  1.00  0.00    -0.040 A 
HETATM   14  C   UNL     1     -40.958  56.395 -50.488  1.00  0.00     0.011 A 
HETATM   15  C   UNL     1     -40.517  55.091 -50.231  1.00  0.00     0.037 A 
HETATM   16  C   UNL     1     -41.332  54.003 -50.539  1.00  0.00     0.068 A 
HETATM   17  C   UNL     1     -42.582  54.233 -51.117  1.00  0.00     0.037 A 
HETATM   18  C   UNL     1     -43.022  55.532 -51.383  1.00  0.00     0.011 A 
BRANCH  16  19
HETATM   19  O   UNL     1     -41.032  52.686 -50.326  1.00  0.00    -0.356 OA
HETATM   20  C   UNL     1     -39.984  52.130 -51.109  1.00  0.00     0.210 C 
ENDBRANCH  16  19
ENDBRANCH  12  13
ENDBRANCH   9  12
ENDBRANCH   7   8
ENDBRANCH   6   7
ENDBRANCH   1   6
BRANCH   2  21
HETATM   21  C   UNL     1     -42.001  57.167 -55.906  1.00  0.00     0.171 C 
BRANCH  21  22
HETATM   22  C   UNL     1     -41.886  55.761 -55.357  1.00  0.00    -0.040 A 
HETATM   23  C   UNL     1     -42.881  54.787 -55.528  1.00  0.00     0.009 A 
HETATM   24  C   UNL     1     -42.717  53.502 -55.005  1.00  0.00     0.001 A 
HETATM   25  C   UNL     1     -41.546  53.163 -54.331  1.00  0.00     0.000 A 
HETATM   26  C   UNL     1     -40.534  54.108 -54.182  1.00  0.00     0.001 A 
HETATM   27  C   UNL     1     -40.700  55.396 -54.695  1.00  0.00     0.009 A 
ENDBRANCH  21  22
ENDBRANCH   2  21
BRANCH   3  28
HETATM   28  C   UNL     1     -42.853  56.834 -58.922  1.00  0.00     0.057 A 
HETATM   29  C   UNL     1     -43.237  57.258 -60.325  1.00  0.00     0.013 A 
HETATM   30  C   UNL     1     -42.019  57.837 -59.694  1.00  0.00     0.013 A 
ENDBRANCH   3  28
TORSDOF 9
ENDMDL
MODEL 10
REMARK VINA RESULT:      -6.8      3.000      5.796
REMARK  9 active torsions:
REMARK  status: ('A' for Active; 'I' for Inactive)
REMARK    1  A    between atoms: O_2  and  C_3 
REMARK    2  A    between atoms: C_6  and  C_7 
REMARK    3  A    between atoms: C_7  and  N_8 
REMARK       I    between atoms: N_8  and  C_9 
REMARK    4  A    between atoms: C_9  and  C_10 
REMARK    5  A    between atoms: C_10  and  S_11 
REMARK    6  A    between atoms: S_11  and  C_12 
REMARK    7  A    between atoms: N_13  and  C_14 
REMARK    8  A    between atoms: C_14  and  C_15 
REMARK    9  A    between atoms: C_21  and  C_22 
ROOT
HETATM    1  C   UNL     1     -41.778  57.860 -51.378  1.00  0.00     0.192 A 
HETATM    2  N   UNL     1     -42.038  56.518 -51.306  1.00  0.00    -0.307 N 
HETATM    3  C   UNL     1     -41.355  56.079 -50.195  1.00  0.00     0.135 A 
HETATM    4  N   UNL     1     -40.794  57.112 -49.600  1.00  0.00    -0.134 NA
HETATM    5  N   UNL     1     -41.063  58.233 -50.346  1.00  0.00    -0.123 NA
ENDROOT
BRANCH   1   6
HETATM    6  S   UNL     1     -42.281  58.873 -52.681  1.00  0.00    -0.081 SA
BRANCH   6   7
HETATM    7  C   UNL     1     -44.039  59.120 -52.329  1.00  0.00     0.185 C 
BRANCH   7   8
HETATM    8  C   UNL     1     -44.920  59.573 -53.483  1.00  0.00     0.227 C 
HETATM    9  N   UNL     1     -45.305  58.732 -54.483  1.00  0.00    -0.356 N 
HETATM   10  H   UNL     1     -45.933  59.183 -55.138  1.00  0.00     0.162 HD
HETATM   11  O   UNL     1     -45.423  60.701 -53.478  1.00  0.00    -0.273 OA
BRANCH   9  12
HETATM   12  C   UNL     1     -44.957  57.349 -54.713  1.00  0.00     0.161 C 
BRANCH  12  13
HETATM   13  C   UNL     1     -44.242  57.150 -56.025  1.00  0.00    -0.040 A 
HETATM   14  C   UNL     1     -43.487  55.991 -56.263  1.00  0.00     0.011 A 
HETATM   15  C   UNL     1     -42.858  55.784 -57.497  1.00  0.00     0.037 A 
HETATM   16  C   UNL     1     -42.990  56.725 -58.517  1.00  0.00     0.068 A 
HETATM   17  C   UNL     1     -43.744  57.876 -58.285  1.00  0.00     0.037 A 
HETATM   18  C   UNL     1     -44.366  58.091 -57.053  1.00  0.00     0.011 A 
BRANCH  16  19
HETATM   19  O   UNL     1     -42.445  56.638 -59.768  1.00  0.00    -0.356 OA
HETATM   20  C   UNL     1     -41.931  57.839 -60.330  1.00  0.00     0.210 C 
ENDBRANCH  16  19
ENDBRANCH  12  13
ENDBRANCH   9  12
ENDBRANCH   7   8
ENDBRANCH   6   7
ENDBRANCH   1   6
BRANCH   2  21
HETATM   21  C   UNL     1     -42.776  55.691 -52.243  1.00  0.00     0.171 C 
BRANCH  21  22
HETATM   22  C   UNL     1     -41.918  54.954 -53.247  1.00  0.00    -0.040 A 
HETATM   23  C   UNL     1     -40.876  55.566 -53.961  1.00  0.00     0.009 A 
HETATM   24  C   UNL     1     -40.111  54.833 -54.872  1.00  0.00     0.001 A 
HETATM   25  C   UNL     1     -40.357  53.475 -55.061  1.00  0.00     0.000 A 
HETATM   26  C   UNL     1     -41.365  52.845 -54.336  1.00  0.00     0.001 A 
HETATM   27  C   UNL     1     -42.137  53.578 -53.433  1.00  0.00     0.009 A 
ENDBRANCH  21  22
ENDBRANCH   2  21
BRANCH   3  28
HETATM   28  C   UNL     1     -41.240  54.646 -49.696  1.00  0.00     0.057 A 
HETATM   29  C   UNL     1     -40.185  53.758 -50.323  1.00  0.00     0.013 A 
HETATM   30  C   UNL     1     -39.989  54.261 -48.934  1.00  0.00     0.013 A 
ENDBRANCH   3  28
TORSDOF 9
ENDMDL
