MODEL 1
REMARK VINA RESULT:      -8.3      0.000      0.000
REMARK  8 active torsions:
REMARK  status: ('A' for Active; 'I' for Inactive)
REMARK    1  A    between atoms: O_2  and  C_3 
REMARK    2  A    between atoms: C_5  and  C_6 
REMARK    3  A    between atoms: C_10  and  C_11 
REMARK       I    between atoms: C_11  and  N_12 
REMARK    4  A    between atoms: N_12  and  C_13 
REMARK    5  A    between atoms: C_13  and  C_14 
REMARK    6  A    between atoms: C_15  and  C_16 
REMARK    7  A    between atoms: C_16  and  O_17 
REMARK    8  A    between atoms: O_17  and  C_18 
ROOT
HETATM    1  C   UNL     1     -41.848  56.813 -53.508  1.00  0.00     0.270 C 
HETATM    2  N   UNL     1     -40.956  57.830 -53.287  1.00  0.00    -0.345 N 
HETATM    3  O   UNL     1     -43.062  56.983 -53.480  1.00  0.00    -0.266 OA
HETATM    4  H   UNL     1     -39.965  57.641 -53.281  1.00  0.00     0.163 HD
ENDROOT
BRANCH   1   5
HETATM    5  C   UNL     1     -41.256  55.533 -53.786  1.00  0.00     0.120 A 
HETATM    6  N   UNL     1     -40.520  55.310 -54.917  1.00  0.00    -0.272 N 
HETATM    7  N   UNL     1     -40.008  54.073 -55.005  1.00  0.00    -0.174 NA
HETATM    8  H   UNL     1     -40.325  55.977 -55.657  1.00  0.00     0.189 HD
HETATM    9  C   UNL     1     -40.442  53.446 -53.901  1.00  0.00     0.089 A 
HETATM   10  C   UNL     1     -41.232  54.328 -53.113  1.00  0.00     0.071 A 
BRANCH   9  11
HETATM   11  C   UNL     1     -40.091  52.055 -53.609  1.00  0.00    -0.003 A 
HETATM   12  C   UNL     1     -39.836  51.648 -52.292  1.00  0.00     0.050 A 
HETATM   13  C   UNL     1     -39.536  50.315 -51.990  1.00  0.00     0.069 A 
HETATM   14  C   UNL     1     -39.470  49.378 -53.021  1.00  0.00     0.037 A 
HETATM   15  C   UNL     1     -39.707  49.771 -54.340  1.00  0.00     0.004 A 
HETATM   16  C   UNL     1     -40.018  51.101 -54.634  1.00  0.00     0.014 A 
BRANCH  13  17
HETATM   17  O   UNL     1     -39.333  50.060 -50.661  1.00  0.00    -0.356 OA
HETATM   18  C   UNL     1     -40.330  50.518 -49.757  1.00  0.00     0.210 C 
ENDBRANCH  13  17
ENDBRANCH   9  11
ENDBRANCH   1   5
BRANCH   2  19
HETATM   19  C   UNL     1     -41.399  59.168 -52.993  1.00  0.00     0.217 C 
BRANCH  19  20
HETATM   20  C   UNL     1     -41.740  59.849 -54.245  1.00  0.00    -0.085 C 
HETATM   21  C   UNL     1     -42.024  60.380 -55.285  1.00  0.00    -0.078 C 
BRANCH  21  22
HETATM   22  C   UNL     1     -42.374  61.004 -56.569  1.00  0.00     0.269 C 
BRANCH  22  23
HETATM   23  O   UNL     1     -41.510  60.500 -57.584  1.00  0.00    -0.339 OA
BRANCH  23  24
HETATM   24  C   UNL     1     -41.962  59.428 -58.307  1.00  0.00     0.072 A 
HETATM   25  C   UNL     1     -42.341  58.188 -57.783  1.00  0.00     0.076 A 
HETATM   26  C   UNL     1     -42.769  57.220 -58.671  1.00  0.00     0.107 A 
HETATM   27  C   UNL     1     -42.831  57.445 -60.025  1.00  0.00     0.105 A 
HETATM   28  O   UNL     1     -43.170  55.964 -58.336  1.00  0.00    -0.323 OA
HETATM   29  O   UNL     1     -43.279  56.362 -60.713  1.00  0.00    -0.323 OA
HETATM   30  C   UNL     1     -42.466  58.655 -60.573  1.00  0.00     0.042 A 
HETATM   31  C   UNL     1     -43.491  55.426 -59.636  1.00  0.00     0.352 A 
HETATM   32  C   UNL     1     -42.027  59.653 -59.698  1.00  0.00     0.040 A 
ENDBRANCH  23  24
ENDBRANCH  22  23
ENDBRANCH  21  22
ENDBRANCH  19  20
ENDBRANCH   2  19
TORSDOF 8
ENDMDL
MODEL 2
REMARK VINA RESULT:      -8.2      2.454      8.643
REMARK  8 active torsions:
REMARK  status: ('A' for Active; 'I' for Inactive)
REMARK    1  A    between atoms: O_2  and  C_3 
REMARK    2  A    between atoms: C_5  and  C_6 
REMARK    3  A    between atoms: C_10  and  C_11 
REMARK       I    between atoms: C_11  and  N_12 
REMARK    4  A    between atoms: N_12  and  C_13 
REMARK    5  A    between atoms: C_13  and  C_14 
REMARK    6  A    between atoms: C_15  and  C_16 
REMARK    7  A    between atoms: C_16  and  O_17 
REMARK    8  A    between atoms: O_17  and  C_18 
ROOT
HETATM    1  C   UNL     1     -43.094  56.589 -52.421  1.00  0.00     0.270 C 
HETATM    2  N   UNL     1     -42.146  57.463 -51.956  1.00  0.00    -0.345 N 
HETATM    3  O   UNL     1     -43.689  55.808 -51.686  1.00  0.00    -0.266 OA
HETATM    4  H   UNL     1     -41.652  58.062 -52.600  1.00  0.00     0.163 HD
ENDROOT
BRANCH   1   5
HETATM    5  C   UNL     1     -43.348  56.661 -53.835  1.00  0.00     0.120 A 
HETATM    6  N   UNL     1     -44.612  56.571 -54.345  1.00  0.00    -0.272 N 
HETATM    7  N   UNL     1     -44.678  56.694 -55.679  1.00  0.00    -0.174 NA
HETATM    8  H   UNL     1     -45.472  56.439 -53.820  1.00  0.00     0.189 HD
HETATM    9  C   UNL     1     -43.404  56.846 -56.069  1.00  0.00     0.089 A 
HETATM   10  C   UNL     1     -42.538  56.827 -54.941  1.00  0.00     0.071 A 
BRANCH   9  11
HETATM   11  C   UNL     1     -43.038  57.024 -57.476  1.00  0.00    -0.003 A 
HETATM   12  C   UNL     1     -43.574  56.182 -58.461  1.00  0.00     0.050 A 
HETATM   13  C   UNL     1     -43.266  56.362 -59.814  1.00  0.00     0.069 A 
HETATM   14  C   UNL     1     -42.392  57.384 -60.187  1.00  0.00     0.037 A 
HETATM   15  C   UNL     1     -41.839  58.221 -59.215  1.00  0.00     0.004 A 
HETATM   16  C   UNL     1     -42.161  58.044 -57.868  1.00  0.00     0.014 A 
BRANCH  13  17
HETATM   17  O   UNL     1     -43.878  55.481 -60.663  1.00  0.00    -0.356 OA
HETATM   18  C   UNL     1     -44.860  54.620 -60.100  1.00  0.00     0.210 C 
ENDBRANCH  13  17
ENDBRANCH   9  11
ENDBRANCH   1   5
BRANCH   2  19
HETATM   19  C   UNL     1     -41.782  57.507 -50.564  1.00  0.00     0.217 C 
BRANCH  19  20
HETATM   20  C   UNL     1     -41.040  56.292 -50.220  1.00  0.00    -0.085 C 
HETATM   21  C   UNL     1     -40.407  55.313 -49.928  1.00  0.00    -0.078 C 
BRANCH  21  22
HETATM   22  C   UNL     1     -39.613  54.132 -49.560  1.00  0.00     0.269 C 
BRANCH  22  23
HETATM   23  O   UNL     1     -40.452  52.980 -49.582  1.00  0.00    -0.339 OA
BRANCH  23  24
HETATM   24  C   UNL     1     -40.200  52.047 -50.552  1.00  0.00     0.072 A 
HETATM   25  C   UNL     1     -39.997  52.311 -51.910  1.00  0.00     0.076 A 
HETATM   26  C   UNL     1     -39.758  51.237 -52.745  1.00  0.00     0.107 A 
HETATM   27  C   UNL     1     -39.716  49.944 -52.279  1.00  0.00     0.105 A 
HETATM   28  O   UNL     1     -39.544  51.311 -54.085  1.00  0.00    -0.323 OA
HETATM   29  O   UNL     1     -39.468  49.044 -53.266  1.00  0.00    -0.323 OA
HETATM   30  C   UNL     1     -39.911  49.649 -50.948  1.00  0.00     0.042 A 
HETATM   31  C   UNL     1     -39.360  49.917 -54.409  1.00  0.00     0.352 A 
HETATM   32  C   UNL     1     -40.156  50.718 -50.080  1.00  0.00     0.040 A 
ENDBRANCH  23  24
ENDBRANCH  22  23
ENDBRANCH  21  22
ENDBRANCH  19  20
ENDBRANCH   2  19
TORSDOF 8
ENDMDL
MODEL 3
REMARK VINA RESULT:      -7.9      2.084      2.936
REMARK  8 active torsions:
REMARK  status: ('A' for Active; 'I' for Inactive)
REMARK    1  A    between atoms: O_2  and  C_3 
REMARK    2  A    between atoms: C_5  and  C_6 
REMARK    3  A    between atoms: C_10  and  C_11 
REMARK       I    between atoms: C_11  and  N_12 
REMARK    4  A    between atoms: N_12  and  C_13 
REMARK    5  A    between atoms: C_13  and  C_14 
REMARK    6  A    between atoms: C_15  and  C_16 
REMARK    7  A    between atoms: C_16  and  O_17 
REMARK    8  A    between atoms: O_17  and  C_18 
ROOT
HETATM    1  C   UNL     1     -41.946  57.265 -51.793  1.00  0.00     0.270 C 
HETATM    2  N   UNL     1     -41.122  58.090 -52.512  1.00  0.00    -0.345 N 
HETATM    3  O   UNL     1     -43.104  57.564 -51.518  1.00  0.00    -0.266 OA
HETATM    4  H   UNL     1     -40.165  57.824 -52.684  1.00  0.00     0.163 HD
ENDROOT
BRANCH   1   5
HETATM    5  C   UNL     1     -41.358  56.016 -51.390  1.00  0.00     0.120 A 
HETATM    6  N   UNL     1     -40.704  55.879 -50.198  1.00  0.00    -0.272 N 
HETATM    7  N   UNL     1     -40.247  54.641 -49.959  1.00  0.00    -0.174 NA
HETATM    8  H   UNL     1     -40.554  56.602 -49.500  1.00  0.00     0.189 HD
HETATM    9  C   UNL     1     -40.591  53.936 -51.048  1.00  0.00     0.089 A 
HETATM   10  C   UNL     1     -41.287  54.765 -51.971  1.00  0.00     0.071 A 
BRANCH   9  11
HETATM   11  C   UNL     1     -40.278  52.512 -51.182  1.00  0.00    -0.003 A 
HETATM   12  C   UNL     1     -39.864  51.989 -52.416  1.00  0.00     0.050 A 
HETATM   13  C   UNL     1     -39.524  50.639 -52.553  1.00  0.00     0.069 A 
HETATM   14  C   UNL     1     -39.618  49.794 -51.448  1.00  0.00     0.037 A 
HETATM   15  C   UNL     1     -40.043  50.297 -50.216  1.00  0.00     0.004 A 
HETATM   16  C   UNL     1     -40.369  51.649 -50.082  1.00  0.00     0.014 A 
BRANCH  13  17
HETATM   17  O   UNL     1     -39.118  50.276 -53.808  1.00  0.00    -0.356 OA
HETATM   18  C   UNL     1     -40.136  49.977 -54.754  1.00  0.00     0.210 C 
ENDBRANCH  13  17
ENDBRANCH   9  11
ENDBRANCH   1   5
BRANCH   2  19
HETATM   19  C   UNL     1     -41.570  59.375 -52.982  1.00  0.00     0.217 C 
BRANCH  19  20
HETATM   20  C   UNL     1     -41.847  59.295 -54.419  1.00  0.00    -0.085 C 
HETATM   21  C   UNL     1     -42.058  59.201 -55.598  1.00  0.00    -0.078 C 
BRANCH  21  22
HETATM   22  C   UNL     1     -42.303  59.063 -57.041  1.00  0.00     0.269 C 
BRANCH  22  23
HETATM   23  O   UNL     1     -42.221  57.686 -57.398  1.00  0.00    -0.339 OA
BRANCH  23  24
HETATM   24  C   UNL     1     -43.215  57.193 -58.201  1.00  0.00     0.072 A 
HETATM   25  C   UNL     1     -44.545  57.625 -58.217  1.00  0.00     0.076 A 
HETATM   26  C   UNL     1     -45.412  57.004 -59.095  1.00  0.00     0.107 A 
HETATM   27  C   UNL     1     -45.004  55.996 -59.935  1.00  0.00     0.105 A 
HETATM   28  O   UNL     1     -46.732  57.296 -59.239  1.00  0.00    -0.323 OA
HETATM   29  O   UNL     1     -46.014  55.527 -60.714  1.00  0.00    -0.323 OA
HETATM   30  C   UNL     1     -43.702  55.547 -59.945  1.00  0.00     0.042 A 
HETATM   31  C   UNL     1     -47.107  56.355 -60.268  1.00  0.00     0.352 A 
HETATM   32  C   UNL     1     -42.803  56.157 -59.064  1.00  0.00     0.040 A 
ENDBRANCH  23  24
ENDBRANCH  22  23
ENDBRANCH  21  22
ENDBRANCH  19  20
ENDBRANCH   2  19
TORSDOF 8
ENDMDL
MODEL 4
REMARK VINA RESULT:      -7.9      2.043      4.073
REMARK  8 active torsions:
REMARK  status: ('A' for Active; 'I' for Inactive)
REMARK    1  A    between atoms: O_2  and  C_3 
REMARK    2  A    between atoms: C_5  and  C_6 
REMARK    3  A    between atoms: C_10  and  C_11 
REMARK       I    between atoms: C_11  and  N_12 
REMARK    4  A    between atoms: N_12  and  C_13 
REMARK    5  A    between atoms: C_13  and  C_14 
REMARK    6  A    between atoms: C_15  and  C_16 
REMARK    7  A    between atoms: C_16  and  O_17 
REMARK    8  A    between atoms: O_17  and  C_18 
ROOT
HETATM    1  C   UNL     1     -43.216  56.289 -57.165  1.00  0.00     0.270 C 
HETATM    2  N   UNL     1     -42.410  56.132 -58.262  1.00  0.00    -0.345 N 
HETATM    3  O   UNL     1     -44.166  57.065 -57.149  1.00  0.00    -0.266 OA
HETATM    4  H   UNL     1     -41.616  55.512 -58.221  1.00  0.00     0.163 HD
ENDROOT
BRANCH   1   5
HETATM    5  C   UNL     1     -42.873  55.470 -56.034  1.00  0.00     0.120 A 
HETATM    6  N   UNL     1     -43.763  55.224 -55.026  1.00  0.00    -0.272 N 
HETATM    7  N   UNL     1     -43.297  54.411 -54.066  1.00  0.00    -0.174 NA
HETATM    8  H   UNL     1     -44.711  55.579 -54.952  1.00  0.00     0.189 HD
HETATM    9  C   UNL     1     -42.041  54.127 -54.442  1.00  0.00     0.089 A 
HETATM   10  C   UNL     1     -41.736  54.776 -55.670  1.00  0.00     0.071 A 
BRANCH   9  11
HETATM   11  C   UNL     1     -41.175  53.246 -53.655  1.00  0.00    -0.003 A 
HETATM   12  C   UNL     1     -40.951  53.501 -52.294  1.00  0.00     0.050 A 
HETATM   13  C   UNL     1     -40.158  52.649 -51.518  1.00  0.00     0.069 A 
HETATM   14  C   UNL     1     -39.563  51.537 -52.114  1.00  0.00     0.037 A 
HETATM   15  C   UNL     1     -39.766  51.278 -53.471  1.00  0.00     0.004 A 
HETATM   16  C   UNL     1     -40.569  52.126 -54.238  1.00  0.00     0.014 A 
BRANCH  13  17
HETATM   17  O   UNL     1     -40.045  53.010 -50.204  1.00  0.00    -0.356 OA
HETATM   18  C   UNL     1     -40.991  53.951 -49.711  1.00  0.00     0.210 C 
ENDBRANCH  13  17
ENDBRANCH   9  11
ENDBRANCH   1   5
BRANCH   2  19
HETATM   19  C   UNL     1     -42.628  56.886 -59.469  1.00  0.00     0.217 C 
BRANCH  19  20
HETATM   20  C   UNL     1     -42.276  58.288 -59.232  1.00  0.00    -0.085 C 
HETATM   21  C   UNL     1     -42.001  59.437 -59.010  1.00  0.00    -0.078 C 
BRANCH  21  22
HETATM   22  C   UNL     1     -41.675  60.839 -58.713  1.00  0.00     0.269 C 
BRANCH  22  23
HETATM   23  O   UNL     1     -41.312  60.952 -57.339  1.00  0.00    -0.339 OA
BRANCH  23  24
HETATM   24  C   UNL     1     -42.228  60.518 -56.417  1.00  0.00     0.072 A 
HETATM   25  C   UNL     1     -42.062  59.438 -55.545  1.00  0.00     0.076 A 
HETATM   26  C   UNL     1     -43.101  59.143 -54.684  1.00  0.00     0.107 A 
HETATM   27  C   UNL     1     -44.265  59.873 -54.665  1.00  0.00     0.105 A 
HETATM   28  O   UNL     1     -43.110  58.131 -53.775  1.00  0.00    -0.323 OA
HETATM   29  O   UNL     1     -45.152  59.414 -53.744  1.00  0.00    -0.323 OA
HETATM   30  C   UNL     1     -44.460  60.943 -55.510  1.00  0.00     0.042 A 
HETATM   31  C   UNL     1     -44.414  58.309 -53.183  1.00  0.00     0.352 A 
HETATM   32  C   UNL     1     -43.425  61.263 -56.395  1.00  0.00     0.040 A 
ENDBRANCH  23  24
ENDBRANCH  22  23
ENDBRANCH  21  22
ENDBRANCH  19  20
ENDBRANCH   2  19
TORSDOF 8
ENDMDL
MODEL 5
REMARK VINA RESULT:      -7.9      1.779      2.504
REMARK  8 active torsions:
REMARK  status: ('A' for Active; 'I' for Inactive)
REMARK    1  A    between atoms: O_2  and  C_3 
REMARK    2  A    between atoms: C_5  and  C_6 
REMARK    3  A    between atoms: C_10  and  C_11 
REMARK       I    between atoms: C_11  and  N_12 
REMARK    4  A    between atoms: N_12  and  C_13 
REMARK    5  A    between atoms: C_13  and  C_14 
REMARK    6  A    between atoms: C_15  and  C_16 
REMARK    7  A    between atoms: C_16  and  O_17 
REMARK    8  A    between atoms: O_17  and  C_18 
ROOT
HETATM    1  C   UNL     1     -41.332  58.719 -53.827  1.00  0.00     0.270 C 
HETATM    2  N   UNL     1     -42.372  59.037 -54.660  1.00  0.00    -0.345 N 
HETATM    3  O   UNL     1     -40.511  59.548 -53.448  1.00  0.00    -0.266 OA
HETATM    4  H   UNL     1     -43.003  58.318 -54.979  1.00  0.00     0.163 HD
ENDROOT
BRANCH   1   5
HETATM    5  C   UNL     1     -41.277  57.341 -53.420  1.00  0.00     0.120 A 
HETATM    6  N   UNL     1     -41.991  56.876 -52.352  1.00  0.00    -0.272 N 
HETATM    7  N   UNL     1     -41.857  55.560 -52.130  1.00  0.00    -0.174 NA
HETATM    8  H   UNL     1     -42.601  57.417 -51.746  1.00  0.00     0.189 HD
HETATM    9  C   UNL     1     -41.000  55.142 -53.074  1.00  0.00     0.089 A 
HETATM   10  C   UNL     1     -40.610  56.231 -53.901  1.00  0.00     0.071 A 
BRANCH   9  11
HETATM   11  C   UNL     1     -40.590  53.741 -53.185  1.00  0.00    -0.003 A 
HETATM   12  C   UNL     1     -40.239  53.010 -52.041  1.00  0.00     0.050 A 
HETATM   13  C   UNL     1     -39.882  51.660 -52.124  1.00  0.00     0.069 A 
HETATM   14  C   UNL     1     -39.854  51.036 -53.372  1.00  0.00     0.037 A 
HETATM   15  C   UNL     1     -40.187  51.754 -54.521  1.00  0.00     0.004 A 
HETATM   16  C   UNL     1     -40.555  53.098 -54.430  1.00  0.00     0.014 A 
BRANCH  13  17
HETATM   17  O   UNL     1     -39.586  51.071 -50.926  1.00  0.00    -0.356 OA
HETATM   18  C   UNL     1     -39.648  49.651 -50.874  1.00  0.00     0.210 C 
ENDBRANCH  13  17
ENDBRANCH   9  11
ENDBRANCH   1   5
BRANCH   2  19
HETATM   19  C   UNL     1     -42.557  60.377 -55.153  1.00  0.00     0.217 C 
BRANCH  19  20
HETATM   20  C   UNL     1     -42.365  60.388 -56.606  1.00  0.00    -0.085 C 
HETATM   21  C   UNL     1     -42.178  60.384 -57.793  1.00  0.00    -0.078 C 
BRANCH  21  22
HETATM   22  C   UNL     1     -41.925  60.367 -59.240  1.00  0.00     0.269 C 
BRANCH  22  23
HETATM   23  O   UNL     1     -43.172  60.359 -59.931  1.00  0.00    -0.339 OA
BRANCH  23  24
HETATM   24  C   UNL     1     -43.847  59.167 -59.979  1.00  0.00     0.072 A 
HETATM   25  C   UNL     1     -43.330  57.951 -60.436  1.00  0.00     0.076 A 
HETATM   26  C   UNL     1     -44.164  56.850 -60.414  1.00  0.00     0.107 A 
HETATM   27  C   UNL     1     -45.460  56.923 -59.960  1.00  0.00     0.105 A 
HETATM   28  O   UNL     1     -43.829  55.597 -60.823  1.00  0.00    -0.323 OA
HETATM   29  O   UNL     1     -46.101  55.727 -60.024  1.00  0.00    -0.323 OA
HETATM   30  C   UNL     1     -45.998  58.104 -59.502  1.00  0.00     0.042 A 
HETATM   31  C   UNL     1     -45.062  54.890 -60.572  1.00  0.00     0.352 A 
HETATM   32  C   UNL     1     -45.177  59.236 -59.515  1.00  0.00     0.040 A 
ENDBRANCH  23  24
ENDBRANCH  22  23
ENDBRANCH  21  22
ENDBRANCH  19  20
ENDBRANCH   2  19
TORSDOF 8
ENDMDL
MODEL 6
REMARK VINA RESULT:      -7.9      1.899      2.618
REMARK  8 active torsions:
REMARK  status: ('A' for Active; 'I' for Inactive)
REMARK    1  A    between atoms: O_2  and  C_3 
REMARK    2  A    between atoms: C_5  and  C_6 
REMARK    3  A    between atoms: C_10  and  C_11 
REMARK       I    between atoms: C_11  and  N_12 
REMARK    4  A    between atoms: N_12  and  C_13 
REMARK    5  A    between atoms: C_13  and  C_14 
REMARK    6  A    between atoms: C_15  and  C_16 
REMARK    7  A    between atoms: C_16  and  O_17 
REMARK    8  A    between atoms: O_17  and  C_18 
ROOT
HETATM    1  C   UNL     1     -43.054  57.780 -54.998  1.00  0.00     0.270 C 
HETATM    2  N   UNL     1     -41.999  58.604 -55.292  1.00  0.00    -0.345 N 
HETATM    3  O   UNL     1     -44.217  58.169 -55.003  1.00  0.00    -0.266 OA
HETATM    4  H   UNL     1     -41.054  58.254 -55.238  1.00  0.00     0.163 HD
ENDROOT
BRANCH   1   5
HETATM    5  C   UNL     1     -42.699  56.421 -54.692  1.00  0.00     0.120 A 
HETATM    6  N   UNL     1     -43.395  55.362 -55.204  1.00  0.00    -0.272 N 
HETATM    7  N   UNL     1     -42.911  54.161 -54.850  1.00  0.00    -0.174 NA
HETATM    8  H   UNL     1     -44.204  55.404 -55.815  1.00  0.00     0.189 HD
HETATM    9  C   UNL     1     -41.868  54.438 -54.052  1.00  0.00     0.089 A 
HETATM   10  C   UNL     1     -41.705  55.845 -53.925  1.00  0.00     0.071 A 
BRANCH   9  11
HETATM   11  C   UNL     1     -41.048  53.383 -53.453  1.00  0.00    -0.003 A 
HETATM   12  C   UNL     1     -40.907  53.299 -52.060  1.00  0.00     0.050 A 
HETATM   13  C   UNL     1     -40.159  52.275 -51.468  1.00  0.00     0.069 A 
HETATM   14  C   UNL     1     -39.525  51.334 -52.280  1.00  0.00     0.037 A 
HETATM   15  C   UNL     1     -39.645  51.414 -53.668  1.00  0.00     0.004 A 
HETATM   16  C   UNL     1     -40.403  52.430 -54.253  1.00  0.00     0.014 A 
BRANCH  13  17
HETATM   17  O   UNL     1     -40.127  52.306 -50.101  1.00  0.00    -0.356 OA
HETATM   18  C   UNL     1     -40.232  53.582 -49.482  1.00  0.00     0.210 C 
ENDBRANCH  13  17
ENDBRANCH   9  11
ENDBRANCH   1   5
BRANCH   2  19
HETATM   19  C   UNL     1     -42.197  59.992 -55.615  1.00  0.00     0.217 C 
BRANCH  19  20
HETATM   20  C   UNL     1     -42.151  60.161 -57.070  1.00  0.00    -0.085 C 
HETATM   21  C   UNL     1     -42.093  60.274 -58.265  1.00  0.00    -0.078 C 
BRANCH  21  22
HETATM   22  C   UNL     1     -42.006  60.391 -59.727  1.00  0.00     0.269 C 
BRANCH  22  23
HETATM   23  O   UNL     1     -41.755  59.103 -60.284  1.00  0.00    -0.339 OA
BRANCH  23  24
HETATM   24  C   UNL     1     -42.776  58.191 -60.226  1.00  0.00     0.072 A 
HETATM   25  C   UNL     1     -44.131  58.466 -60.429  1.00  0.00     0.076 A 
HETATM   26  C   UNL     1     -45.022  57.416 -60.325  1.00  0.00     0.107 A 
HETATM   27  C   UNL     1     -44.613  56.136 -60.035  1.00  0.00     0.105 A 
HETATM   28  O   UNL     1     -46.370  57.504 -60.488  1.00  0.00    -0.323 OA
HETATM   29  O   UNL     1     -45.649  55.259 -59.981  1.00  0.00    -0.323 OA
HETATM   30  C   UNL     1     -43.286  55.831 -59.831  1.00  0.00     0.042 A 
HETATM   31  C   UNL     1     -46.760  56.132 -60.269  1.00  0.00     0.352 A 
HETATM   32  C   UNL     1     -42.362  56.877 -59.928  1.00  0.00     0.040 A 
ENDBRANCH  23  24
ENDBRANCH  22  23
ENDBRANCH  21  22
ENDBRANCH  19  20
ENDBRANCH   2  19
TORSDOF 8
ENDMDL
MODEL 7
REMARK VINA RESULT:      -7.9      2.484      4.539
REMARK  8 active torsions:
REMARK  status: ('A' for Active; 'I' for Inactive)
REMARK    1  A    between atoms: O_2  and  C_3 
REMARK    2  A    between atoms: C_5  and  C_6 
REMARK    3  A    between atoms: C_10  and  C_11 
REMARK       I    between atoms: C_11  and  N_12 
REMARK    4  A    between atoms: N_12  and  C_13 
REMARK    5  A    between atoms: C_13  and  C_14 
REMARK    6  A    between atoms: C_15  and  C_16 
REMARK    7  A    between atoms: C_16  and  O_17 
REMARK    8  A    between atoms: O_17  and  C_18 
ROOT
HETATM    1  C   UNL     1     -42.888  56.616 -56.989  1.00  0.00     0.270 C 
HETATM    2  N   UNL     1     -44.081  56.521 -57.656  1.00  0.00    -0.345 N 
HETATM    3  O   UNL     1     -42.125  57.566 -57.132  1.00  0.00    -0.266 OA
HETATM    4  H   UNL     1     -44.661  55.705 -57.541  1.00  0.00     0.163 HD
ENDROOT
BRANCH   1   5
HETATM    5  C   UNL     1     -42.598  55.523 -56.101  1.00  0.00     0.120 A 
HETATM    6  N   UNL     1     -43.531  54.570 -55.803  1.00  0.00    -0.272 N 
HETATM    7  N   UNL     1     -43.088  53.601 -54.988  1.00  0.00    -0.174 NA
HETATM    8  H   UNL     1     -44.487  54.528 -56.143  1.00  0.00     0.189 HD
HETATM    9  C   UNL     1     -41.818  53.939 -54.717  1.00  0.00     0.089 A 
HETATM   10  C   UNL     1     -41.475  55.142 -55.394  1.00  0.00     0.071 A 
BRANCH   9  11
HETATM   11  C   UNL     1     -40.963  53.121 -53.855  1.00  0.00    -0.003 A 
HETATM   12  C   UNL     1     -40.901  53.369 -52.476  1.00  0.00     0.050 A 
HETATM   13  C   UNL     1     -40.119  52.574 -51.631  1.00  0.00     0.069 A 
HETATM   14  C   UNL     1     -39.373  51.528 -52.174  1.00  0.00     0.037 A 
HETATM   15  C   UNL     1     -39.414  51.277 -53.547  1.00  0.00     0.004 A 
HETATM   16  C   UNL     1     -40.206  52.067 -54.383  1.00  0.00     0.014 A 
BRANCH  13  17
HETATM   17  O   UNL     1     -40.172  52.919 -50.308  1.00  0.00    -0.356 OA
HETATM   18  C   UNL     1     -40.118  54.307 -50.002  1.00  0.00     0.210 C 
ENDBRANCH  13  17
ENDBRANCH   9  11
ENDBRANCH   1   5
BRANCH   2  19
HETATM   19  C   UNL     1     -44.507  57.537 -58.583  1.00  0.00     0.217 C 
BRANCH  19  20
HETATM   20  C   UNL     1     -44.854  58.752 -57.841  1.00  0.00    -0.085 C 
HETATM   21  C   UNL     1     -45.166  59.735 -57.223  1.00  0.00    -0.078 C 
BRANCH  21  22
HETATM   22  C   UNL     1     -45.570  60.924 -56.460  1.00  0.00     0.269 C 
BRANCH  22  23
HETATM   23  O   UNL     1     -45.621  60.594 -55.075  1.00  0.00    -0.339 OA
BRANCH  23  24
HETATM   24  C   UNL     1     -44.562  59.889 -54.565  1.00  0.00     0.072 A 
HETATM   25  C   UNL     1     -43.230  60.312 -54.545  1.00  0.00     0.076 A 
HETATM   26  C   UNL     1     -42.294  59.461 -53.992  1.00  0.00     0.107 A 
HETATM   27  C   UNL     1     -42.636  58.235 -53.472  1.00  0.00     0.105 A 
HETATM   28  O   UNL     1     -40.960  59.710 -53.893  1.00  0.00    -0.323 OA
HETATM   29  O   UNL     1     -41.564  57.561 -52.980  1.00  0.00    -0.323 OA
HETATM   30  C   UNL     1     -43.939  57.788 -53.476  1.00  0.00     0.042 A 
HETATM   31  C   UNL     1     -40.504  58.501 -53.250  1.00  0.00     0.352 A 
HETATM   32  C   UNL     1     -44.908  58.630 -54.031  1.00  0.00     0.040 A 
ENDBRANCH  23  24
ENDBRANCH  22  23
ENDBRANCH  21  22
ENDBRANCH  19  20
ENDBRANCH   2  19
TORSDOF 8
ENDMDL
MODEL 8
REMARK VINA RESULT:      -7.8      1.515      1.801
REMARK  8 active torsions:
REMARK  status: ('A' for Active; 'I' for Inactive)
REMARK    1  A    between atoms: O_2  and  C_3 
REMARK    2  A    between atoms: C_5  and  C_6 
REMARK    3  A    between atoms: C_10  and  C_11 
REMARK       I    between atoms: C_11  and  N_12 
REMARK    4  A    between atoms: N_12  and  C_13 
REMARK    5  A    between atoms: C_13  and  C_14 
REMARK    6  A    between atoms: C_15  and  C_16 
REMARK    7  A    between atoms: C_16  and  O_17 
REMARK    8  A    between atoms: O_17  and  C_18 
ROOT
HETATM    1  C   UNL     1     -42.774  58.062 -52.016  1.00  0.00     0.270 C 
HETATM    2  N   UNL     1     -42.363  58.822 -53.079  1.00  0.00    -0.345 N 
HETATM    3  O   UNL     1     -43.624  58.446 -51.219  1.00  0.00    -0.266 OA
HETATM    4  H   UNL     1     -41.634  58.486 -53.689  1.00  0.00     0.163 HD
ENDROOT
BRANCH   1   5
HETATM    5  C   UNL     1     -42.144  56.774 -51.908  1.00  0.00     0.120 A 
HETATM    6  N   UNL     1     -41.874  56.204 -50.695  1.00  0.00    -0.272 N 
HETATM    7  N   UNL     1     -41.318  54.985 -50.771  1.00  0.00    -0.174 NA
HETATM    8  H   UNL     1     -42.063  56.603 -49.780  1.00  0.00     0.189 HD
HETATM    9  C   UNL     1     -41.194  54.750 -52.086  1.00  0.00     0.089 A 
HETATM   10  C   UNL     1     -41.697  55.851 -52.832  1.00  0.00     0.071 A 
BRANCH   9  11
HETATM   11  C   UNL     1     -40.628  53.501 -52.601  1.00  0.00    -0.003 A 
HETATM   12  C   UNL     1     -40.168  52.513 -51.719  1.00  0.00     0.050 A 
HETATM   13  C   UNL     1     -39.660  51.299 -52.194  1.00  0.00     0.069 A 
HETATM   14  C   UNL     1     -39.593  51.076 -53.569  1.00  0.00     0.037 A 
HETATM   15  C   UNL     1     -40.034  52.057 -54.459  1.00  0.00     0.004 A 
HETATM   16  C   UNL     1     -40.552  53.262 -53.980  1.00  0.00     0.014 A 
BRANCH  13  17
HETATM   17  O   UNL     1     -39.269  50.422 -51.219  1.00  0.00    -0.356 OA
HETATM   18  C   UNL     1     -40.142  50.261 -50.108  1.00  0.00     0.210 C 
ENDBRANCH  13  17
ENDBRANCH   9  11
ENDBRANCH   1   5
BRANCH   2  19
HETATM   19  C   UNL     1     -42.902  60.136 -53.317  1.00  0.00     0.217 C 
BRANCH  19  20
HETATM   20  C   UNL     1     -42.657  60.513 -54.712  1.00  0.00    -0.085 C 
HETATM   21  C   UNL     1     -42.431  60.840 -55.846  1.00  0.00    -0.078 C 
BRANCH  21  22
HETATM   22  C   UNL     1     -42.134  61.255 -57.224  1.00  0.00     0.269 C 
BRANCH  22  23
HETATM   23  O   UNL     1     -41.275  60.290 -57.826  1.00  0.00    -0.339 OA
BRANCH  23  24
HETATM   24  C   UNL     1     -41.876  59.262 -58.506  1.00  0.00     0.072 A 
HETATM   25  C   UNL     1     -42.201  58.010 -57.976  1.00  0.00     0.076 A 
HETATM   26  C   UNL     1     -42.802  57.094 -58.817  1.00  0.00     0.107 A 
HETATM   27  C   UNL     1     -43.082  57.381 -60.132  1.00  0.00     0.105 A 
HETATM   28  O   UNL     1     -43.180  55.834 -58.470  1.00  0.00    -0.323 OA
HETATM   29  O   UNL     1     -43.672  56.341 -60.777  1.00  0.00    -0.323 OA
HETATM   30  C   UNL     1     -42.775  58.605 -60.684  1.00  0.00     0.042 A 
HETATM   31  C   UNL     1     -43.732  55.363 -59.719  1.00  0.00     0.352 A 
HETATM   32  C   UNL     1     -42.165  59.551 -59.855  1.00  0.00     0.040 A 
ENDBRANCH  23  24
ENDBRANCH  22  23
ENDBRANCH  21  22
ENDBRANCH  19  20
ENDBRANCH   2  19
TORSDOF 8
ENDMDL
MODEL 9
REMARK VINA RESULT:      -7.8      2.091      4.361
REMARK  8 active torsions:
REMARK  status: ('A' for Active; 'I' for Inactive)
REMARK    1  A    between atoms: O_2  and  C_3 
REMARK    2  A    between atoms: C_5  and  C_6 
REMARK    3  A    between atoms: C_10  and  C_11 
REMARK       I    between atoms: C_11  and  N_12 
REMARK    4  A    between atoms: N_12  and  C_13 
REMARK    5  A    between atoms: C_13  and  C_14 
REMARK    6  A    between atoms: C_15  and  C_16 
REMARK    7  A    between atoms: C_16  and  O_17 
REMARK    8  A    between atoms: O_17  and  C_18 
ROOT
HETATM    1  C   UNL     1     -42.884  56.625 -57.086  1.00  0.00     0.270 C 
HETATM    2  N   UNL     1     -41.783  57.300 -57.543  1.00  0.00    -0.345 N 
HETATM    3  O   UNL     1     -44.024  56.894 -57.452  1.00  0.00    -0.266 OA
HETATM    4  H   UNL     1     -40.867  57.073 -57.188  1.00  0.00     0.163 HD
ENDROOT
BRANCH   1   5
HETATM    5  C   UNL     1     -42.606  55.569 -56.150  1.00  0.00     0.120 A 
HETATM    6  N   UNL     1     -43.567  54.676 -55.765  1.00  0.00    -0.272 N 
HETATM    7  N   UNL     1     -43.133  53.732 -54.917  1.00  0.00    -0.174 NA
HETATM    8  H   UNL     1     -44.537  54.659 -56.066  1.00  0.00     0.189 HD
HETATM    9  C   UNL     1     -41.841  54.026 -54.713  1.00  0.00     0.089 A 
HETATM   10  C   UNL     1     -41.473  55.175 -55.467  1.00  0.00     0.071 A 
BRANCH   9  11
HETATM   11  C   UNL     1     -40.988  53.218 -53.839  1.00  0.00    -0.003 A 
HETATM   12  C   UNL     1     -40.799  53.580 -52.497  1.00  0.00     0.050 A 
HETATM   13  C   UNL     1     -40.019  52.798 -51.639  1.00  0.00     0.069 A 
HETATM   14  C   UNL     1     -39.401  51.648 -52.133  1.00  0.00     0.037 A 
HETATM   15  C   UNL     1     -39.568  51.283 -53.470  1.00  0.00     0.004 A 
HETATM   16  C   UNL     1     -40.359  52.061 -54.319  1.00  0.00     0.014 A 
BRANCH  13  17
HETATM   17  O   UNL     1     -39.941  53.261 -50.354  1.00  0.00    -0.356 OA
HETATM   18  C   UNL     1     -40.360  54.601 -50.126  1.00  0.00     0.210 C 
ENDBRANCH  13  17
ENDBRANCH   9  11
ENDBRANCH   1   5
BRANCH   2  19
HETATM   19  C   UNL     1     -41.903  58.385 -58.482  1.00  0.00     0.217 C 
BRANCH  19  20
HETATM   20  C   UNL     1     -42.284  59.605 -57.765  1.00  0.00    -0.085 C 
HETATM   21  C   UNL     1     -42.578  60.596 -57.153  1.00  0.00    -0.078 C 
BRANCH  21  22
HETATM   22  C   UNL     1     -42.921  61.800 -56.384  1.00  0.00     0.269 C 
BRANCH  22  23
HETATM   23  O   UNL     1     -43.866  61.455 -55.374  1.00  0.00    -0.339 OA
BRANCH  23  24
HETATM   24  C   UNL     1     -43.537  60.414 -54.545  1.00  0.00     0.072 A 
HETATM   25  C   UNL     1     -44.137  59.152 -54.539  1.00  0.00     0.076 A 
HETATM   26  C   UNL     1     -43.674  58.226 -53.624  1.00  0.00     0.107 A 
HETATM   27  C   UNL     1     -42.659  58.512 -52.743  1.00  0.00     0.105 A 
HETATM   28  O   UNL     1     -44.143  56.957 -53.479  1.00  0.00    -0.323 OA
HETATM   29  O   UNL     1     -42.360  57.462 -51.934  1.00  0.00    -0.323 OA
HETATM   30  C   UNL     1     -42.046  59.745 -52.724  1.00  0.00     0.042 A 
HETATM   31  C   UNL     1     -43.305  56.479 -52.405  1.00  0.00     0.352 A 
HETATM   32  C   UNL     1     -42.496  60.703 -53.638  1.00  0.00     0.040 A 
ENDBRANCH  23  24
ENDBRANCH  22  23
ENDBRANCH  21  22
ENDBRANCH  19  20
ENDBRANCH   2  19
TORSDOF 8
ENDMDL
MODEL 10
REMARK VINA RESULT:      -7.8      1.803      2.581
REMARK  8 active torsions:
REMARK  status: ('A' for Active; 'I' for Inactive)
REMARK    1  A    between atoms: O_2  and  C_3 
REMARK    2  A    between atoms: C_5  and  C_6 
REMARK    3  A    between atoms: C_10  and  C_11 
REMARK       I    between atoms: C_11  and  N_12 
REMARK    4  A    between atoms: N_12  and  C_13 
REMARK    5  A    between atoms: C_13  and  C_14 
REMARK    6  A    between atoms: C_15  and  C_16 
REMARK    7  A    between atoms: C_16  and  O_17 
REMARK    8  A    between atoms: O_17  and  C_18 
ROOT
HETATM    1  C   UNL     1     -43.319  58.017 -53.624  1.00  0.00     0.270 C 
HETATM    2  N   UNL     1     -42.234  58.819 -53.866  1.00  0.00    -0.345 N 
HETATM    3  O   UNL     1     -44.473  58.425 -53.707  1.00  0.00    -0.266 OA
HETATM    4  H   UNL     1     -41.301  58.456 -53.750  1.00  0.00     0.163 HD
ENDROOT
BRANCH   1   5
HETATM    5  C   UNL     1     -43.006  56.658 -53.275  1.00  0.00     0.120 A 
HETATM    6  N   UNL     1     -43.948  55.668 -53.317  1.00  0.00    -0.272 N 
HETATM    7  N   UNL     1     -43.483  54.451 -52.998  1.00  0.00    -0.174 NA
HETATM    8  H   UNL     1     -44.926  55.770 -53.573  1.00  0.00     0.189 HD
HETATM    9  C   UNL     1     -42.188  54.647 -52.710  1.00  0.00     0.089 A 
HETATM   10  C   UNL     1     -41.851  56.020 -52.868  1.00  0.00     0.071 A 
BRANCH   9  11
HETATM   11  C   UNL     1     -41.304  53.548 -52.316  1.00  0.00    -0.003 A 
HETATM   12  C   UNL     1     -40.651  52.778 -53.290  1.00  0.00     0.050 A 
HETATM   13  C   UNL     1     -39.774  51.749 -52.931  1.00  0.00     0.069 A 
HETATM   14  C   UNL     1     -39.561  51.470 -51.581  1.00  0.00     0.037 A 
HETATM   15  C   UNL     1     -40.216  52.219 -50.601  1.00  0.00     0.004 A 
HETATM   16  C   UNL     1     -41.080  53.254 -50.964  1.00  0.00     0.014 A 
BRANCH  13  17
HETATM   17  O   UNL     1     -39.193  51.098 -53.985  1.00  0.00    -0.356 OA
HETATM   18  C   UNL     1     -39.814  49.895 -54.421  1.00  0.00     0.210 C 
ENDBRANCH  13  17
ENDBRANCH   9  11
ENDBRANCH   1   5
BRANCH   2  19
HETATM   19  C   UNL     1     -42.389  60.205 -54.224  1.00  0.00     0.217 C 
BRANCH  19  20
HETATM   20  C   UNL     1     -42.203  60.355 -55.669  1.00  0.00    -0.085 C 
HETATM   21  C   UNL     1     -42.025  60.459 -56.853  1.00  0.00    -0.078 C 
BRANCH  21  22
HETATM   22  C   UNL     1     -41.786  60.568 -58.299  1.00  0.00     0.269 C 
BRANCH  22  23
HETATM   23  O   UNL     1     -43.008  60.329 -58.993  1.00  0.00    -0.339 OA
BRANCH  23  24
HETATM   24  C   UNL     1     -43.280  59.033 -59.343  1.00  0.00     0.072 A 
HETATM   25  C   UNL     1     -44.547  58.441 -59.371  1.00  0.00     0.076 A 
HETATM   26  C   UNL     1     -44.627  57.114 -59.747  1.00  0.00     0.107 A 
HETATM   27  C   UNL     1     -43.515  56.382 -60.087  1.00  0.00     0.105 A 
HETATM   28  O   UNL     1     -45.772  56.384 -59.826  1.00  0.00    -0.323 OA
HETATM   29  O   UNL     1     -43.819  55.101 -60.425  1.00  0.00    -0.323 OA
HETATM   30  C   UNL     1     -42.254  56.934 -60.071  1.00  0.00     0.042 A 
HETATM   31  C   UNL     1     -45.251  55.108 -60.257  1.00  0.00     0.352 A 
HETATM   32  C   UNL     1     -42.143  58.276 -59.692  1.00  0.00     0.040 A 
ENDBRANCH  23  24
ENDBRANCH  22  23
ENDBRANCH  21  22
ENDBRANCH  19  20
ENDBRANCH   2  19
TORSDOF 8
ENDMDL
