MODEL 1
REMARK VINA RESULT:      -8.4      0.000      0.000
REMARK  3 active torsions:
REMARK  status: ('A' for Active; 'I' for Inactive)
REMARK    1  A    between atoms: C_9  and  C_10 
REMARK       I    between atoms: C_10  and  N_11 
REMARK    2  A    between atoms: N_11  and  C_12 
REMARK    3  A    between atoms: C_14  and  C_15 
ROOT
HETATM    1  C   UNL     1     -42.769  55.879 -51.530  1.00  0.00     0.252 C 
HETATM    2  N   UNL     1     -41.480  55.801 -52.023  1.00  0.00    -0.325 N 
HETATM    3  O   UNL     1     -43.587  54.961 -51.487  1.00  0.00    -0.270 OA
HETATM    4  H   UNL     1     -40.895  56.607 -51.824  1.00  0.00     0.169 HD
ENDROOT
BRANCH   2   5
HETATM    5  C   UNL     1     -40.936  54.827 -52.879  1.00  0.00     0.035 A 
HETATM    6  C   UNL     1     -40.585  53.541 -52.465  1.00  0.00     0.042 A 
HETATM    7  C   UNL     1     -40.145  52.579 -53.391  1.00  0.00    -0.021 A 
HETATM    8  C   UNL     1     -40.049  52.934 -54.743  1.00  0.00     0.012 A 
HETATM    9  C   UNL     1     -40.385  54.221 -55.162  1.00  0.00     0.003 A 
HETATM   10  C   UNL     1     -40.830  55.162 -54.234  1.00  0.00     0.029 A 
BRANCH   7  11
HETATM   11  C   UNL     1     -39.829  51.225 -52.970  1.00  0.00     0.010 A 
HETATM   12  C   UNL     1     -39.707  50.027 -53.714  1.00  0.00     0.152 A 
HETATM   13  N   UNL     1     -39.400  48.972 -52.955  1.00  0.00    -0.187 NA
HETATM   14  N   UNL     1     -39.328  49.489 -51.717  1.00  0.00    -0.289 N 
HETATM   15  H   UNL     1     -39.106  48.867 -50.947  1.00  0.00     0.188 HD
HETATM   16  C   UNL     1     -39.574  50.830 -51.672  1.00  0.00     0.123 A 
ENDBRANCH   7  11
ENDBRANCH   2   5
BRANCH   1  17
HETATM   17  C   UNL     1     -43.165  57.311 -51.097  1.00  0.00     0.225 C 
HETATM   18  C   UNL     1     -44.577  57.617 -51.620  1.00  0.00     0.083 C 
HETATM   19  C   UNL     1     -44.199  58.328 -52.865  1.00  0.00    -0.021 A 
HETATM   20  C   UNL     1     -42.889  58.757 -52.760  1.00  0.00     0.076 A 
HETATM   21  C   UNL     1     -44.934  58.575 -54.007  1.00  0.00     0.017 A 
HETATM   22  C   UNL     1     -42.261  59.461 -53.766  1.00  0.00     0.044 A 
HETATM   23  O   UNL     1     -42.264  58.326 -51.612  1.00  0.00    -0.336 OA
HETATM   24  C   UNL     1     -42.977  59.712 -54.948  1.00  0.00    -0.053 A 
HETATM   25  C   UNL     1     -44.318  59.255 -55.074  1.00  0.00    -0.055 A 
HETATM   26  C   UNL     1     -42.287  60.425 -56.079  1.00  0.00     0.049 C 
HETATM   27  C   UNL     1     -45.089  59.452 -56.353  1.00  0.00     0.049 C 
ENDBRANCH   1  17
TORSDOF 3
ENDMDL
MODEL 2
REMARK VINA RESULT:      -8.4      2.625      3.355
REMARK  3 active torsions:
REMARK  status: ('A' for Active; 'I' for Inactive)
REMARK    1  A    between atoms: C_9  and  C_10 
REMARK       I    between atoms: C_10  and  N_11 
REMARK    2  A    between atoms: N_11  and  C_12 
REMARK    3  A    between atoms: C_14  and  C_15 
ROOT
HETATM    1  C   UNL     1     -41.579  56.945 -53.853  1.00  0.00     0.252 C 
HETATM    2  N   UNL     1     -42.014  55.673 -53.529  1.00  0.00    -0.325 N 
HETATM    3  O   UNL     1     -40.441  57.385 -53.698  1.00  0.00    -0.270 OA
HETATM    4  H   UNL     1     -42.935  55.432 -53.882  1.00  0.00     0.169 HD
ENDROOT
BRANCH   2   5
HETATM    5  C   UNL     1     -41.412  54.746 -52.661  1.00  0.00     0.035 A 
HETATM    6  C   UNL     1     -41.055  53.449 -53.039  1.00  0.00     0.042 A 
HETATM    7  C   UNL     1     -40.360  52.606 -52.155  1.00  0.00    -0.021 A 
HETATM    8  C   UNL     1     -40.040  53.080 -50.876  1.00  0.00     0.012 A 
HETATM    9  C   UNL     1     -40.405  54.369 -50.487  1.00  0.00     0.003 A 
HETATM   10  C   UNL     1     -41.085  55.198 -51.378  1.00  0.00     0.029 A 
BRANCH   7  11
HETATM   11  C   UNL     1     -39.942  51.276 -52.564  1.00  0.00     0.010 A 
HETATM   12  C   UNL     1     -39.820  50.696 -53.850  1.00  0.00     0.152 A 
HETATM   13  N   UNL     1     -39.398  49.429 -53.811  1.00  0.00    -0.187 NA
HETATM   14  N   UNL     1     -39.252  49.189 -52.497  1.00  0.00    -0.289 N 
HETATM   15  H   UNL     1     -38.936  48.270 -52.208  1.00  0.00     0.188 HD
HETATM   16  C   UNL     1     -39.562  50.260 -51.711  1.00  0.00     0.123 A 
ENDBRANCH   7  11
ENDBRANCH   2   5
BRANCH   1  17
HETATM   17  C   UNL     1     -42.716  57.860 -54.369  1.00  0.00     0.225 C 
HETATM   18  C   UNL     1     -43.831  56.983 -54.959  1.00  0.00     0.083 C 
HETATM   19  C   UNL     1     -43.424  57.044 -56.384  1.00  0.00    -0.021 A 
HETATM   20  C   UNL     1     -42.591  58.131 -56.570  1.00  0.00     0.076 A 
HETATM   21  C   UNL     1     -43.747  56.213 -57.439  1.00  0.00     0.017 A 
HETATM   22  C   UNL     1     -42.060  58.451 -57.801  1.00  0.00     0.044 A 
HETATM   23  O   UNL     1     -42.275  58.782 -55.399  1.00  0.00    -0.336 OA
HETATM   24  C   UNL     1     -42.354  57.614 -58.889  1.00  0.00    -0.053 A 
HETATM   25  C   UNL     1     -43.193  56.480 -58.704  1.00  0.00    -0.055 A 
HETATM   26  C   UNL     1     -41.733  57.913 -60.227  1.00  0.00     0.049 C 
HETATM   27  C   UNL     1     -43.474  55.528 -59.836  1.00  0.00     0.049 C 
ENDBRANCH   1  17
TORSDOF 3
ENDMDL
MODEL 3
REMARK VINA RESULT:      -8.3      3.459      4.893
REMARK  3 active torsions:
REMARK  status: ('A' for Active; 'I' for Inactive)
REMARK    1  A    between atoms: C_9  and  C_10 
REMARK       I    between atoms: C_10  and  N_11 
REMARK    2  A    between atoms: N_11  and  C_12 
REMARK    3  A    between atoms: C_14  and  C_15 
ROOT
HETATM    1  C   UNL     1     -42.645  57.033 -55.565  1.00  0.00     0.252 C 
HETATM    2  N   UNL     1     -41.415  56.617 -55.088  1.00  0.00    -0.325 N 
HETATM    3  O   UNL     1     -43.743  56.618 -55.201  1.00  0.00    -0.270 OA
HETATM    4  H   UNL     1     -40.627  57.186 -55.379  1.00  0.00     0.169 HD
ENDROOT
BRANCH   2   5
HETATM    5  C   UNL     1     -41.113  55.437 -54.386  1.00  0.00     0.035 A 
HETATM    6  C   UNL     1     -41.096  55.347 -52.992  1.00  0.00     0.042 A 
HETATM    7  C   UNL     1     -40.890  54.113 -52.351  1.00  0.00    -0.021 A 
HETATM    8  C   UNL     1     -40.684  52.968 -53.133  1.00  0.00     0.012 A 
HETATM    9  C   UNL     1     -40.686  53.053 -54.525  1.00  0.00     0.003 A 
HETATM   10  C   UNL     1     -40.902  54.282 -55.148  1.00  0.00     0.029 A 
BRANCH   7  11
HETATM   11  C   UNL     1     -40.925  54.008 -50.902  1.00  0.00     0.010 A 
HETATM   12  C   UNL     1     -41.520  54.843 -49.926  1.00  0.00     0.152 A 
HETATM   13  N   UNL     1     -41.328  54.402 -48.679  1.00  0.00    -0.187 NA
HETATM   14  N   UNL     1     -40.606  53.283 -48.852  1.00  0.00    -0.289 N 
HETATM   15  H   UNL     1     -40.327  52.758 -48.029  1.00  0.00     0.188 HD
HETATM   16  C   UNL     1     -40.340  53.003 -50.160  1.00  0.00     0.123 A 
ENDBRANCH   7  11
ENDBRANCH   2   5
BRANCH   1  17
HETATM   17  C   UNL     1     -42.529  58.052 -56.724  1.00  0.00     0.225 C 
HETATM   18  C   UNL     1     -43.903  58.697 -56.960  1.00  0.00     0.083 C 
HETATM   19  C   UNL     1     -44.370  57.820 -58.061  1.00  0.00    -0.021 A 
HETATM   20  C   UNL     1     -43.279  57.188 -58.629  1.00  0.00     0.076 A 
HETATM   21  C   UNL     1     -45.647  57.581 -58.528  1.00  0.00     0.017 A 
HETATM   22  C   UNL     1     -43.402  56.315 -59.688  1.00  0.00     0.044 A 
HETATM   23  O   UNL     1     -42.098  57.443 -57.970  1.00  0.00    -0.336 OA
HETATM   24  C   UNL     1     -44.690  56.037 -60.173  1.00  0.00    -0.053 A 
HETATM   25  C   UNL     1     -45.821  56.664 -59.581  1.00  0.00    -0.055 A 
HETATM   26  C   UNL     1     -44.848  55.039 -61.289  1.00  0.00     0.049 C 
HETATM   27  C   UNL     1     -47.219  56.338 -60.037  1.00  0.00     0.049 C 
ENDBRANCH   1  17
TORSDOF 3
ENDMDL
MODEL 4
REMARK VINA RESULT:      -8.0      3.186      4.417
REMARK  3 active torsions:
REMARK  status: ('A' for Active; 'I' for Inactive)
REMARK    1  A    between atoms: C_9  and  C_10 
REMARK       I    between atoms: C_10  and  N_11 
REMARK    2  A    between atoms: N_11  and  C_12 
REMARK    3  A    between atoms: C_14  and  C_15 
ROOT
HETATM    1  C   UNL     1     -42.850  57.403 -55.299  1.00  0.00     0.252 C 
HETATM    2  N   UNL     1     -41.731  57.106 -54.543  1.00  0.00    -0.325 N 
HETATM    3  O   UNL     1     -44.000  57.035 -55.070  1.00  0.00    -0.270 OA
HETATM    4  H   UNL     1     -40.897  57.632 -54.786  1.00  0.00     0.169 HD
ENDROOT
BRANCH   2   5
HETATM    5  C   UNL     1     -41.572  56.077 -53.599  1.00  0.00     0.035 A 
HETATM    6  C   UNL     1     -41.146  54.787 -53.922  1.00  0.00     0.042 A 
HETATM    7  C   UNL     1     -40.905  53.833 -52.919  1.00  0.00    -0.021 A 
HETATM    8  C   UNL     1     -41.113  54.191 -51.580  1.00  0.00     0.012 A 
HETATM    9  C   UNL     1     -41.551  55.473 -51.250  1.00  0.00     0.003 A 
HETATM   10  C   UNL     1     -41.776  56.412 -52.256  1.00  0.00     0.029 A 
BRANCH   7  11
HETATM   11  C   UNL     1     -40.412  52.507 -53.250  1.00  0.00     0.010 A 
HETATM   12  C   UNL     1     -40.572  51.723 -54.418  1.00  0.00     0.152 A 
HETATM   13  N   UNL     1     -39.958  50.539 -54.337  1.00  0.00    -0.187 NA
HETATM   14  N   UNL     1     -39.404  50.558 -53.113  1.00  0.00    -0.289 N 
HETATM   15  H   UNL     1     -38.875  49.747 -52.812  1.00  0.00     0.188 HD
HETATM   16  C   UNL     1     -39.645  51.711 -52.425  1.00  0.00     0.123 A 
ENDBRANCH   7  11
ENDBRANCH   2   5
BRANCH   1  17
HETATM   17  C   UNL     1     -42.517  58.202 -56.583  1.00  0.00     0.225 C 
HETATM   18  C   UNL     1     -43.777  58.950 -57.044  1.00  0.00     0.083 C 
HETATM   19  C   UNL     1     -44.263  57.965 -58.040  1.00  0.00    -0.021 A 
HETATM   20  C   UNL     1     -43.219  57.132 -58.398  1.00  0.00     0.076 A 
HETATM   21  C   UNL     1     -45.520  57.799 -58.587  1.00  0.00     0.017 A 
HETATM   22  C   UNL     1     -43.369  56.118 -59.320  1.00  0.00     0.044 A 
HETATM   23  O   UNL     1     -42.071  57.356 -57.675  1.00  0.00    -0.336 OA
HETATM   24  C   UNL     1     -44.640  55.912 -59.880  1.00  0.00    -0.053 A 
HETATM   25  C   UNL     1     -45.725  56.749 -59.502  1.00  0.00    -0.055 A 
HETATM   26  C   UNL     1     -44.835  54.771 -60.842  1.00  0.00     0.049 C 
HETATM   27  C   UNL     1     -47.114  56.512 -60.036  1.00  0.00     0.049 C 
ENDBRANCH   1  17
TORSDOF 3
ENDMDL
MODEL 5
REMARK VINA RESULT:      -7.8      4.031      8.168
REMARK  3 active torsions:
REMARK  status: ('A' for Active; 'I' for Inactive)
REMARK    1  A    between atoms: C_9  and  C_10 
REMARK       I    between atoms: C_10  and  N_11 
REMARK    2  A    between atoms: N_11  and  C_12 
REMARK    3  A    between atoms: C_14  and  C_15 
ROOT
HETATM    1  C   UNL     1     -42.465  55.469 -55.861  1.00  0.00     0.252 C 
HETATM    2  N   UNL     1     -43.275  55.992 -56.853  1.00  0.00    -0.325 N 
HETATM    3  O   UNL     1     -41.359  55.890 -55.530  1.00  0.00    -0.270 OA
HETATM    4  H   UNL     1     -44.221  55.624 -56.873  1.00  0.00     0.169 HD
ENDROOT
BRANCH   2   5
HETATM    5  C   UNL     1     -42.910  56.844 -57.910  1.00  0.00     0.035 A 
HETATM    6  C   UNL     1     -42.614  58.199 -57.747  1.00  0.00     0.042 A 
HETATM    7  C   UNL     1     -42.152  58.972 -58.825  1.00  0.00    -0.021 A 
HETATM    8  C   UNL     1     -42.006  58.366 -60.081  1.00  0.00     0.012 A 
HETATM    9  C   UNL     1     -42.313  57.017 -60.254  1.00  0.00     0.003 A 
HETATM   10  C   UNL     1     -42.759  56.259 -59.172  1.00  0.00     0.029 A 
BRANCH   7  11
HETATM   11  C   UNL     1     -41.794  60.369 -58.646  1.00  0.00     0.010 A 
HETATM   12  C   UNL     1     -41.431  61.362 -59.587  1.00  0.00     0.152 A 
HETATM   13  N   UNL     1     -41.169  62.544 -59.022  1.00  0.00    -0.187 NA
HETATM   14  N   UNL     1     -41.360  62.312 -57.712  1.00  0.00    -0.289 N 
HETATM   15  H   UNL     1     -41.216  63.076 -57.062  1.00  0.00     0.188 HD
HETATM   16  C   UNL     1     -41.736  61.030 -57.436  1.00  0.00     0.123 A 
ENDBRANCH   7  11
ENDBRANCH   2   5
BRANCH   1  17
HETATM   17  C   UNL     1     -43.045  54.184 -55.224  1.00  0.00     0.225 C 
HETATM   18  C   UNL     1     -43.911  54.574 -54.016  1.00  0.00     0.083 C 
HETATM   19  C   UNL     1     -42.897  54.388 -52.951  1.00  0.00    -0.021 A 
HETATM   20  C   UNL     1     -41.881  53.582 -53.430  1.00  0.00     0.076 A 
HETATM   21  C   UNL     1     -42.854  54.890 -51.665  1.00  0.00     0.017 A 
HETATM   22  C   UNL     1     -40.797  53.225 -52.657  1.00  0.00     0.044 A 
HETATM   23  O   UNL     1     -42.017  53.268 -54.763  1.00  0.00    -0.336 OA
HETATM   24  C   UNL     1     -40.716  53.734 -51.351  1.00  0.00    -0.053 A 
HETATM   25  C   UNL     1     -41.744  54.582 -50.856  1.00  0.00    -0.055 A 
HETATM   26  C   UNL     1     -39.509  53.404 -50.515  1.00  0.00     0.049 C 
HETATM   27  C   UNL     1     -41.653  55.196 -49.484  1.00  0.00     0.049 C 
ENDBRANCH   1  17
TORSDOF 3
ENDMDL
MODEL 6
REMARK VINA RESULT:      -7.7      2.082      3.290
REMARK  3 active torsions:
REMARK  status: ('A' for Active; 'I' for Inactive)
REMARK    1  A    between atoms: C_9  and  C_10 
REMARK       I    between atoms: C_10  and  N_11 
REMARK    2  A    between atoms: N_11  and  C_12 
REMARK    3  A    between atoms: C_14  and  C_15 
ROOT
HETATM    1  C   UNL     1     -42.025  56.560 -53.494  1.00  0.00     0.252 C 
HETATM    2  N   UNL     1     -41.209  56.249 -52.422  1.00  0.00    -0.325 N 
HETATM    3  O   UNL     1     -42.896  55.840 -53.977  1.00  0.00    -0.270 OA
HETATM    4  H   UNL     1     -40.668  57.025 -52.055  1.00  0.00     0.169 HD
ENDROOT
BRANCH   2   5
HETATM    5  C   UNL     1     -40.930  54.980 -51.886  1.00  0.00     0.035 A 
HETATM    6  C   UNL     1     -40.708  53.841 -52.664  1.00  0.00     0.042 A 
HETATM    7  C   UNL     1     -40.329  52.625 -52.071  1.00  0.00    -0.021 A 
HETATM    8  C   UNL     1     -40.190  52.563 -50.678  1.00  0.00     0.012 A 
HETATM    9  C   UNL     1     -40.424  53.692 -49.893  1.00  0.00     0.003 A 
HETATM   10  C   UNL     1     -40.789  54.896 -50.496  1.00  0.00     0.029 A 
BRANCH   7  11
HETATM   11  C   UNL     1     -40.047  51.453 -52.883  1.00  0.00     0.010 A 
HETATM   12  C   UNL     1     -39.545  50.178 -52.528  1.00  0.00     0.152 A 
HETATM   13  N   UNL     1     -39.423  49.357 -53.575  1.00  0.00    -0.187 NA
HETATM   14  N   UNL     1     -39.842  50.106 -54.608  1.00  0.00    -0.289 N 
HETATM   15  H   UNL     1     -39.839  49.693 -55.535  1.00  0.00     0.188 HD
HETATM   16  C   UNL     1     -40.228  51.364 -54.248  1.00  0.00     0.123 A 
ENDBRANCH   7  11
ENDBRANCH   2   5
BRANCH   1  17
HETATM   17  C   UNL     1     -41.681  57.924 -54.139  1.00  0.00     0.225 C 
HETATM   18  C   UNL     1     -40.940  58.789 -53.108  1.00  0.00     0.083 C 
HETATM   19  C   UNL     1     -42.098  59.564 -52.599  1.00  0.00    -0.021 A 
HETATM   20  C   UNL     1     -43.127  59.492 -53.519  1.00  0.00     0.076 A 
HETATM   21  C   UNL     1     -42.250  60.268 -51.422  1.00  0.00     0.017 A 
HETATM   22  C   UNL     1     -44.335  60.127 -53.324  1.00  0.00     0.044 A 
HETATM   23  O   UNL     1     -42.856  58.655 -54.577  1.00  0.00    -0.336 OA
HETATM   24  C   UNL     1     -44.527  60.837 -52.127  1.00  0.00    -0.053 A 
HETATM   25  C   UNL     1     -43.482  60.897 -51.165  1.00  0.00    -0.055 A 
HETATM   26  C   UNL     1     -45.861  61.484 -51.870  1.00  0.00     0.049 C 
HETATM   27  C   UNL     1     -43.679  61.595 -49.845  1.00  0.00     0.049 C 
ENDBRANCH   1  17
TORSDOF 3
ENDMDL
MODEL 7
REMARK VINA RESULT:      -7.7      1.456      2.028
REMARK  3 active torsions:
REMARK  status: ('A' for Active; 'I' for Inactive)
REMARK    1  A    between atoms: C_9  and  C_10 
REMARK       I    between atoms: C_10  and  N_11 
REMARK    2  A    between atoms: N_11  and  C_12 
REMARK    3  A    between atoms: C_14  and  C_15 
ROOT
HETATM    1  C   UNL     1     -42.767  56.565 -52.940  1.00  0.00     0.252 C 
HETATM    2  N   UNL     1     -41.432  56.234 -53.089  1.00  0.00    -0.325 N 
HETATM    3  O   UNL     1     -43.697  55.777 -52.782  1.00  0.00    -0.270 OA
HETATM    4  H   UNL     1     -40.788  57.017 -53.038  1.00  0.00     0.169 HD
ENDROOT
BRANCH   2   5
HETATM    5  C   UNL     1     -40.882  54.991 -53.445  1.00  0.00     0.035 A 
HETATM    6  C   UNL     1     -40.660  53.952 -52.538  1.00  0.00     0.042 A 
HETATM    7  C   UNL     1     -40.207  52.696 -52.975  1.00  0.00    -0.021 A 
HETATM    8  C   UNL     1     -39.963  52.501 -54.342  1.00  0.00     0.012 A 
HETATM    9  C   UNL     1     -40.169  53.537 -55.252  1.00  0.00     0.003 A 
HETATM   10  C   UNL     1     -40.630  54.775 -54.805  1.00  0.00     0.029 A 
BRANCH   7  11
HETATM   11  C   UNL     1     -40.025  51.599 -52.040  1.00  0.00     0.010 A 
HETATM   12  C   UNL     1     -40.263  51.519 -50.647  1.00  0.00     0.152 A 
HETATM   13  N   UNL     1     -39.967  50.320 -50.137  1.00  0.00    -0.187 NA
HETATM   14  N   UNL     1     -39.535  49.627 -51.202  1.00  0.00    -0.289 N 
HETATM   15  H   UNL     1     -39.242  48.665 -51.065  1.00  0.00     0.188 HD
HETATM   16  C   UNL     1     -39.552  50.344 -52.362  1.00  0.00     0.123 A 
ENDBRANCH   7  11
ENDBRANCH   2   5
BRANCH   1  17
HETATM   17  C   UNL     1     -43.033  58.082 -53.088  1.00  0.00     0.225 C 
HETATM   18  C   UNL     1     -44.528  58.301 -53.362  1.00  0.00     0.083 C 
HETATM   19  C   UNL     1     -44.470  58.384 -54.841  1.00  0.00    -0.021 A 
HETATM   20  C   UNL     1     -43.173  58.667 -55.227  1.00  0.00     0.076 A 
HETATM   21  C   UNL     1     -45.466  58.217 -55.782  1.00  0.00     0.017 A 
HETATM   22  C   UNL     1     -42.813  58.814 -56.549  1.00  0.00     0.044 A 
HETATM   23  O   UNL     1     -42.283  58.683 -54.177  1.00  0.00    -0.336 OA
HETATM   24  C   UNL     1     -43.800  58.632 -57.531  1.00  0.00    -0.053 A 
HETATM   25  C   UNL     1     -45.133  58.318 -57.145  1.00  0.00    -0.055 A 
HETATM   26  C   UNL     1     -43.411  58.728 -58.982  1.00  0.00     0.049 C 
HETATM   27  C   UNL     1     -46.198  58.053 -58.176  1.00  0.00     0.049 C 
ENDBRANCH   1  17
TORSDOF 3
ENDMDL
MODEL 8
REMARK VINA RESULT:      -7.7      1.790      2.634
REMARK  3 active torsions:
REMARK  status: ('A' for Active; 'I' for Inactive)
REMARK    1  A    between atoms: C_9  and  C_10 
REMARK       I    between atoms: C_10  and  N_11 
REMARK    2  A    between atoms: N_11  and  C_12 
REMARK    3  A    between atoms: C_14  and  C_15 
ROOT
HETATM    1  C   UNL     1     -43.143  57.329 -51.208  1.00  0.00     0.252 C 
HETATM    2  N   UNL     1     -41.982  56.936 -50.567  1.00  0.00    -0.325 N 
HETATM    3  O   UNL     1     -44.104  56.610 -51.475  1.00  0.00    -0.270 OA
HETATM    4  H   UNL     1     -41.373  57.696 -50.280  1.00  0.00     0.169 HD
ENDROOT
BRANCH   2   5
HETATM    5  C   UNL     1     -41.482  55.633 -50.401  1.00  0.00     0.035 A 
HETATM    6  C   UNL     1     -41.204  54.769 -51.462  1.00  0.00     0.042 A 
HETATM    7  C   UNL     1     -40.606  53.517 -51.236  1.00  0.00    -0.021 A 
HETATM    8  C   UNL     1     -40.304  53.138 -49.921  1.00  0.00     0.012 A 
HETATM    9  C   UNL     1     -40.592  53.990 -48.855  1.00  0.00     0.003 A 
HETATM   10  C   UNL     1     -41.175  55.233 -49.095  1.00  0.00     0.029 A 
BRANCH   7  11
HETATM   11  C   UNL     1     -40.268  52.638 -52.342  1.00  0.00     0.010 A 
HETATM   12  C   UNL     1     -39.480  51.463 -52.386  1.00  0.00     0.152 A 
HETATM   13  N   UNL     1     -39.405  50.933 -53.610  1.00  0.00    -0.187 NA
HETATM   14  N   UNL     1     -40.142  51.770 -54.358  1.00  0.00    -0.289 N 
HETATM   15  H   UNL     1     -40.236  51.575 -55.349  1.00  0.00     0.188 HD
HETATM   16  C   UNL     1     -40.681  52.803 -53.649  1.00  0.00     0.123 A 
ENDBRANCH   7  11
ENDBRANCH   2   5
BRANCH   1  17
HETATM   17  C   UNL     1     -43.105  58.803 -51.677  1.00  0.00     0.225 C 
HETATM   18  C   UNL     1     -44.470  59.169 -52.281  1.00  0.00     0.083 C 
HETATM   19  C   UNL     1     -44.147  58.930 -53.709  1.00  0.00    -0.021 A 
HETATM   20  C   UNL     1     -42.774  58.940 -53.869  1.00  0.00     0.076 A 
HETATM   21  C   UNL     1     -44.984  58.712 -54.785  1.00  0.00     0.017 A 
HETATM   22  C   UNL     1     -42.175  58.754 -55.096  1.00  0.00     0.044 A 
HETATM   23  O   UNL     1     -42.087  59.051 -52.682  1.00  0.00    -0.336 OA
HETATM   24  C   UNL     1     -42.998  58.511 -56.208  1.00  0.00    -0.053 A 
HETATM   25  C   UNL     1     -44.411  58.477 -56.049  1.00  0.00    -0.055 A 
HETATM   26  C   UNL     1     -42.358  58.245 -57.544  1.00  0.00     0.049 C 
HETATM   27  C   UNL     1     -45.316  58.154 -57.208  1.00  0.00     0.049 C 
ENDBRANCH   1  17
TORSDOF 3
ENDMDL
MODEL 9
REMARK VINA RESULT:      -7.6      3.995      6.373
REMARK  3 active torsions:
REMARK  status: ('A' for Active; 'I' for Inactive)
REMARK    1  A    between atoms: C_9  and  C_10 
REMARK       I    between atoms: C_10  and  N_11 
REMARK    2  A    between atoms: N_11  and  C_12 
REMARK    3  A    between atoms: C_14  and  C_15 
ROOT
HETATM    1  C   UNL     1     -43.235  56.237 -57.237  1.00  0.00     0.252 C 
HETATM    2  N   UNL     1     -42.119  55.566 -56.771  1.00  0.00    -0.325 N 
HETATM    3  O   UNL     1     -43.953  56.993 -56.586  1.00  0.00    -0.270 OA
HETATM    4  H   UNL     1     -41.554  55.123 -57.488  1.00  0.00     0.169 HD
ENDROOT
BRANCH   2   5
HETATM    5  C   UNL     1     -41.763  55.301 -55.437  1.00  0.00     0.035 A 
HETATM    6  C   UNL     1     -41.604  56.291 -54.465  1.00  0.00     0.042 A 
HETATM    7  C   UNL     1     -41.351  55.954 -53.125  1.00  0.00    -0.021 A 
HETATM    8  C   UNL     1     -41.242  54.601 -52.775  1.00  0.00     0.012 A 
HETATM    9  C   UNL     1     -41.385  53.607 -53.743  1.00  0.00     0.003 A 
HETATM   10  C   UNL     1     -41.647  53.956 -55.067  1.00  0.00     0.029 A 
BRANCH   7  11
HETATM   11  C   UNL     1     -41.238  56.981 -52.103  1.00  0.00     0.010 A 
HETATM   12  C   UNL     1     -40.716  58.295 -52.163  1.00  0.00     0.152 A 
HETATM   13  N   UNL     1     -40.791  58.938 -50.994  1.00  0.00    -0.187 NA
HETATM   14  N   UNL     1     -41.359  58.035 -50.178  1.00  0.00    -0.289 N 
HETATM   15  H   UNL     1     -41.522  58.295 -49.211  1.00  0.00     0.188 HD
HETATM   16  C   UNL     1     -41.647  56.852 -50.792  1.00  0.00     0.123 A 
ENDBRANCH   7  11
ENDBRANCH   2   5
BRANCH   1  17
HETATM   17  C   UNL     1     -43.589  55.875 -58.700  1.00  0.00     0.225 C 
HETATM   18  C   UNL     1     -42.371  56.158 -59.592  1.00  0.00     0.083 C 
HETATM   19  C   UNL     1     -42.753  57.512 -60.060  1.00  0.00    -0.021 A 
HETATM   20  C   UNL     1     -44.111  57.689 -59.871  1.00  0.00     0.076 A 
HETATM   21  C   UNL     1     -41.978  58.519 -60.600  1.00  0.00     0.017 A 
HETATM   22  C   UNL     1     -44.759  58.853 -60.223  1.00  0.00     0.044 A 
HETATM   23  O   UNL     1     -44.711  56.639 -59.214  1.00  0.00    -0.336 OA
HETATM   24  C   UNL     1     -43.994  59.904 -60.758  1.00  0.00    -0.053 A 
HETATM   25  C   UNL     1     -42.593  59.739 -60.935  1.00  0.00    -0.055 A 
HETATM   26  C   UNL     1     -44.675  61.204 -61.091  1.00  0.00     0.049 C 
HETATM   27  C   UNL     1     -41.736  60.869 -61.445  1.00  0.00     0.049 C 
ENDBRANCH   1  17
TORSDOF 3
ENDMDL
MODEL 10
REMARK VINA RESULT:      -7.6      2.825      3.950
REMARK  3 active torsions:
REMARK  status: ('A' for Active; 'I' for Inactive)
REMARK    1  A    between atoms: C_9  and  C_10 
REMARK       I    between atoms: C_10  and  N_11 
REMARK    2  A    between atoms: N_11  and  C_12 
REMARK    3  A    between atoms: C_14  and  C_15 
ROOT
HETATM    1  C   UNL     1     -44.001  57.273 -51.417  1.00  0.00     0.252 C 
HETATM    2  N   UNL     1     -42.657  57.049 -51.655  1.00  0.00    -0.325 N 
HETATM    3  O   UNL     1     -44.691  56.713 -50.569  1.00  0.00    -0.270 OA
HETATM    4  H   UNL     1     -42.213  57.720 -52.275  1.00  0.00     0.169 HD
ENDROOT
BRANCH   2   5
HETATM    5  C   UNL     1     -41.882  55.942 -51.269  1.00  0.00     0.035 A 
HETATM    6  C   UNL     1     -41.592  54.867 -52.113  1.00  0.00     0.042 A 
HETATM    7  C   UNL     1     -40.724  53.841 -51.703  1.00  0.00    -0.021 A 
HETATM    8  C   UNL     1     -40.160  53.902 -50.421  1.00  0.00     0.012 A 
HETATM    9  C   UNL     1     -40.455  54.965 -49.568  1.00  0.00     0.003 A 
HETATM   10  C   UNL     1     -41.310  55.982 -49.992  1.00  0.00     0.029 A 
BRANCH   7  11
HETATM   11  C   UNL     1     -40.380  52.749 -52.598  1.00  0.00     0.010 A 
HETATM   12  C   UNL     1     -40.774  52.485 -53.931  1.00  0.00     0.152 A 
HETATM   13  N   UNL     1     -40.236  51.363 -54.419  1.00  0.00    -0.187 NA
HETATM   14  N   UNL     1     -39.498  50.901 -53.397  1.00  0.00    -0.289 N 
HETATM   15  H   UNL     1     -38.983  50.036 -53.526  1.00  0.00     0.188 HD
HETATM   16  C   UNL     1     -39.548  51.693 -52.287  1.00  0.00     0.123 A 
ENDBRANCH   7  11
ENDBRANCH   2   5
BRANCH   1  17
HETATM   17  C   UNL     1     -44.632  58.272 -52.417  1.00  0.00     0.225 C 
HETATM   18  C   UNL     1     -43.554  59.264 -52.877  1.00  0.00     0.083 C 
HETATM   19  C   UNL     1     -43.848  60.363 -51.925  1.00  0.00    -0.021 A 
HETATM   20  C   UNL     1     -45.126  60.197 -51.424  1.00  0.00     0.076 A 
HETATM   21  C   UNL     1     -43.061  61.421 -51.516  1.00  0.00     0.017 A 
HETATM   22  C   UNL     1     -45.683  61.074 -50.520  1.00  0.00     0.044 A 
HETATM   23  O   UNL     1     -45.727  59.031 -51.841  1.00  0.00    -0.336 OA
HETATM   24  C   UNL     1     -44.900  62.151 -50.070  1.00  0.00    -0.053 A 
HETATM   25  C   UNL     1     -43.576  62.317 -50.562  1.00  0.00    -0.055 A 
HETATM   26  C   UNL     1     -45.470  63.084 -49.036  1.00  0.00     0.049 C 
HETATM   27  C   UNL     1     -42.690  63.423 -50.051  1.00  0.00     0.049 C 
ENDBRANCH   1  17
TORSDOF 3
ENDMDL
