MODEL 1
REMARK VINA RESULT:      -8.3      0.000      0.000
REMARK  9 active torsions:
REMARK  status: ('A' for Active; 'I' for Inactive)
REMARK    1  A    between atoms: C_2  and  O_3 
REMARK    2  A    between atoms: O_3  and  C_4 
REMARK    3  A    between atoms: C_5  and  C_6 
REMARK    4  A    between atoms: N_7  and  C_9 
REMARK    5  A    between atoms: C_9  and  C_10 
REMARK       I    between atoms: C_10  and  N_11 
REMARK    6  A    between atoms: N_11  and  C_12 
REMARK    7  A    between atoms: C_20  and  C_21 
REMARK    8  A    between atoms: C_21  and  O_22 
REMARK    9  A    between atoms: C_28  and  O_29 
ROOT
HETATM    1  C   UNL     1     -43.441  60.528 -51.809  1.00  0.00     0.231 C 
HETATM    2  N   UNL     1     -44.349  59.373 -52.263  1.00  0.00    -0.054 N 
HETATM    3  H   UNL     1     -43.913  59.183 -53.181  1.00  0.00     0.281 HD
HETATM    4  C   UNL     1     -45.762  59.769 -52.552  1.00  0.00     0.239 C 
HETATM    5  C   UNL     1     -46.375  60.474 -51.357  1.00  0.00     0.066 C 
HETATM    6  C   UNL     1     -45.564  61.723 -51.021  1.00  0.00     0.065 C 
HETATM    7  C   UNL     1     -44.109  61.333 -50.660  1.00  0.00     0.055 C 
HETATM    8  C   UNL     1     -46.214  62.519 -49.877  1.00  0.00     0.038 C 
HETATM    9  C   UNL     1     -45.412  63.774 -49.537  1.00  0.00     0.003 C 
HETATM   10  C   UNL     1     -43.957  63.443 -49.234  1.00  0.00     0.001 C 
HETATM   11  C   UNL     1     -43.307  62.622 -50.346  1.00  0.00     0.010 C 
ENDROOT
BRANCH   2  12
HETATM   12  C   UNL     1     -44.213  58.036 -51.507  1.00  0.00     0.338 C 
BRANCH  12  13
HETATM   13  C   UNL     1     -43.665  56.922 -52.418  1.00  0.00     0.248 C 
HETATM   14  N   UNL     1     -42.368  56.572 -52.053  1.00  0.00    -0.319 N 
HETATM   15  H   UNL     1     -41.809  57.231 -51.519  1.00  0.00     0.169 HD
HETATM   16  O   UNL     1     -44.348  56.453 -53.318  1.00  0.00    -0.271 OA
BRANCH  14  17
HETATM   17  C   UNL     1     -41.695  55.395 -52.346  1.00  0.00     0.094 A 
HETATM   18  S   UNL     1     -41.389  54.945 -53.955  1.00  0.00    -0.075 SA
HETATM   19  C   UNL     1     -40.661  53.491 -53.483  1.00  0.00    -0.008 A 
HETATM   20  C   UNL     1     -40.613  53.341 -52.111  1.00  0.00    -0.026 A 
HETATM   21  C   UNL     1     -40.129  52.506 -54.480  1.00  0.00     0.047 C 
HETATM   22  C   UNL     1     -40.025  52.108 -51.474  1.00  0.00     0.041 C 
HETATM   23  C   UNL     1     -41.259  54.444 -51.428  1.00  0.00     0.080 A 
HETATM   24  C   UNL     1     -39.233  51.250 -52.471  1.00  0.00     0.005 C 
HETATM   25  C   UNL     1     -39.949  51.131 -53.820  1.00  0.00     0.005 C 
BRANCH  23  26
HETATM   26  C   UNL     1     -41.463  54.505 -49.975  1.00  0.00     0.296 C 
HETATM   27  O   UNL     1     -42.568  54.533 -49.451  1.00  0.00    -0.259 OA
BRANCH  26  28
HETATM   28  O   UNL     1     -40.286  54.589 -49.267  1.00  0.00    -0.322 OA
HETATM   29  C   UNL     1     -40.303  53.961 -47.976  1.00  0.00     0.213 C 
ENDBRANCH  26  28
ENDBRANCH  23  26
ENDBRANCH  14  17
ENDBRANCH  12  13
ENDBRANCH   2  12
BRANCH   1  30
HETATM   30  C   UNL     1     -42.014  60.029 -51.598  1.00  0.00     0.006 A 
HETATM   31  C   UNL     1     -41.238  59.675 -52.723  1.00  0.00     0.077 A 
HETATM   32  C   UNL     1     -39.950  59.157 -52.557  1.00  0.00     0.037 A 
HETATM   33  C   UNL     1     -39.417  58.997 -51.278  1.00  0.00     0.003 A 
HETATM   34  C   UNL     1     -40.169  59.337 -50.161  1.00  0.00     0.001 A 
HETATM   35  C   UNL     1     -41.461  59.840 -50.317  1.00  0.00     0.012 A 
BRANCH  31  36
HETATM   36  O   UNL     1     -41.863  59.806 -53.941  1.00  0.00    -0.351 OA
BRANCH  36  37
HETATM   37  C   UNL     1     -41.695  58.708 -54.849  1.00  0.00     0.171 C 
HETATM   38  C   UNL     1     -42.914  58.663 -55.752  1.00  0.00     0.034 C 
ENDBRANCH  36  37
ENDBRANCH  31  36
ENDBRANCH   1  30
BRANCH   6  39
HETATM   39  O   UNL     1     -45.542  62.529 -52.207  1.00  0.00    -0.389 OA
HETATM   40  H   UNL     1     -46.414  62.483 -52.648  1.00  0.00     0.210 HD
ENDBRANCH   6  39
TORSDOF 9
ENDMDL
MODEL 2
REMARK VINA RESULT:      -7.8      1.627      2.598
REMARK  9 active torsions:
REMARK  status: ('A' for Active; 'I' for Inactive)
REMARK    1  A    between atoms: C_2  and  O_3 
REMARK    2  A    between atoms: O_3  and  C_4 
REMARK    3  A    between atoms: C_5  and  C_6 
REMARK    4  A    between atoms: N_7  and  C_9 
REMARK    5  A    between atoms: C_9  and  C_10 
REMARK       I    between atoms: C_10  and  N_11 
REMARK    6  A    between atoms: N_11  and  C_12 
REMARK    7  A    between atoms: C_20  and  C_21 
REMARK    8  A    between atoms: C_21  and  O_22 
REMARK    9  A    between atoms: C_28  and  O_29 
ROOT
HETATM    1  C   UNL     1     -43.032  59.732 -51.482  1.00  0.00     0.231 C 
HETATM    2  N   UNL     1     -43.707  58.350 -51.456  1.00  0.00    -0.054 N 
HETATM    3  H   UNL     1     -43.404  58.012 -52.385  1.00  0.00     0.281 HD
HETATM    4  C   UNL     1     -45.201  58.386 -51.498  1.00  0.00     0.239 C 
HETATM    5  C   UNL     1     -45.747  59.252 -50.379  1.00  0.00     0.066 C 
HETATM    6  C   UNL     1     -45.208  60.674 -50.515  1.00  0.00     0.065 C 
HETATM    7  C   UNL     1     -43.663  60.671 -50.417  1.00  0.00     0.055 C 
HETATM    8  C   UNL     1     -45.820  61.606 -49.456  1.00  0.00     0.038 C 
HETATM    9  C   UNL     1     -45.291  63.033 -49.588  1.00  0.00     0.003 C 
HETATM   10  C   UNL     1     -43.768  63.070 -49.557  1.00  0.00     0.001 C 
HETATM   11  C   UNL     1     -43.146  62.123 -50.580  1.00  0.00     0.010 C 
ENDROOT
BRANCH   2  12
HETATM   12  C   UNL     1     -43.130  57.308 -50.478  1.00  0.00     0.338 C 
BRANCH  12  13
HETATM   13  C   UNL     1     -43.155  55.889 -51.078  1.00  0.00     0.248 C 
HETATM   14  N   UNL     1     -42.009  55.645 -51.829  1.00  0.00    -0.319 N 
HETATM   15  H   UNL     1     -41.474  56.431 -52.185  1.00  0.00     0.169 HD
HETATM   16  O   UNL     1     -44.095  55.135 -50.869  1.00  0.00    -0.271 OA
BRANCH  14  17
HETATM   17  C   UNL     1     -41.480  54.413 -52.188  1.00  0.00     0.094 A 
HETATM   18  S   UNL     1     -40.581  53.495 -51.077  1.00  0.00    -0.075 SA
HETATM   19  C   UNL     1     -40.271  52.286 -52.221  1.00  0.00    -0.008 A 
HETATM   20  C   UNL     1     -40.864  52.544 -53.441  1.00  0.00    -0.026 A 
HETATM   21  C   UNL     1     -39.446  51.078 -51.898  1.00  0.00     0.047 C 
HETATM   22  C   UNL     1     -40.699  51.607 -54.611  1.00  0.00     0.041 C 
HETATM   23  C   UNL     1     -41.549  53.822 -53.446  1.00  0.00     0.080 A 
HETATM   24  C   UNL     1     -40.107  50.251 -54.200  1.00  0.00     0.005 C 
HETATM   25  C   UNL     1     -38.963  50.406 -53.193  1.00  0.00     0.005 C 
BRANCH  23  26
HETATM   26  C   UNL     1     -42.175  54.416 -54.634  1.00  0.00     0.296 C 
HETATM   27  O   UNL     1     -41.562  54.672 -55.660  1.00  0.00    -0.259 OA
BRANCH  26  28
HETATM   28  O   UNL     1     -43.507  54.709 -54.453  1.00  0.00    -0.322 OA
HETATM   29  C   UNL     1     -43.871  56.077 -54.696  1.00  0.00     0.213 C 
ENDBRANCH  26  28
ENDBRANCH  23  26
ENDBRANCH  14  17
ENDBRANCH  12  13
ENDBRANCH   2  12
BRANCH   1  30
HETATM   30  C   UNL     1     -41.514  59.581 -51.496  1.00  0.00     0.006 A 
HETATM   31  C   UNL     1     -40.884  59.091 -52.660  1.00  0.00     0.077 A 
HETATM   32  C   UNL     1     -39.501  58.884 -52.681  1.00  0.00     0.037 A 
HETATM   33  C   UNL     1     -38.732  59.172 -51.554  1.00  0.00     0.003 A 
HETATM   34  C   UNL     1     -39.337  59.651 -50.400  1.00  0.00     0.001 A 
HETATM   35  C   UNL     1     -40.718  59.846 -50.366  1.00  0.00     0.012 A 
BRANCH  31  36
HETATM   36  O   UNL     1     -41.724  58.774 -53.702  1.00  0.00    -0.351 OA
BRANCH  36  37
HETATM   37  C   UNL     1     -41.650  59.635 -54.846  1.00  0.00     0.171 C 
HETATM   38  C   UNL     1     -42.921  60.465 -54.885  1.00  0.00     0.034 C 
ENDBRANCH  36  37
ENDBRANCH  31  36
ENDBRANCH   1  30
BRANCH   6  39
HETATM   39  O   UNL     1     -45.584  61.131 -51.822  1.00  0.00    -0.389 OA
HETATM   40  H   UNL     1     -45.109  61.961 -52.025  1.00  0.00     0.210 HD
ENDBRANCH   6  39
TORSDOF 9
ENDMDL
MODEL 3
REMARK VINA RESULT:      -7.7      3.757      7.133
REMARK  9 active torsions:
REMARK  status: ('A' for Active; 'I' for Inactive)
REMARK    1  A    between atoms: C_2  and  O_3 
REMARK    2  A    between atoms: O_3  and  C_4 
REMARK    3  A    between atoms: C_5  and  C_6 
REMARK    4  A    between atoms: N_7  and  C_9 
REMARK    5  A    between atoms: C_9  and  C_10 
REMARK       I    between atoms: C_10  and  N_11 
REMARK    6  A    between atoms: N_11  and  C_12 
REMARK    7  A    between atoms: C_20  and  C_21 
REMARK    8  A    between atoms: C_21  and  O_22 
REMARK    9  A    between atoms: C_28  and  O_29 
ROOT
HETATM    1  C   UNL     1     -44.537  58.284 -58.502  1.00  0.00     0.231 C 
HETATM    2  N   UNL     1     -43.584  58.045 -57.318  1.00  0.00    -0.054 N 
HETATM    3  H   UNL     1     -43.148  58.982 -57.277  1.00  0.00     0.281 HD
HETATM    4  C   UNL     1     -42.472  57.085 -57.598  1.00  0.00     0.239 C 
HETATM    5  C   UNL     1     -43.020  55.763 -58.099  1.00  0.00     0.066 C 
HETATM    6  C   UNL     1     -43.822  55.987 -59.379  1.00  0.00     0.065 C 
HETATM    7  C   UNL     1     -45.016  56.934 -59.102  1.00  0.00     0.055 C 
HETATM    8  C   UNL     1     -44.310  54.655 -59.973  1.00  0.00     0.038 C 
HETATM    9  C   UNL     1     -45.109  54.868 -61.258  1.00  0.00     0.003 C 
HETATM   10  C   UNL     1     -46.259  55.844 -61.044  1.00  0.00     0.001 C 
HETATM   11  C   UNL     1     -45.796  57.159 -60.422  1.00  0.00     0.010 C 
ENDROOT
BRANCH   2  12
HETATM   12  C   UNL     1     -44.226  57.876 -55.926  1.00  0.00     0.338 C 
BRANCH  12  13
HETATM   13  C   UNL     1     -43.210  57.353 -54.892  1.00  0.00     0.248 C 
HETATM   14  N   UNL     1     -43.447  56.015 -54.592  1.00  0.00    -0.319 N 
HETATM   15  H   UNL     1     -44.367  55.624 -54.771  1.00  0.00     0.169 HD
HETATM   16  O   UNL     1     -42.335  58.083 -54.448  1.00  0.00    -0.271 OA
BRANCH  14  17
HETATM   17  C   UNL     1     -42.560  55.102 -54.040  1.00  0.00     0.094 A 
HETATM   18  S   UNL     1     -41.545  54.168 -55.029  1.00  0.00    -0.075 SA
HETATM   19  C   UNL     1     -40.895  53.342 -53.702  1.00  0.00    -0.008 A 
HETATM   20  C   UNL     1     -41.412  53.779 -52.498  1.00  0.00    -0.026 A 
HETATM   21  C   UNL     1     -39.864  52.266 -53.861  1.00  0.00     0.047 C 
HETATM   22  C   UNL     1     -40.988  53.164 -51.189  1.00  0.00     0.041 C 
HETATM   23  C   UNL     1     -42.429  54.794 -52.688  1.00  0.00     0.080 A 
HETATM   24  C   UNL     1     -39.740  52.280 -51.331  1.00  0.00     0.005 C 
HETATM   25  C   UNL     1     -39.795  51.407 -52.589  1.00  0.00     0.005 C 
BRANCH  23  26
HETATM   26  C   UNL     1     -43.236  55.365 -51.601  1.00  0.00     0.296 C 
HETATM   27  O   UNL     1     -43.977  54.700 -50.894  1.00  0.00    -0.259 OA
BRANCH  26  28
HETATM   28  O   UNL     1     -43.116  56.732 -51.502  1.00  0.00    -0.322 OA
HETATM   29  C   UNL     1     -44.353  57.444 -51.341  1.00  0.00     0.213 C 
ENDBRANCH  26  28
ENDBRANCH  23  26
ENDBRANCH  14  17
ENDBRANCH  12  13
ENDBRANCH   2  12
BRANCH   1  30
HETATM   30  C   UNL     1     -45.595  59.319 -58.130  1.00  0.00     0.006 A 
HETATM   31  C   UNL     1     -45.201  60.659 -57.924  1.00  0.00     0.077 A 
HETATM   32  C   UNL     1     -46.138  61.616 -57.523  1.00  0.00     0.037 A 
HETATM   33  C   UNL     1     -47.472  61.257 -57.335  1.00  0.00     0.003 A 
HETATM   34  C   UNL     1     -47.874  59.942 -57.529  1.00  0.00     0.001 A 
HETATM   35  C   UNL     1     -46.943  58.978 -57.915  1.00  0.00     0.012 A 
BRANCH  31  36
HETATM   36  O   UNL     1     -43.857  60.913 -58.071  1.00  0.00    -0.351 OA
BRANCH  36  37
HETATM   37  C   UNL     1     -43.323  61.947 -57.233  1.00  0.00     0.171 C 
HETATM   38  C   UNL     1     -42.860  61.302 -55.939  1.00  0.00     0.034 C 
ENDBRANCH  36  37
ENDBRANCH  31  36
ENDBRANCH   1  30
BRANCH   6  39
HETATM   39  O   UNL     1     -42.938  56.626 -60.311  1.00  0.00    -0.389 OA
HETATM   40  H   UNL     1     -42.013  56.394 -60.093  1.00  0.00     0.210 HD
ENDBRANCH   6  39
TORSDOF 9
ENDMDL
MODEL 4
REMARK VINA RESULT:      -7.7      2.532      7.348
REMARK  9 active torsions:
REMARK  status: ('A' for Active; 'I' for Inactive)
REMARK    1  A    between atoms: C_2  and  O_3 
REMARK    2  A    between atoms: O_3  and  C_4 
REMARK    3  A    between atoms: C_5  and  C_6 
REMARK    4  A    between atoms: N_7  and  C_9 
REMARK    5  A    between atoms: C_9  and  C_10 
REMARK       I    between atoms: C_10  and  N_11 
REMARK    6  A    between atoms: N_11  and  C_12 
REMARK    7  A    between atoms: C_20  and  C_21 
REMARK    8  A    between atoms: C_21  and  O_22 
REMARK    9  A    between atoms: C_28  and  O_29 
ROOT
HETATM    1  C   UNL     1     -42.008  56.331 -51.466  1.00  0.00     0.231 C 
HETATM    2  N   UNL     1     -42.053  56.181 -52.996  1.00  0.00    -0.054 N 
HETATM    3  H   UNL     1     -42.917  56.719 -53.180  1.00  0.00     0.281 HD
HETATM    4  C   UNL     1     -42.321  54.791 -53.477  1.00  0.00     0.239 C 
HETATM    5  C   UNL     1     -41.318  53.818 -52.888  1.00  0.00     0.066 C 
HETATM    6  C   UNL     1     -41.404  53.845 -51.364  1.00  0.00     0.065 C 
HETATM    7  C   UNL     1     -41.073  55.263 -50.836  1.00  0.00     0.055 C 
HETATM    8  C   UNL     1     -40.472  52.798 -50.734  1.00  0.00     0.038 C 
HETATM    9  C   UNL     1     -40.555  52.813 -49.208  1.00  0.00     0.003 C 
HETATM   10  C   UNL     1     -40.295  54.206 -48.649  1.00  0.00     0.001 C 
HETATM   11  C   UNL     1     -41.189  55.263 -49.291  1.00  0.00     0.010 C 
ENDROOT
BRANCH   2  12
HETATM   12  C   UNL     1     -40.974  56.930 -53.804  1.00  0.00     0.338 C 
BRANCH  12  13
HETATM   13  C   UNL     1     -41.599  57.850 -54.869  1.00  0.00     0.248 C 
HETATM   14  N   UNL     1     -42.156  57.108 -55.906  1.00  0.00    -0.319 N 
HETATM   15  H   UNL     1     -41.839  56.154 -56.057  1.00  0.00     0.169 HD
HETATM   16  O   UNL     1     -41.574  59.066 -54.741  1.00  0.00    -0.271 OA
BRANCH  14  17
HETATM   17  C   UNL     1     -43.120  57.515 -56.817  1.00  0.00     0.094 A 
HETATM   18  S   UNL     1     -42.731  57.738 -58.455  1.00  0.00    -0.075 SA
HETATM   19  C   UNL     1     -44.298  58.257 -58.829  1.00  0.00    -0.008 A 
HETATM   20  C   UNL     1     -45.139  58.241 -57.733  1.00  0.00    -0.026 A 
HETATM   21  C   UNL     1     -44.691  58.670 -60.215  1.00  0.00     0.047 C 
HETATM   22  C   UNL     1     -46.576  58.685 -57.837  1.00  0.00     0.041 C 
HETATM   23  C   UNL     1     -44.442  57.841 -56.527  1.00  0.00     0.080 A 
HETATM   24  C   UNL     1     -47.045  58.827 -59.292  1.00  0.00     0.005 C 
HETATM   25  C   UNL     1     -45.985  59.497 -60.174  1.00  0.00     0.005 C 
BRANCH  23  26
HETATM   26  C   UNL     1     -45.046  57.841 -55.189  1.00  0.00     0.296 C 
HETATM   27  O   UNL     1     -45.061  56.861 -54.458  1.00  0.00    -0.259 OA
BRANCH  26  28
HETATM   28  O   UNL     1     -45.647  59.036 -54.868  1.00  0.00    -0.322 OA
HETATM   29  C   UNL     1     -44.747  60.135 -54.656  1.00  0.00     0.213 C 
ENDBRANCH  26  28
ENDBRANCH  23  26
ENDBRANCH  14  17
ENDBRANCH  12  13
ENDBRANCH   2  12
BRANCH   1  30
HETATM   30  C   UNL     1     -41.788  57.792 -51.082  1.00  0.00     0.006 A 
HETATM   31  C   UNL     1     -42.836  58.717 -51.277  1.00  0.00     0.077 A 
HETATM   32  C   UNL     1     -42.643  60.073 -50.992  1.00  0.00     0.037 A 
HETATM   33  C   UNL     1     -41.416  60.519 -50.502  1.00  0.00     0.003 A 
HETATM   34  C   UNL     1     -40.373  59.622 -50.310  1.00  0.00     0.001 A 
HETATM   35  C   UNL     1     -40.553  58.270 -50.605  1.00  0.00     0.012 A 
BRANCH  31  36
HETATM   36  O   UNL     1     -43.990  58.203 -51.821  1.00  0.00    -0.351 OA
BRANCH  36  37
HETATM   37  C   UNL     1     -45.120  58.140 -50.940  1.00  0.00     0.171 C 
HETATM   38  C   UNL     1     -46.019  59.322 -51.256  1.00  0.00     0.034 C 
ENDBRANCH  36  37
ENDBRANCH  31  36
ENDBRANCH   1  30
BRANCH   6  39
HETATM   39  O   UNL     1     -42.763  53.536 -51.025  1.00  0.00    -0.389 OA
HETATM   40  H   UNL     1     -43.275  53.376 -51.843  1.00  0.00     0.210 HD
ENDBRANCH   6  39
TORSDOF 9
ENDMDL
MODEL 5
REMARK VINA RESULT:      -7.6      2.559      4.256
REMARK  9 active torsions:
REMARK  status: ('A' for Active; 'I' for Inactive)
REMARK    1  A    between atoms: C_2  and  O_3 
REMARK    2  A    between atoms: O_3  and  C_4 
REMARK    3  A    between atoms: C_5  and  C_6 
REMARK    4  A    between atoms: N_7  and  C_9 
REMARK    5  A    between atoms: C_9  and  C_10 
REMARK       I    between atoms: C_10  and  N_11 
REMARK    6  A    between atoms: N_11  and  C_12 
REMARK    7  A    between atoms: C_20  and  C_21 
REMARK    8  A    between atoms: C_21  and  O_22 
REMARK    9  A    between atoms: C_28  and  O_29 
ROOT
HETATM    1  C   UNL     1     -43.960  58.965 -55.545  1.00  0.00     0.231 C 
HETATM    2  N   UNL     1     -43.607  57.607 -54.914  1.00  0.00    -0.054 N 
HETATM    3  H   UNL     1     -44.075  56.991 -55.600  1.00  0.00     0.281 HD
HETATM    4  C   UNL     1     -44.270  57.340 -53.601  1.00  0.00     0.239 C 
HETATM    5  C   UNL     1     -43.983  58.459 -52.619  1.00  0.00     0.066 C 
HETATM    6  C   UNL     1     -44.497  59.783 -53.179  1.00  0.00     0.065 C 
HETATM    7  C   UNL     1     -43.782  60.112 -54.513  1.00  0.00     0.055 C 
HETATM    8  C   UNL     1     -44.313  60.926 -52.167  1.00  0.00     0.038 C 
HETATM    9  C   UNL     1     -44.830  62.255 -52.716  1.00  0.00     0.003 C 
HETATM   10  C   UNL     1     -44.196  62.588 -54.060  1.00  0.00     0.001 C 
HETATM   11  C   UNL     1     -44.339  61.448 -55.066  1.00  0.00     0.010 C 
ENDROOT
BRANCH   2  12
HETATM   12  C   UNL     1     -42.130  57.170 -54.973  1.00  0.00     0.338 C 
BRANCH  12  13
HETATM   13  C   UNL     1     -41.989  55.637 -54.932  1.00  0.00     0.248 C 
HETATM   14  N   UNL     1     -40.789  55.261 -54.336  1.00  0.00    -0.319 N 
HETATM   15  H   UNL     1     -40.024  55.929 -54.301  1.00  0.00     0.169 HD
HETATM   16  O   UNL     1     -42.867  54.913 -55.381  1.00  0.00    -0.271 OA
BRANCH  14  17
HETATM   17  C   UNL     1     -40.472  54.035 -53.770  1.00  0.00     0.094 A 
HETATM   18  S   UNL     1     -40.028  52.716 -54.743  1.00  0.00    -0.075 SA
HETATM   19  C   UNL     1     -39.888  51.687 -53.406  1.00  0.00    -0.008 A 
HETATM   20  C   UNL     1     -40.144  52.330 -52.211  1.00  0.00    -0.026 A 
HETATM   21  C   UNL     1     -39.513  50.243 -53.548  1.00  0.00     0.047 C 
HETATM   22  C   UNL     1     -40.097  51.596 -50.895  1.00  0.00     0.041 C 
HETATM   23  C   UNL     1     -40.531  53.712 -52.417  1.00  0.00     0.080 A 
HETATM   24  C   UNL     1     -39.439  50.214 -51.016  1.00  0.00     0.005 C 
HETATM   25  C   UNL     1     -39.894  49.470 -52.276  1.00  0.00     0.005 C 
BRANCH  23  26
HETATM   26  C   UNL     1     -40.972  54.612 -51.344  1.00  0.00     0.296 C 
HETATM   27  O   UNL     1     -40.290  54.877 -50.365  1.00  0.00    -0.259 OA
BRANCH  26  28
HETATM   28  O   UNL     1     -42.254  55.079 -51.525  1.00  0.00    -0.322 OA
HETATM   29  C   UNL     1     -43.285  54.084 -51.435  1.00  0.00     0.213 C 
ENDBRANCH  26  28
ENDBRANCH  23  26
ENDBRANCH  14  17
ENDBRANCH  12  13
ENDBRANCH   2  12
BRANCH   1  30
HETATM   30  C   UNL     1     -43.280  59.111 -56.903  1.00  0.00     0.006 A 
HETATM   31  C   UNL     1     -43.789  58.391 -58.006  1.00  0.00     0.077 A 
HETATM   32  C   UNL     1     -43.149  58.457 -59.248  1.00  0.00     0.037 A 
HETATM   33  C   UNL     1     -42.011  59.246 -59.410  1.00  0.00     0.003 A 
HETATM   34  C   UNL     1     -41.496  59.957 -58.334  1.00  0.00     0.001 A 
HETATM   35  C   UNL     1     -42.118  59.884 -57.088  1.00  0.00     0.012 A 
BRANCH  31  36
HETATM   36  O   UNL     1     -44.876  57.591 -57.743  1.00  0.00    -0.351 OA
BRANCH  36  37
HETATM   37  C   UNL     1     -46.056  57.873 -58.507  1.00  0.00     0.171 C 
HETATM   38  C   UNL     1     -47.179  58.174 -57.530  1.00  0.00     0.034 C 
ENDBRANCH  36  37
ENDBRANCH  31  36
ENDBRANCH   1  30
BRANCH   6  39
HETATM   39  O   UNL     1     -45.896  59.603 -53.441  1.00  0.00    -0.389 OA
HETATM   40  H   UNL     1     -46.291  60.458 -53.705  1.00  0.00     0.210 HD
ENDBRANCH   6  39
TORSDOF 9
ENDMDL
MODEL 6
REMARK VINA RESULT:      -7.6      2.999      7.805
REMARK  9 active torsions:
REMARK  status: ('A' for Active; 'I' for Inactive)
REMARK    1  A    between atoms: C_2  and  O_3 
REMARK    2  A    between atoms: O_3  and  C_4 
REMARK    3  A    between atoms: C_5  and  C_6 
REMARK    4  A    between atoms: N_7  and  C_9 
REMARK    5  A    between atoms: C_9  and  C_10 
REMARK       I    between atoms: C_10  and  N_11 
REMARK    6  A    between atoms: N_11  and  C_12 
REMARK    7  A    between atoms: C_20  and  C_21 
REMARK    8  A    between atoms: C_21  and  O_22 
REMARK    9  A    between atoms: C_28  and  O_29 
ROOT
HETATM    1  C   UNL     1     -42.052  56.413 -51.601  1.00  0.00     0.231 C 
HETATM    2  N   UNL     1     -42.117  56.309 -53.134  1.00  0.00    -0.054 N 
HETATM    3  H   UNL     1     -42.991  56.840 -53.289  1.00  0.00     0.281 HD
HETATM    4  C   UNL     1     -42.374  54.931 -53.654  1.00  0.00     0.239 C 
HETATM    5  C   UNL     1     -41.350  53.953 -53.110  1.00  0.00     0.066 C 
HETATM    6  C   UNL     1     -41.414  53.933 -51.585  1.00  0.00     0.065 C 
HETATM    7  C   UNL     1     -41.093  55.338 -51.018  1.00  0.00     0.055 C 
HETATM    8  C   UNL     1     -40.458  52.879 -51.001  1.00  0.00     0.038 C 
HETATM    9  C   UNL     1     -40.519  52.846 -49.474  1.00  0.00     0.003 C 
HETATM   10  C   UNL     1     -40.269  54.225 -48.876  1.00  0.00     0.001 C 
HETATM   11  C   UNL     1     -41.186  55.290 -49.472  1.00  0.00     0.010 C 
ENDROOT
BRANCH   2  12
HETATM   12  C   UNL     1     -41.060  57.096 -53.935  1.00  0.00     0.338 C 
BRANCH  12  13
HETATM   13  C   UNL     1     -41.712  58.126 -54.876  1.00  0.00     0.248 C 
HETATM   14  N   UNL     1     -42.458  57.494 -55.867  1.00  0.00    -0.319 N 
HETATM   15  H   UNL     1     -42.257  56.525 -56.095  1.00  0.00     0.169 HD
HETATM   16  O   UNL     1     -41.552  59.326 -54.702  1.00  0.00    -0.271 OA
BRANCH  14  17
HETATM   17  C   UNL     1     -43.477  58.038 -56.636  1.00  0.00     0.094 A 
HETATM   18  S   UNL     1     -44.779  58.849 -55.906  1.00  0.00    -0.075 SA
HETATM   19  C   UNL     1     -45.539  59.115 -57.395  1.00  0.00    -0.008 A 
HETATM   20  C   UNL     1     -44.809  58.623 -58.460  1.00  0.00    -0.026 A 
HETATM   21  C   UNL     1     -46.856  59.821 -57.502  1.00  0.00     0.047 C 
HETATM   22  C   UNL     1     -45.312  58.733 -59.877  1.00  0.00     0.041 C 
HETATM   23  C   UNL     1     -43.605  57.948 -58.019  1.00  0.00     0.080 A 
HETATM   24  C   UNL     1     -46.499  59.698 -60.007  1.00  0.00     0.005 C 
HETATM   25  C   UNL     1     -47.505  59.527 -58.863  1.00  0.00     0.005 C 
BRANCH  23  26
HETATM   26  C   UNL     1     -42.690  57.228 -58.915  1.00  0.00     0.296 C 
HETATM   27  O   UNL     1     -41.946  57.786 -59.707  1.00  0.00    -0.259 OA
BRANCH  26  28
HETATM   28  O   UNL     1     -42.800  55.860 -58.812  1.00  0.00    -0.322 OA
HETATM   29  C   UNL     1     -43.754  55.255 -59.699  1.00  0.00     0.213 C 
ENDBRANCH  26  28
ENDBRANCH  23  26
ENDBRANCH  14  17
ENDBRANCH  12  13
ENDBRANCH   2  12
BRANCH   1  30
HETATM   30  C   UNL     1     -41.844  57.863 -51.176  1.00  0.00     0.006 A 
HETATM   31  C   UNL     1     -42.873  58.801 -51.413  1.00  0.00     0.077 A 
HETATM   32  C   UNL     1     -42.688  60.149 -51.091  1.00  0.00     0.037 A 
HETATM   33  C   UNL     1     -41.489  60.576 -50.521  1.00  0.00     0.003 A 
HETATM   34  C   UNL     1     -40.466  59.666 -50.285  1.00  0.00     0.001 A 
HETATM   35  C   UNL     1     -40.637  58.323 -50.618  1.00  0.00     0.012 A 
BRANCH  31  36
HETATM   36  O   UNL     1     -43.996  58.306 -52.035  1.00  0.00    -0.351 OA
BRANCH  36  37
HETATM   37  C   UNL     1     -45.125  59.190 -52.076  1.00  0.00     0.171 C 
HETATM   38  C   UNL     1     -45.936  58.965 -50.813  1.00  0.00     0.034 C 
ENDBRANCH  36  37
ENDBRANCH  31  36
ENDBRANCH   1  30
BRANCH   6  39
HETATM   39  O   UNL     1     -42.763  53.595 -51.235  1.00  0.00    -0.389 OA
HETATM   40  H   UNL     1     -42.999  54.029 -50.391  1.00  0.00     0.210 HD
ENDBRANCH   6  39
TORSDOF 9
ENDMDL
MODEL 7
REMARK VINA RESULT:      -7.4      4.262      7.784
REMARK  9 active torsions:
REMARK  status: ('A' for Active; 'I' for Inactive)
REMARK    1  A    between atoms: C_2  and  O_3 
REMARK    2  A    between atoms: O_3  and  C_4 
REMARK    3  A    between atoms: C_5  and  C_6 
REMARK    4  A    between atoms: N_7  and  C_9 
REMARK    5  A    between atoms: C_9  and  C_10 
REMARK       I    between atoms: C_10  and  N_11 
REMARK    6  A    between atoms: N_11  and  C_12 
REMARK    7  A    between atoms: C_20  and  C_21 
REMARK    8  A    between atoms: C_21  and  O_22 
REMARK    9  A    between atoms: C_28  and  O_29 
ROOT
HETATM    1  C   UNL     1     -43.806  59.337 -59.299  1.00  0.00     0.231 C 
HETATM    2  N   UNL     1     -43.092  59.125 -57.953  1.00  0.00    -0.054 N 
HETATM    3  H   UNL     1     -43.926  59.017 -57.351  1.00  0.00     0.281 HD
HETATM    4  C   UNL     1     -42.365  60.326 -57.439  1.00  0.00     0.239 C 
HETATM    5  C   UNL     1     -41.381  60.840 -58.472  1.00  0.00     0.066 C 
HETATM    6  C   UNL     1     -42.125  61.216 -59.752  1.00  0.00     0.065 C 
HETATM    7  C   UNL     1     -42.841  59.973 -60.338  1.00  0.00     0.055 C 
HETATM    8  C   UNL     1     -41.174  61.835 -60.789  1.00  0.00     0.038 C 
HETATM    9  C   UNL     1     -41.910  62.220 -62.071  1.00  0.00     0.003 C 
HETATM   10  C   UNL     1     -42.679  61.039 -62.649  1.00  0.00     0.001 C 
HETATM   11  C   UNL     1     -43.603  60.391 -61.621  1.00  0.00     0.010 C 
ENDROOT
BRANCH   2  12
HETATM   12  C   UNL     1     -42.328  57.799 -57.767  1.00  0.00     0.338 C 
BRANCH  12  13
HETATM   13  C   UNL     1     -42.774  57.061 -56.491  1.00  0.00     0.248 C 
HETATM   14  N   UNL     1     -41.679  56.539 -55.808  1.00  0.00    -0.319 N 
HETATM   15  H   UNL     1     -40.810  56.385 -56.310  1.00  0.00     0.169 HD
HETATM   16  O   UNL     1     -43.956  56.994 -56.184  1.00  0.00    -0.271 OA
BRANCH  14  17
HETATM   17  C   UNL     1     -41.613  56.170 -54.472  1.00  0.00     0.094 A 
HETATM   18  S   UNL     1     -42.018  54.594 -53.984  1.00  0.00    -0.075 SA
HETATM   19  C   UNL     1     -41.763  54.959 -52.351  1.00  0.00    -0.008 A 
HETATM   20  C   UNL     1     -41.343  56.260 -52.156  1.00  0.00    -0.026 A 
HETATM   21  C   UNL     1     -41.973  53.946 -51.266  1.00  0.00     0.047 C 
HETATM   22  C   UNL     1     -41.078  56.804 -50.775  1.00  0.00     0.041 C 
HETATM   23  C   UNL     1     -41.289  56.999 -53.402  1.00  0.00     0.080 A 
HETATM   24  C   UNL     1     -41.013  55.699 -49.710  1.00  0.00     0.005 C 
HETATM   25  C   UNL     1     -42.110  54.648 -49.907  1.00  0.00     0.005 C 
BRANCH  23  26
HETATM   26  C   UNL     1     -40.987  58.433 -53.496  1.00  0.00     0.296 C 
HETATM   27  O   UNL     1     -39.916  58.918 -53.164  1.00  0.00    -0.259 OA
BRANCH  26  28
HETATM   28  O   UNL     1     -42.054  59.181 -53.939  1.00  0.00    -0.322 OA
HETATM   29  C   UNL     1     -43.179  59.228 -53.049  1.00  0.00     0.213 C 
ENDBRANCH  26  28
ENDBRANCH  23  26
ENDBRANCH  14  17
ENDBRANCH  12  13
ENDBRANCH   2  12
BRANCH   1  30
HETATM   30  C   UNL     1     -44.562  58.075 -59.703  1.00  0.00     0.006 A 
HETATM   31  C   UNL     1     -45.888  57.896 -59.251  1.00  0.00     0.077 A 
HETATM   32  C   UNL     1     -46.584  56.722 -59.555  1.00  0.00     0.037 A 
HETATM   33  C   UNL     1     -45.978  55.723 -60.316  1.00  0.00     0.003 A 
HETATM   34  C   UNL     1     -44.673  55.882 -60.764  1.00  0.00     0.001 A 
HETATM   35  C   UNL     1     -43.966  57.044 -60.454  1.00  0.00     0.012 A 
BRANCH  31  36
HETATM   36  O   UNL     1     -46.385  58.902 -58.455  1.00  0.00    -0.351 OA
BRANCH  36  37
HETATM   37  C   UNL     1     -47.528  59.597 -58.972  1.00  0.00     0.171 C 
HETATM   38  C   UNL     1     -47.132  61.048 -59.179  1.00  0.00     0.034 C 
ENDBRANCH  36  37
ENDBRANCH  31  36
ENDBRANCH   1  30
BRANCH   6  39
HETATM   39  O   UNL     1     -43.117  62.183 -59.381  1.00  0.00    -0.389 OA
HETATM   40  H   UNL     1     -42.926  62.516 -58.481  1.00  0.00     0.210 HD
ENDBRANCH   6  39
TORSDOF 9
ENDMDL
MODEL 8
REMARK VINA RESULT:      -7.3      4.413      7.435
REMARK  9 active torsions:
REMARK  status: ('A' for Active; 'I' for Inactive)
REMARK    1  A    between atoms: C_2  and  O_3 
REMARK    2  A    between atoms: O_3  and  C_4 
REMARK    3  A    between atoms: C_5  and  C_6 
REMARK    4  A    between atoms: N_7  and  C_9 
REMARK    5  A    between atoms: C_9  and  C_10 
REMARK       I    between atoms: C_10  and  N_11 
REMARK    6  A    between atoms: N_11  and  C_12 
REMARK    7  A    between atoms: C_20  and  C_21 
REMARK    8  A    between atoms: C_21  and  O_22 
REMARK    9  A    between atoms: C_28  and  O_29 
ROOT
HETATM    1  C   UNL     1     -43.797  59.181 -58.925  1.00  0.00     0.231 C 
HETATM    2  N   UNL     1     -43.260  58.892 -57.513  1.00  0.00    -0.054 N 
HETATM    3  H   UNL     1     -44.163  58.753 -57.029  1.00  0.00     0.281 HD
HETATM    4  C   UNL     1     -42.609  60.059 -56.843  1.00  0.00     0.239 C 
HETATM    5  C   UNL     1     -41.504  60.628 -57.713  1.00  0.00     0.066 C 
HETATM    6  C   UNL     1     -42.080  61.077 -59.054  1.00  0.00     0.065 C 
HETATM    7  C   UNL     1     -42.710  59.872 -59.795  1.00  0.00     0.055 C 
HETATM    8  C   UNL     1     -41.007  61.751 -59.925  1.00  0.00     0.038 C 
HETATM    9  C   UNL     1     -41.575  62.209 -61.267  1.00  0.00     0.003 C 
HETATM   10  C   UNL     1     -42.260  61.065 -62.004  1.00  0.00     0.001 C 
HETATM   11  C   UNL     1     -43.304  60.362 -61.139  1.00  0.00     0.010 C 
ENDROOT
BRANCH   2  12
HETATM   12  C   UNL     1     -42.520  57.555 -57.305  1.00  0.00     0.338 C 
BRANCH  12  13
HETATM   13  C   UNL     1     -42.930  56.878 -55.984  1.00  0.00     0.248 C 
HETATM   14  N   UNL     1     -41.856  56.201 -55.416  1.00  0.00    -0.319 N 
HETATM   15  H   UNL     1     -41.075  55.928 -56.006  1.00  0.00     0.169 HD
HETATM   16  O   UNL     1     -44.071  56.977 -55.555  1.00  0.00    -0.271 OA
BRANCH  14  17
HETATM   17  C   UNL     1     -41.703  55.815 -54.092  1.00  0.00     0.094 A 
HETATM   18  S   UNL     1     -42.103  56.873 -52.825  1.00  0.00    -0.075 SA
HETATM   19  C   UNL     1     -41.603  55.764 -51.648  1.00  0.00    -0.008 A 
HETATM   20  C   UNL     1     -41.158  54.575 -52.191  1.00  0.00    -0.026 A 
HETATM   21  C   UNL     1     -41.665  56.076 -50.183  1.00  0.00     0.047 C 
HETATM   22  C   UNL     1     -40.646  53.455 -51.322  1.00  0.00     0.041 C 
HETATM   23  C   UNL     1     -41.175  54.609 -53.640  1.00  0.00     0.080 A 
HETATM   24  C   UNL     1     -40.978  53.663 -49.838  1.00  0.00     0.005 C 
HETATM   25  C   UNL     1     -40.759  55.115 -49.399  1.00  0.00     0.005 C 
BRANCH  23  26
HETATM   26  C   UNL     1     -40.652  53.534 -54.494  1.00  0.00     0.296 C 
HETATM   27  O   UNL     1     -39.857  53.723 -55.402  1.00  0.00    -0.259 OA
BRANCH  26  28
HETATM   28  O   UNL     1     -41.197  52.303 -54.206  1.00  0.00    -0.322 OA
HETATM   29  C   UNL     1     -40.266  51.209 -54.202  1.00  0.00     0.213 C 
ENDBRANCH  26  28
ENDBRANCH  23  26
ENDBRANCH  14  17
ENDBRANCH  12  13
ENDBRANCH   2  12
BRANCH   1  30
HETATM   30  C   UNL     1     -44.490  57.946 -59.492  1.00  0.00     0.006 A 
HETATM   31  C   UNL     1     -45.854  57.730 -59.198  1.00  0.00     0.077 A 
HETATM   32  C   UNL     1     -46.500  56.576 -59.653  1.00  0.00     0.037 A 
HETATM   33  C   UNL     1     -45.804  55.634 -60.411  1.00  0.00     0.003 A 
HETATM   34  C   UNL     1     -44.461  55.830 -60.704  1.00  0.00     0.001 A 
HETATM   35  C   UNL     1     -43.805  56.971 -60.242  1.00  0.00     0.012 A 
BRANCH  31  36
HETATM   36  O   UNL     1     -46.446  58.676 -58.394  1.00  0.00    -0.351 OA
BRANCH  36  37
HETATM   37  C   UNL     1     -47.391  59.540 -59.041  1.00  0.00     0.171 C 
HETATM   38  C   UNL     1     -48.387  60.003 -57.993  1.00  0.00     0.034 C 
ENDBRANCH  36  37
ENDBRANCH  31  36
ENDBRANCH   1  30
BRANCH   6  39
HETATM   39  O   UNL     1     -43.115  62.025 -58.758  1.00  0.00    -0.389 OA
HETATM   40  H   UNL     1     -43.988  61.612 -58.910  1.00  0.00     0.210 HD
ENDBRANCH   6  39
TORSDOF 9
ENDMDL
MODEL 9
REMARK VINA RESULT:      -7.3      1.538      4.650
REMARK  9 active torsions:
REMARK  status: ('A' for Active; 'I' for Inactive)
REMARK    1  A    between atoms: C_2  and  O_3 
REMARK    2  A    between atoms: O_3  and  C_4 
REMARK    3  A    between atoms: C_5  and  C_6 
REMARK    4  A    between atoms: N_7  and  C_9 
REMARK    5  A    between atoms: C_9  and  C_10 
REMARK       I    between atoms: C_10  and  N_11 
REMARK    6  A    between atoms: N_11  and  C_12 
REMARK    7  A    between atoms: C_20  and  C_21 
REMARK    8  A    between atoms: C_21  and  O_22 
REMARK    9  A    between atoms: C_28  and  O_29 
ROOT
HETATM    1  C   UNL     1     -43.585  60.758 -53.704  1.00  0.00     0.231 C 
HETATM    2  N   UNL     1     -42.641  59.929 -52.817  1.00  0.00    -0.054 N 
HETATM    3  H   UNL     1     -42.342  60.677 -52.168  1.00  0.00     0.281 HD
HETATM    4  C   UNL     1     -41.398  59.458 -53.502  1.00  0.00     0.239 C 
HETATM    5  C   UNL     1     -41.741  58.683 -54.760  1.00  0.00     0.066 C 
HETATM    6  C   UNL     1     -42.532  59.574 -55.716  1.00  0.00     0.065 C 
HETATM    7  C   UNL     1     -43.854  60.029 -55.050  1.00  0.00     0.055 C 
HETATM    8  C   UNL     1     -42.811  58.855 -57.046  1.00  0.00     0.038 C 
HETATM    9  C   UNL     1     -43.597  59.740 -58.012  1.00  0.00     0.003 C 
HETATM   10  C   UNL     1     -44.879  60.261 -57.374  1.00  0.00     0.001 C 
HETATM   11  C   UNL     1     -44.622  60.947 -56.035  1.00  0.00     0.010 C 
ENDROOT
BRANCH   2  12
HETATM   12  C   UNL     1     -43.289  58.877 -51.895  1.00  0.00     0.338 C 
BRANCH  12  13
HETATM   13  C   UNL     1     -42.308  57.739 -51.555  1.00  0.00     0.248 C 
HETATM   14  N   UNL     1     -42.733  56.533 -52.106  1.00  0.00    -0.319 N 
HETATM   15  H   UNL     1     -43.711  56.420 -52.354  1.00  0.00     0.169 HD
HETATM   16  O   UNL     1     -41.306  57.952 -50.888  1.00  0.00    -0.271 OA
BRANCH  14  17
HETATM   17  C   UNL     1     -41.969  55.404 -52.361  1.00  0.00     0.094 A 
HETATM   18  S   UNL     1     -41.603  54.942 -53.954  1.00  0.00    -0.075 SA
HETATM   19  C   UNL     1     -40.776  53.558 -53.438  1.00  0.00    -0.008 A 
HETATM   20  C   UNL     1     -40.739  53.443 -52.062  1.00  0.00    -0.026 A 
HETATM   21  C   UNL     1     -40.156  52.594 -54.403  1.00  0.00     0.047 C 
HETATM   22  C   UNL     1     -40.071  52.272 -51.387  1.00  0.00     0.041 C 
HETATM   23  C   UNL     1     -41.477  54.510 -51.414  1.00  0.00     0.080 A 
HETATM   24  C   UNL     1     -39.200  51.455 -52.353  1.00  0.00     0.005 C 
HETATM   25  C   UNL     1     -39.884  51.252 -53.709  1.00  0.00     0.005 C 
BRANCH  23  26
HETATM   26  C   UNL     1     -41.710  54.588 -49.966  1.00  0.00     0.296 C 
HETATM   27  O   UNL     1     -42.819  54.515 -49.458  1.00  0.00    -0.259 OA
BRANCH  26  28
HETATM   28  O   UNL     1     -40.559  54.812 -49.247  1.00  0.00    -0.322 OA
HETATM   29  C   UNL     1     -40.372  53.955 -48.110  1.00  0.00     0.213 C 
ENDBRANCH  26  28
ENDBRANCH  23  26
ENDBRANCH  14  17
ENDBRANCH  12  13
ENDBRANCH   2  12
BRANCH   1  30
HETATM   30  C   UNL     1     -44.788  61.236 -52.897  1.00  0.00     0.006 A 
HETATM   31  C   UNL     1     -44.596  62.212 -51.894  1.00  0.00     0.077 A 
HETATM   32  C   UNL     1     -45.668  62.625 -51.097  1.00  0.00     0.037 A 
HETATM   33  C   UNL     1     -46.938  62.084 -51.294  1.00  0.00     0.003 A 
HETATM   34  C   UNL     1     -47.142  61.120 -52.273  1.00  0.00     0.001 A 
HETATM   35  C   UNL     1     -46.076  60.692 -53.063  1.00  0.00     0.012 A 
BRANCH  31  36
HETATM   36  O   UNL     1     -43.301  62.645 -51.726  1.00  0.00    -0.351 OA
BRANCH  36  37
HETATM   37  C   UNL     1     -42.814  62.645 -50.377  1.00  0.00     0.171 C 
HETATM   38  C   UNL     1     -42.549  64.086 -49.981  1.00  0.00     0.034 C 
ENDBRANCH  36  37
ENDBRANCH  31  36
ENDBRANCH   1  30
BRANCH   6  39
HETATM   39  O   UNL     1     -41.721  60.731 -55.964  1.00  0.00    -0.389 OA
HETATM   40  H   UNL     1     -40.777  60.492 -55.877  1.00  0.00     0.210 HD
ENDBRANCH   6  39
TORSDOF 9
ENDMDL
MODEL 10
REMARK VINA RESULT:      -7.3      1.933      4.272
REMARK  9 active torsions:
REMARK  status: ('A' for Active; 'I' for Inactive)
REMARK    1  A    between atoms: C_2  and  O_3 
REMARK    2  A    between atoms: O_3  and  C_4 
REMARK    3  A    between atoms: C_5  and  C_6 
REMARK    4  A    between atoms: N_7  and  C_9 
REMARK    5  A    between atoms: C_9  and  C_10 
REMARK       I    between atoms: C_10  and  N_11 
REMARK    6  A    between atoms: N_11  and  C_12 
REMARK    7  A    between atoms: C_20  and  C_21 
REMARK    8  A    between atoms: C_21  and  O_22 
REMARK    9  A    between atoms: C_28  and  O_29 
ROOT
HETATM    1  C   UNL     1     -43.225  59.901 -54.125  1.00  0.00     0.231 C 
HETATM    2  N   UNL     1     -42.720  58.460 -54.312  1.00  0.00    -0.054 N 
HETATM    3  H   UNL     1     -42.073  58.417 -53.506  1.00  0.00     0.281 HD
HETATM    4  C   UNL     1     -41.879  58.249 -55.529  1.00  0.00     0.239 C 
HETATM    5  C   UNL     1     -42.613  58.707 -56.774  1.00  0.00     0.066 C 
HETATM    6  C   UNL     1     -42.957  60.190 -56.655  1.00  0.00     0.065 C 
HETATM    7  C   UNL     1     -43.878  60.428 -55.433  1.00  0.00     0.055 C 
HETATM    8  C   UNL     1     -43.614  60.715 -57.942  1.00  0.00     0.038 C 
HETATM    9  C   UNL     1     -43.957  62.201 -57.836  1.00  0.00     0.003 C 
HETATM   10  C   UNL     1     -44.813  62.489 -56.609  1.00  0.00     0.001 C 
HETATM   11  C   UNL     1     -44.191  61.942 -55.327  1.00  0.00     0.010 C 
ENDROOT
BRANCH   2  12
HETATM   12  C   UNL     1     -43.727  57.325 -54.037  1.00  0.00     0.338 C 
BRANCH  12  13
HETATM   13  C   UNL     1     -43.104  55.940 -54.295  1.00  0.00     0.248 C 
HETATM   14  N   UNL     1     -41.943  55.768 -53.548  1.00  0.00    -0.319 N 
HETATM   15  H   UNL     1     -41.448  56.588 -53.207  1.00  0.00     0.169 HD
HETATM   16  O   UNL     1     -43.630  55.148 -55.065  1.00  0.00    -0.271 OA
BRANCH  14  17
HETATM   17  C   UNL     1     -41.328  54.574 -53.201  1.00  0.00     0.094 A 
HETATM   18  S   UNL     1     -40.516  53.643 -54.366  1.00  0.00    -0.075 SA
HETATM   19  C   UNL     1     -40.149  52.430 -53.242  1.00  0.00    -0.008 A 
HETATM   20  C   UNL     1     -40.607  52.725 -51.973  1.00  0.00    -0.026 A 
HETATM   21  C   UNL     1     -39.397  51.191 -53.625  1.00  0.00     0.047 C 
HETATM   22  C   UNL     1     -40.407  51.772 -50.823  1.00  0.00     0.041 C 
HETATM   23  C   UNL     1     -41.342  53.974 -51.945  1.00  0.00     0.080 A 
HETATM   24  C   UNL     1     -39.401  50.659 -51.148  1.00  0.00     0.005 C 
HETATM   25  C   UNL     1     -39.599  50.101 -52.562  1.00  0.00     0.005 C 
BRANCH  23  26
HETATM   26  C   UNL     1     -42.043  54.490 -50.761  1.00  0.00     0.296 C 
HETATM   27  O   UNL     1     -41.480  54.757 -49.710  1.00  0.00    -0.259 OA
BRANCH  26  28
HETATM   28  O   UNL     1     -43.404  54.584 -50.939  1.00  0.00    -0.322 OA
HETATM   29  C   UNL     1     -43.982  55.847 -50.573  1.00  0.00     0.213 C 
ENDBRANCH  26  28
ENDBRANCH  23  26
ENDBRANCH  14  17
ENDBRANCH  12  13
ENDBRANCH   2  12
BRANCH   1  30
HETATM   30  C   UNL     1     -44.021  60.021 -52.829  1.00  0.00     0.006 A 
HETATM   31  C   UNL     1     -43.327  60.064 -51.600  1.00  0.00     0.077 A 
HETATM   32  C   UNL     1     -44.031  60.112 -50.393  1.00  0.00     0.037 A 
HETATM   33  C   UNL     1     -45.426  60.129 -50.394  1.00  0.00     0.003 A 
HETATM   34  C   UNL     1     -46.123  60.082 -51.594  1.00  0.00     0.001 A 
HETATM   35  C   UNL     1     -45.428  60.020 -52.802  1.00  0.00     0.012 A 
BRANCH  31  36
HETATM   36  O   UNL     1     -41.956  59.980 -51.688  1.00  0.00    -0.351 OA
BRANCH  36  37
HETATM   37  C   UNL     1     -41.291  59.433 -50.541  1.00  0.00     0.171 C 
HETATM   38  C   UNL     1     -40.745  58.071 -50.929  1.00  0.00     0.034 C 
ENDBRANCH  36  37
ENDBRANCH  31  36
ENDBRANCH   1  30
BRANCH   6  39
HETATM   39  O   UNL     1     -41.719  60.882 -56.439  1.00  0.00    -0.389 OA
HETATM   40  H   UNL     1     -41.630  61.099 -55.489  1.00  0.00     0.210 HD
ENDBRANCH   6  39
TORSDOF 9
ENDMDL
