MODEL 1
REMARK VINA RESULT:      -8.6      0.000      0.000
REMARK  3 active torsions:
REMARK  status: ('A' for Active; 'I' for Inactive)
REMARK    1  A    between atoms: C_2  and  O_3 
REMARK    2  A    between atoms: O_3  and  C_4 
REMARK    3  A    between atoms: C_5  and  N_6 
REMARK       I    between atoms: N_6  and  C_7 
REMARK       I    between atoms: C_7  and  N_8 
ROOT
HETATM    1  N   UNL     1     -42.520  57.122 -57.657  1.00  0.00    -0.306 N 
HETATM    2  C   UNL     1     -42.357  57.416 -56.325  1.00  0.00     0.323 C 
HETATM    3  N   UNL     1     -42.066  56.326 -55.508  1.00  0.00    -0.328 N 
HETATM    4  C   UNL     1     -42.321  56.546 -54.077  1.00  0.00     0.185 C 
HETATM    5  C   UNL     1     -41.754  55.444 -53.261  1.00  0.00     0.035 A 
HETATM    6  C   UNL     1     -41.062  54.341 -53.712  1.00  0.00    -0.020 A 
HETATM    7  C   UNL     1     -40.798  54.160 -55.159  1.00  0.00     0.061 C 
HETATM    8  C   UNL     1     -41.844  54.940 -55.984  1.00  0.00     0.132 C 
HETATM    9  N   UNL     1     -41.846  55.360 -51.900  1.00  0.00    -0.357 N 
HETATM   10  H   UNL     1     -42.300  56.034 -51.297  1.00  0.00     0.166 HD
HETATM   11  C   UNL     1     -41.219  54.215 -51.458  1.00  0.00     0.043 A 
HETATM   12  C   UNL     1     -40.710  53.557 -52.582  1.00  0.00    -0.001 A 
HETATM   13  C   UNL     1     -41.065  53.719 -50.157  1.00  0.00     0.030 A 
HETATM   14  C   UNL     1     -40.364  52.521 -50.000  1.00  0.00     0.002 A 
HETATM   15  C   UNL     1     -39.840  51.846 -51.100  1.00  0.00     0.001 A 
HETATM   16  C   UNL     1     -40.005  52.352 -52.395  1.00  0.00     0.014 A 
HETATM   17  O   UNL     1     -42.492  58.544 -55.854  1.00  0.00    -0.247 OA
HETATM   18  H   UNL     1     -42.876  56.203 -57.877  1.00  0.00     0.171 HD
ENDROOT
BRANCH   1  19
HETATM   19  C   UNL     1     -42.712  58.060 -58.702  1.00  0.00     0.072 A 
HETATM   20  C   UNL     1     -43.846  57.891 -59.529  1.00  0.00     0.096 A 
HETATM   21  C   UNL     1     -44.089  58.804 -60.559  1.00  0.00     0.042 A 
HETATM   22  C   UNL     1     -43.200  59.856 -60.786  1.00  0.00     0.045 A 
HETATM   23  C   UNL     1     -42.075  59.994 -59.984  1.00  0.00     0.118 A 
HETATM   24  C   UNL     1     -41.821  59.108 -58.945  1.00  0.00     0.074 A 
HETATM   25  F   UNL     1     -41.219  60.997 -60.222  1.00  0.00    -0.206 F 
BRANCH  20  26
HETATM   26  O   UNL     1     -44.642  56.815 -59.212  1.00  0.00    -0.344 OA
BRANCH  26  27
HETATM   27  C   UNL     1     -45.146  55.976 -60.258  1.00  0.00     0.121 C 
HETATM   28  C   UNL     1     -46.666  56.100 -60.334  1.00  0.00     0.040 C 
HETATM   29  C   UNL     1     -44.756  54.545 -59.898  1.00  0.00     0.040 C 
ENDBRANCH  26  27
ENDBRANCH  20  26
ENDBRANCH   1  19
TORSDOF 3
ENDMDL
MODEL 2
REMARK VINA RESULT:      -8.5      3.872      5.719
REMARK  3 active torsions:
REMARK  status: ('A' for Active; 'I' for Inactive)
REMARK    1  A    between atoms: C_2  and  O_3 
REMARK    2  A    between atoms: O_3  and  C_4 
REMARK    3  A    between atoms: C_5  and  N_6 
REMARK       I    between atoms: N_6  and  C_7 
REMARK       I    between atoms: C_7  and  N_8 
ROOT
HETATM    1  N   UNL     1     -42.602  58.093 -52.378  1.00  0.00    -0.306 N 
HETATM    2  C   UNL     1     -41.727  57.314 -51.659  1.00  0.00     0.323 C 
HETATM    3  N   UNL     1     -41.584  56.006 -52.115  1.00  0.00    -0.328 N 
HETATM    4  C   UNL     1     -41.019  55.072 -51.131  1.00  0.00     0.185 C 
HETATM    5  C   UNL     1     -40.668  53.778 -51.768  1.00  0.00     0.035 A 
HETATM    6  C   UNL     1     -40.812  53.434 -53.093  1.00  0.00    -0.020 A 
HETATM    7  C   UNL     1     -41.361  54.407 -54.067  1.00  0.00     0.061 C 
HETATM    8  C   UNL     1     -42.224  55.454 -53.331  1.00  0.00     0.132 C 
HETATM    9  N   UNL     1     -40.139  52.706 -51.105  1.00  0.00    -0.357 N 
HETATM   10  H   UNL     1     -39.921  52.672 -50.118  1.00  0.00     0.166 HD
HETATM   11  C   UNL     1     -39.934  51.667 -51.986  1.00  0.00     0.043 A 
HETATM   12  C   UNL     1     -40.344  52.102 -53.250  1.00  0.00    -0.001 A 
HETATM   13  C   UNL     1     -39.417  50.385 -51.760  1.00  0.00     0.030 A 
HETATM   14  C   UNL     1     -39.311  49.526 -52.857  1.00  0.00     0.002 A 
HETATM   15  C   UNL     1     -39.707  49.934 -54.129  1.00  0.00     0.001 A 
HETATM   16  C   UNL     1     -40.224  51.218 -54.339  1.00  0.00     0.014 A 
HETATM   17  O   UNL     1     -41.132  57.707 -50.656  1.00  0.00    -0.247 OA
HETATM   18  H   UNL     1     -43.371  57.614 -52.824  1.00  0.00     0.171 HD
ENDROOT
BRANCH   1  19
HETATM   19  C   UNL     1     -42.840  59.477 -52.187  1.00  0.00     0.072 A 
HETATM   20  C   UNL     1     -42.481  60.350 -53.239  1.00  0.00     0.096 A 
HETATM   21  C   UNL     1     -42.717  61.722 -53.106  1.00  0.00     0.042 A 
HETATM   22  C   UNL     1     -43.276  62.225 -51.929  1.00  0.00     0.045 A 
HETATM   23  C   UNL     1     -43.597  61.359 -50.893  1.00  0.00     0.118 A 
HETATM   24  C   UNL     1     -43.385  59.991 -51.009  1.00  0.00     0.074 A 
HETATM   25  F   UNL     1     -44.117  61.854 -49.761  1.00  0.00    -0.206 F 
BRANCH  20  26
HETATM   26  O   UNL     1     -41.933  59.739 -54.342  1.00  0.00    -0.344 OA
BRANCH  26  27
HETATM   27  C   UNL     1     -42.711  59.606 -55.537  1.00  0.00     0.121 C 
HETATM   28  C   UNL     1     -42.674  58.158 -56.021  1.00  0.00     0.040 C 
HETATM   29  C   UNL     1     -42.073  60.521 -56.579  1.00  0.00     0.040 C 
ENDBRANCH  26  27
ENDBRANCH  20  26
ENDBRANCH   1  19
TORSDOF 3
ENDMDL
MODEL 3
REMARK VINA RESULT:      -8.4      2.287      3.169
REMARK  3 active torsions:
REMARK  status: ('A' for Active; 'I' for Inactive)
REMARK    1  A    between atoms: C_2  and  O_3 
REMARK    2  A    between atoms: O_3  and  C_4 
REMARK    3  A    between atoms: C_5  and  N_6 
REMARK       I    between atoms: N_6  and  C_7 
REMARK       I    between atoms: C_7  and  N_8 
ROOT
HETATM    1  N   UNL     1     -42.196  57.788 -55.451  1.00  0.00    -0.306 N 
HETATM    2  C   UNL     1     -41.536  57.380 -54.317  1.00  0.00     0.323 C 
HETATM    3  N   UNL     1     -41.387  56.002 -54.180  1.00  0.00    -0.328 N 
HETATM    4  C   UNL     1     -41.093  55.550 -52.812  1.00  0.00     0.185 C 
HETATM    5  C   UNL     1     -40.703  54.118 -52.800  1.00  0.00     0.035 A 
HETATM    6  C   UNL     1     -40.596  53.272 -53.880  1.00  0.00    -0.020 A 
HETATM    7  C   UNL     1     -40.874  53.764 -55.251  1.00  0.00     0.061 C 
HETATM    8  C   UNL     1     -41.801  54.997 -55.186  1.00  0.00     0.132 C 
HETATM    9  N   UNL     1     -40.388  53.411 -51.673  1.00  0.00    -0.357 N 
HETATM   10  H   UNL     1     -40.378  53.777 -50.730  1.00  0.00     0.166 HD
HETATM   11  C   UNL     1     -40.075  52.112 -52.009  1.00  0.00     0.043 A 
HETATM   12  C   UNL     1     -40.192  51.999 -53.398  1.00  0.00    -0.001 A 
HETATM   13  C   UNL     1     -39.697  51.038 -51.193  1.00  0.00     0.030 A 
HETATM   14  C   UNL     1     -39.425  49.817 -51.814  1.00  0.00     0.002 A 
HETATM   15  C   UNL     1     -39.528  49.675 -53.196  1.00  0.00     0.001 A 
HETATM   16  C   UNL     1     -39.910  50.757 -53.999  1.00  0.00     0.014 A 
HETATM   17  O   UNL     1     -41.133  58.153 -53.449  1.00  0.00    -0.247 OA
HETATM   18  H   UNL     1     -42.888  57.154 -55.825  1.00  0.00     0.171 HD
ENDROOT
BRANCH   1  19
HETATM   19  C   UNL     1     -42.379  59.127 -55.876  1.00  0.00     0.072 A 
HETATM   20  C   UNL     1     -42.142  59.417 -57.239  1.00  0.00     0.096 A 
HETATM   21  C   UNL     1     -42.332  60.720 -57.709  1.00  0.00     0.042 A 
HETATM   22  C   UNL     1     -42.723  61.731 -56.829  1.00  0.00     0.045 A 
HETATM   23  C   UNL     1     -42.925  61.439 -55.487  1.00  0.00     0.118 A 
HETATM   24  C   UNL     1     -42.758  60.148 -55.001  1.00  0.00     0.074 A 
HETATM   25  F   UNL     1     -43.284  62.420 -54.648  1.00  0.00    -0.206 F 
BRANCH  20  26
HETATM   26  O   UNL     1     -41.754  58.342 -58.003  1.00  0.00    -0.344 OA
BRANCH  26  27
HETATM   27  C   UNL     1     -42.638  57.831 -59.007  1.00  0.00     0.121 C 
HETATM   28  C   UNL     1     -43.096  56.425 -58.628  1.00  0.00     0.040 C 
HETATM   29  C   UNL     1     -41.844  57.789 -60.310  1.00  0.00     0.040 C 
ENDBRANCH  26  27
ENDBRANCH  20  26
ENDBRANCH   1  19
TORSDOF 3
ENDMDL
MODEL 4
REMARK VINA RESULT:      -8.1      4.243      8.773
REMARK  3 active torsions:
REMARK  status: ('A' for Active; 'I' for Inactive)
REMARK    1  A    between atoms: C_2  and  O_3 
REMARK    2  A    between atoms: O_3  and  C_4 
REMARK    3  A    between atoms: C_5  and  N_6 
REMARK       I    between atoms: N_6  and  C_7 
REMARK       I    between atoms: C_7  and  N_8 
ROOT
HETATM    1  N   UNL     1     -41.779  53.882 -53.686  1.00  0.00    -0.306 N 
HETATM    2  C   UNL     1     -41.420  55.028 -54.353  1.00  0.00     0.323 C 
HETATM    3  N   UNL     1     -42.374  56.043 -54.345  1.00  0.00    -0.328 N 
HETATM    4  C   UNL     1     -42.194  57.063 -55.389  1.00  0.00     0.185 C 
HETATM    5  C   UNL     1     -43.086  58.225 -55.155  1.00  0.00     0.035 A 
HETATM    6  C   UNL     1     -43.976  58.399 -54.119  1.00  0.00    -0.020 A 
HETATM    7  C   UNL     1     -44.117  57.365 -53.066  1.00  0.00     0.061 C 
HETATM    8  C   UNL     1     -43.662  55.996 -53.615  1.00  0.00     0.132 C 
HETATM    9  N   UNL     1     -43.158  59.323 -55.967  1.00  0.00    -0.357 N 
HETATM   10  H   UNL     1     -42.614  59.472 -56.806  1.00  0.00     0.166 HD
HETATM   11  C   UNL     1     -44.085  60.213 -55.468  1.00  0.00     0.043 A 
HETATM   12  C   UNL     1     -44.612  59.657 -54.298  1.00  0.00    -0.001 A 
HETATM   13  C   UNL     1     -44.490  61.459 -55.961  1.00  0.00     0.030 A 
HETATM   14  C   UNL     1     -45.455  62.161 -55.235  1.00  0.00     0.002 A 
HETATM   15  C   UNL     1     -45.994  61.635 -54.062  1.00  0.00     0.001 A 
HETATM   16  C   UNL     1     -45.582  60.386 -53.583  1.00  0.00     0.014 A 
HETATM   17  O   UNL     1     -40.356  55.161 -54.957  1.00  0.00    -0.247 OA
HETATM   18  H   UNL     1     -42.765  53.664 -53.660  1.00  0.00     0.171 HD
ENDROOT
BRANCH   1  19
HETATM   19  C   UNL     1     -40.951  52.755 -53.456  1.00  0.00     0.072 A 
HETATM   20  C   UNL     1     -40.186  52.740 -52.267  1.00  0.00     0.096 A 
HETATM   21  C   UNL     1     -39.372  51.639 -51.987  1.00  0.00     0.042 A 
HETATM   22  C   UNL     1     -39.295  50.577 -52.891  1.00  0.00     0.045 A 
HETATM   23  C   UNL     1     -40.030  50.618 -54.067  1.00  0.00     0.118 A 
HETATM   24  C   UNL     1     -40.857  51.695 -54.360  1.00  0.00     0.074 A 
HETATM   25  F   UNL     1     -39.935  49.601 -54.936  1.00  0.00    -0.206 F 
BRANCH  20  26
HETATM   26  O   UNL     1     -40.340  53.844 -51.462  1.00  0.00    -0.344 OA
BRANCH  26  27
HETATM   27  C   UNL     1     -40.924  53.696 -50.163  1.00  0.00     0.121 C 
HETATM   28  C   UNL     1     -42.169  54.573 -50.052  1.00  0.00     0.040 C 
HETATM   29  C   UNL     1     -39.872  54.152 -49.155  1.00  0.00     0.040 C 
ENDBRANCH  26  27
ENDBRANCH  20  26
ENDBRANCH   1  19
TORSDOF 3
ENDMDL
MODEL 5
REMARK VINA RESULT:      -8.1      2.357      2.889
REMARK  3 active torsions:
REMARK  status: ('A' for Active; 'I' for Inactive)
REMARK    1  A    between atoms: C_2  and  O_3 
REMARK    2  A    between atoms: O_3  and  C_4 
REMARK    3  A    between atoms: C_5  and  N_6 
REMARK       I    between atoms: N_6  and  C_7 
REMARK       I    between atoms: C_7  and  N_8 
ROOT
HETATM    1  N   UNL     1     -44.701  57.140 -56.841  1.00  0.00    -0.306 N 
HETATM    2  C   UNL     1     -44.265  57.233 -55.541  1.00  0.00     0.323 C 
HETATM    3  N   UNL     1     -43.573  56.121 -55.066  1.00  0.00    -0.328 N 
HETATM    4  C   UNL     1     -43.494  56.028 -53.601  1.00  0.00     0.185 C 
HETATM    5  C   UNL     1     -42.539  54.970 -53.187  1.00  0.00     0.035 A 
HETATM    6  C   UNL     1     -41.786  54.158 -54.006  1.00  0.00    -0.020 A 
HETATM    7  C   UNL     1     -41.867  54.294 -55.480  1.00  0.00     0.061 C 
HETATM    8  C   UNL     1     -43.218  54.931 -55.873  1.00  0.00     0.132 C 
HETATM    9  N   UNL     1     -42.266  54.637 -51.890  1.00  0.00    -0.357 N 
HETATM   10  H   UNL     1     -42.672  55.070 -51.071  1.00  0.00     0.166 HD
HETATM   11  C   UNL     1     -41.340  53.617 -51.855  1.00  0.00     0.043 A 
HETATM   12  C   UNL     1     -41.015  53.300 -53.177  1.00  0.00    -0.001 A 
HETATM   13  C   UNL     1     -40.769  52.959 -50.758  1.00  0.00     0.030 A 
HETATM   14  C   UNL     1     -39.835  51.954 -51.021  1.00  0.00     0.002 A 
HETATM   15  C   UNL     1     -39.487  51.620 -52.328  1.00  0.00     0.001 A 
HETATM   16  C   UNL     1     -40.069  52.285 -53.414  1.00  0.00     0.014 A 
HETATM   17  O   UNL     1     -44.490  58.200 -54.814  1.00  0.00    -0.247 OA
HETATM   18  H   UNL     1     -44.918  56.213 -57.179  1.00  0.00     0.171 HD
ENDROOT
BRANCH   1  19
HETATM   19  C   UNL     1     -45.327  58.168 -57.588  1.00  0.00     0.072 A 
HETATM   20  C   UNL     1     -44.574  58.775 -58.619  1.00  0.00     0.096 A 
HETATM   21  C   UNL     1     -45.157  59.779 -59.397  1.00  0.00     0.042 A 
HETATM   22  C   UNL     1     -46.465  60.197 -59.136  1.00  0.00     0.045 A 
HETATM   23  C   UNL     1     -47.183  59.611 -58.103  1.00  0.00     0.118 A 
HETATM   24  C   UNL     1     -46.629  58.602 -57.326  1.00  0.00     0.074 A 
HETATM   25  F   UNL     1     -48.430  60.032 -57.850  1.00  0.00    -0.206 F 
BRANCH  20  26
HETATM   26  O   UNL     1     -43.299  58.285 -58.774  1.00  0.00    -0.344 OA
BRANCH  26  27
HETATM   27  C   UNL     1     -42.945  57.605 -59.984  1.00  0.00     0.121 C 
HETATM   28  C   UNL     1     -42.580  56.155 -59.675  1.00  0.00     0.040 C 
HETATM   29  C   UNL     1     -41.736  58.337 -60.560  1.00  0.00     0.040 C 
ENDBRANCH  26  27
ENDBRANCH  20  26
ENDBRANCH   1  19
TORSDOF 3
ENDMDL
MODEL 6
REMARK VINA RESULT:      -8.0      3.514      4.598
REMARK  3 active torsions:
REMARK  status: ('A' for Active; 'I' for Inactive)
REMARK    1  A    between atoms: C_2  and  O_3 
REMARK    2  A    between atoms: O_3  and  C_4 
REMARK    3  A    between atoms: C_5  and  N_6 
REMARK       I    between atoms: N_6  and  C_7 
REMARK       I    between atoms: C_7  and  N_8 
ROOT
HETATM    1  N   UNL     1     -42.995  57.984 -54.715  1.00  0.00    -0.306 N 
HETATM    2  C   UNL     1     -42.078  57.519 -53.803  1.00  0.00     0.323 C 
HETATM    3  N   UNL     1     -41.882  56.140 -53.809  1.00  0.00    -0.328 N 
HETATM    4  C   UNL     1     -41.264  55.603 -52.588  1.00  0.00     0.185 C 
HETATM    5  C   UNL     1     -40.862  54.187 -52.775  1.00  0.00     0.035 A 
HETATM    6  C   UNL     1     -41.005  53.422 -53.910  1.00  0.00    -0.020 A 
HETATM    7  C   UNL     1     -41.607  53.999 -55.136  1.00  0.00     0.061 C 
HETATM    8  C   UNL     1     -42.509  55.195 -54.761  1.00  0.00     0.132 C 
HETATM    9  N   UNL     1     -40.278  53.414 -51.811  1.00  0.00    -0.357 N 
HETATM   10  H   UNL     1     -40.049  53.713 -50.873  1.00  0.00     0.166 HD
HETATM   11  C   UNL     1     -40.036  52.151 -52.308  1.00  0.00     0.043 A 
HETATM   12  C   UNL     1     -40.479  52.131 -53.634  1.00  0.00    -0.001 A 
HETATM   13  C   UNL     1     -39.460  51.036 -51.687  1.00  0.00     0.030 A 
HETATM   14  C   UNL     1     -39.326  49.870 -52.445  1.00  0.00     0.002 A 
HETATM   15  C   UNL     1     -39.754  49.822 -53.770  1.00  0.00     0.001 A 
HETATM   16  C   UNL     1     -40.331  50.944 -54.377  1.00  0.00     0.014 A 
HETATM   17  O   UNL     1     -41.490  58.242 -53.000  1.00  0.00    -0.247 OA
HETATM   18  H   UNL     1     -43.747  57.356 -54.960  1.00  0.00     0.171 HD
ENDROOT
BRANCH   1  19
HETATM   19  C   UNL     1     -43.293  59.343 -54.982  1.00  0.00     0.072 A 
HETATM   20  C   UNL     1     -44.384  59.918 -54.292  1.00  0.00     0.096 A 
HETATM   21  C   UNL     1     -44.703  61.263 -54.507  1.00  0.00     0.042 A 
HETATM   22  C   UNL     1     -43.964  62.020 -55.419  1.00  0.00     0.045 A 
HETATM   23  C   UNL     1     -42.913  61.434 -56.111  1.00  0.00     0.118 A 
HETATM   24  C   UNL     1     -42.569  60.105 -55.903  1.00  0.00     0.074 A 
HETATM   25  F   UNL     1     -42.222  62.166 -56.997  1.00  0.00    -0.206 F 
BRANCH  20  26
HETATM   26  O   UNL     1     -45.037  59.072 -53.428  1.00  0.00    -0.344 OA
BRANCH  26  27
HETATM   27  C   UNL     1     -44.904  59.263 -52.015  1.00  0.00     0.121 C 
HETATM   28  C   UNL     1     -44.735  57.912 -51.324  1.00  0.00     0.040 C 
HETATM   29  C   UNL     1     -46.190  59.935 -51.541  1.00  0.00     0.040 C 
ENDBRANCH  26  27
ENDBRANCH  20  26
ENDBRANCH   1  19
TORSDOF 3
ENDMDL
MODEL 7
REMARK VINA RESULT:      -8.0      3.686      8.794
REMARK  3 active torsions:
REMARK  status: ('A' for Active; 'I' for Inactive)
REMARK    1  A    between atoms: C_2  and  O_3 
REMARK    2  A    between atoms: O_3  and  C_4 
REMARK    3  A    between atoms: C_5  and  N_6 
REMARK       I    between atoms: N_6  and  C_7 
REMARK       I    between atoms: C_7  and  N_8 
ROOT
HETATM    1  N   UNL     1     -41.816  55.515 -52.465  1.00  0.00    -0.306 N 
HETATM    2  C   UNL     1     -43.130  55.703 -52.816  1.00  0.00     0.323 C 
HETATM    3  N   UNL     1     -43.333  56.422 -53.992  1.00  0.00    -0.328 N 
HETATM    4  C   UNL     1     -44.680  56.993 -54.137  1.00  0.00     0.185 C 
HETATM    5  C   UNL     1     -44.889  57.518 -55.510  1.00  0.00     0.035 A 
HETATM    6  C   UNL     1     -43.996  57.495 -56.558  1.00  0.00    -0.020 A 
HETATM    7  C   UNL     1     -42.654  56.888 -56.388  1.00  0.00     0.061 C 
HETATM    8  C   UNL     1     -42.260  56.897 -54.896  1.00  0.00     0.132 C 
HETATM    9  N   UNL     1     -46.036  58.123 -55.942  1.00  0.00    -0.357 N 
HETATM   10  H   UNL     1     -46.867  58.277 -55.386  1.00  0.00     0.166 HD
HETATM   11  C   UNL     1     -45.900  58.494 -57.262  1.00  0.00     0.043 A 
HETATM   12  C   UNL     1     -44.623  58.103 -57.677  1.00  0.00    -0.001 A 
HETATM   13  C   UNL     1     -46.806  59.139 -58.113  1.00  0.00     0.030 A 
HETATM   14  C   UNL     1     -46.399  59.384 -59.427  1.00  0.00     0.002 A 
HETATM   15  C   UNL     1     -45.135  59.001 -59.870  1.00  0.00     0.001 A 
HETATM   16  C   UNL     1     -44.238  58.360 -59.007  1.00  0.00     0.014 A 
HETATM   17  O   UNL     1     -44.080  55.313 -52.138  1.00  0.00    -0.247 OA
HETATM   18  H   UNL     1     -41.164  56.231 -52.752  1.00  0.00     0.171 HD
ENDROOT
BRANCH   1  19
HETATM   19  C   UNL     1     -41.344  54.731 -51.383  1.00  0.00     0.072 A 
HETATM   20  C   UNL     1     -41.021  53.381 -51.648  1.00  0.00     0.096 A 
HETATM   21  C   UNL     1     -40.531  52.575 -50.616  1.00  0.00     0.042 A 
HETATM   22  C   UNL     1     -40.390  53.095 -49.328  1.00  0.00     0.045 A 
HETATM   23  C   UNL     1     -40.738  54.415 -49.075  1.00  0.00     0.118 A 
HETATM   24  C   UNL     1     -41.213  55.238 -50.088  1.00  0.00     0.074 A 
HETATM   25  F   UNL     1     -40.616  54.899 -47.831  1.00  0.00    -0.206 F 
BRANCH  20  26
HETATM   26  O   UNL     1     -41.208  52.983 -52.951  1.00  0.00    -0.344 OA
BRANCH  26  27
HETATM   27  C   UNL     1     -40.071  52.754 -53.791  1.00  0.00     0.121 C 
HETATM   28  C   UNL     1     -40.110  53.703 -54.986  1.00  0.00     0.040 C 
HETATM   29  C   UNL     1     -40.163  51.307 -54.269  1.00  0.00     0.040 C 
ENDBRANCH  26  27
ENDBRANCH  20  26
ENDBRANCH   1  19
TORSDOF 3
ENDMDL
MODEL 8
REMARK VINA RESULT:      -8.0      5.222      7.347
REMARK  3 active torsions:
REMARK  status: ('A' for Active; 'I' for Inactive)
REMARK    1  A    between atoms: C_2  and  O_3 
REMARK    2  A    between atoms: O_3  and  C_4 
REMARK    3  A    between atoms: C_5  and  N_6 
REMARK       I    between atoms: N_6  and  C_7 
REMARK       I    between atoms: C_7  and  N_8 
ROOT
HETATM    1  N   UNL     1     -43.357  59.595 -50.593  1.00  0.00    -0.306 N 
HETATM    2  C   UNL     1     -43.716  58.620 -51.491  1.00  0.00     0.323 C 
HETATM    3  N   UNL     1     -42.814  57.566 -51.615  1.00  0.00    -0.328 N 
HETATM    4  C   UNL     1     -42.961  56.774 -52.846  1.00  0.00     0.185 C 
HETATM    5  C   UNL     1     -42.144  55.537 -52.782  1.00  0.00     0.035 A 
HETATM    6  C   UNL     1     -41.345  55.117 -51.742  1.00  0.00    -0.020 A 
HETATM    7  C   UNL     1     -41.238  55.923 -50.503  1.00  0.00     0.061 C 
HETATM    8  C   UNL     1     -41.585  57.397 -50.806  1.00  0.00     0.132 C 
HETATM    9  N   UNL     1     -42.062  54.610 -53.783  1.00  0.00    -0.357 N 
HETATM   10  H   UNL     1     -42.546  54.655 -54.670  1.00  0.00     0.166 HD
HETATM   11  C   UNL     1     -41.218  53.588 -53.405  1.00  0.00     0.043 A 
HETATM   12  C   UNL     1     -40.758  53.880 -52.117  1.00  0.00    -0.001 A 
HETATM   13  C   UNL     1     -40.835  52.435 -54.101  1.00  0.00     0.030 A 
HETATM   14  C   UNL     1     -39.962  51.551 -53.461  1.00  0.00     0.002 A 
HETATM   15  C   UNL     1     -39.491  51.813 -52.176  1.00  0.00     0.001 A 
HETATM   16  C   UNL     1     -39.880  52.972 -51.494  1.00  0.00     0.014 A 
HETATM   17  O   UNL     1     -44.735  58.669 -52.179  1.00  0.00    -0.247 OA
HETATM   18  H   UNL     1     -42.366  59.744 -50.460  1.00  0.00     0.171 HD
ENDROOT
BRANCH   1  19
HETATM   19  C   UNL     1     -44.146  60.707 -50.206  1.00  0.00     0.072 A 
HETATM   20  C   UNL     1     -43.952  61.919 -50.907  1.00  0.00     0.096 A 
HETATM   21  C   UNL     1     -44.723  63.037 -50.575  1.00  0.00     0.042 A 
HETATM   22  C   UNL     1     -45.656  62.961 -49.538  1.00  0.00     0.045 A 
HETATM   23  C   UNL     1     -45.816  61.772 -48.839  1.00  0.00     0.118 A 
HETATM   24  C   UNL     1     -45.071  60.645 -49.162  1.00  0.00     0.074 A 
HETATM   25  F   UNL     1     -46.701  61.716 -47.835  1.00  0.00    -0.206 F 
BRANCH  20  26
HETATM   26  O   UNL     1     -43.002  61.872 -51.899  1.00  0.00    -0.344 OA
BRANCH  26  27
HETATM   27  C   UNL     1     -43.407  61.942 -53.271  1.00  0.00     0.121 C 
HETATM   28  C   UNL     1     -42.630  60.917 -54.094  1.00  0.00     0.040 C 
HETATM   29  C   UNL     1     -43.082  63.353 -53.753  1.00  0.00     0.040 C 
ENDBRANCH  26  27
ENDBRANCH  20  26
ENDBRANCH   1  19
TORSDOF 3
ENDMDL
MODEL 9
REMARK VINA RESULT:      -7.9      3.575      8.858
REMARK  3 active torsions:
REMARK  status: ('A' for Active; 'I' for Inactive)
REMARK    1  A    between atoms: C_2  and  O_3 
REMARK    2  A    between atoms: O_3  and  C_4 
REMARK    3  A    between atoms: C_5  and  N_6 
REMARK       I    between atoms: N_6  and  C_7 
REMARK       I    between atoms: C_7  and  N_8 
ROOT
HETATM    1  N   UNL     1     -41.227  54.659 -54.052  1.00  0.00    -0.306 N 
HETATM    2  C   UNL     1     -42.576  54.859 -54.217  1.00  0.00     0.323 C 
HETATM    3  N   UNL     1     -42.924  55.974 -54.975  1.00  0.00    -0.328 N 
HETATM    4  C   UNL     1     -44.308  56.434 -54.792  1.00  0.00     0.185 C 
HETATM    5  C   UNL     1     -44.668  57.452 -55.809  1.00  0.00     0.035 A 
HETATM    6  C   UNL     1     -43.872  57.938 -56.822  1.00  0.00    -0.020 A 
HETATM    7  C   UNL     1     -42.489  57.436 -56.998  1.00  0.00     0.061 C 
HETATM    8  C   UNL     1     -41.964  56.869 -55.662  1.00  0.00     0.132 C 
HETATM    9  N   UNL     1     -45.881  58.078 -55.884  1.00  0.00    -0.357 N 
HETATM   10  H   UNL     1     -46.666  57.918 -55.267  1.00  0.00     0.166 HD
HETATM   11  C   UNL     1     -45.885  58.966 -56.938  1.00  0.00     0.043 A 
HETATM   12  C   UNL     1     -44.630  58.893 -57.551  1.00  0.00    -0.001 A 
HETATM   13  C   UNL     1     -46.898  59.819 -57.391  1.00  0.00     0.030 A 
HETATM   14  C   UNL     1     -46.625  60.615 -58.506  1.00  0.00     0.002 A 
HETATM   15  C   UNL     1     -45.386  60.560 -59.141  1.00  0.00     0.001 A 
HETATM   16  C   UNL     1     -44.381  59.704 -58.675  1.00  0.00     0.014 A 
HETATM   17  O   UNL     1     -43.438  54.143 -53.707  1.00  0.00    -0.247 OA
HETATM   18  H   UNL     1     -40.644  55.485 -54.054  1.00  0.00     0.171 HD
ENDROOT
BRANCH   1  19
HETATM   19  C   UNL     1     -40.617  53.547 -53.421  1.00  0.00     0.072 A 
HETATM   20  C   UNL     1     -40.425  53.616 -52.022  1.00  0.00     0.096 A 
HETATM   21  C   UNL     1     -39.846  52.534 -51.352  1.00  0.00     0.042 A 
HETATM   22  C   UNL     1     -39.436  51.406 -52.068  1.00  0.00     0.045 A 
HETATM   23  C   UNL     1     -39.605  51.363 -53.445  1.00  0.00     0.118 A 
HETATM   24  C   UNL     1     -40.191  52.421 -54.129  1.00  0.00     0.074 A 
HETATM   25  F   UNL     1     -39.192  50.284 -54.123  1.00  0.00    -0.206 F 
BRANCH  20  26
HETATM   26  O   UNL     1     -40.861  54.778 -51.432  1.00  0.00    -0.344 OA
BRANCH  26  27
HETATM   27  C   UNL     1     -41.848  54.718 -50.396  1.00  0.00     0.121 C 
HETATM   28  C   UNL     1     -42.948  55.741 -50.668  1.00  0.00     0.040 C 
HETATM   29  C   UNL     1     -41.133  55.055 -49.090  1.00  0.00     0.040 C 
ENDBRANCH  26  27
ENDBRANCH  20  26
ENDBRANCH   1  19
TORSDOF 3
ENDMDL
MODEL 10
REMARK VINA RESULT:      -7.8      3.381      4.444
REMARK  3 active torsions:
REMARK  status: ('A' for Active; 'I' for Inactive)
REMARK    1  A    between atoms: C_2  and  O_3 
REMARK    2  A    between atoms: O_3  and  C_4 
REMARK    3  A    between atoms: C_5  and  N_6 
REMARK       I    between atoms: N_6  and  C_7 
REMARK       I    between atoms: C_7  and  N_8 
ROOT
HETATM    1  N   UNL     1     -44.467  57.779 -54.010  1.00  0.00    -0.306 N 
HETATM    2  C   UNL     1     -43.322  57.464 -53.319  1.00  0.00     0.323 C 
HETATM    3  N   UNL     1     -42.916  56.135 -53.418  1.00  0.00    -0.328 N 
HETATM    4  C   UNL     1     -41.985  55.698 -52.367  1.00  0.00     0.185 C 
HETATM    5  C   UNL     1     -41.412  54.367 -52.687  1.00  0.00     0.035 A 
HETATM    6  C   UNL     1     -41.660  53.596 -53.800  1.00  0.00    -0.020 A 
HETATM    7  C   UNL     1     -42.583  54.076 -54.856  1.00  0.00     0.061 C 
HETATM    8  C   UNL     1     -43.567  55.107 -54.262  1.00  0.00     0.132 C 
HETATM    9  N   UNL     1     -40.529  53.692 -51.890  1.00  0.00    -0.357 N 
HETATM   10  H   UNL     1     -40.164  54.019 -51.006  1.00  0.00     0.166 HD
HETATM   11  C   UNL     1     -40.197  52.489 -52.475  1.00  0.00     0.043 A 
HETATM   12  C   UNL     1     -40.893  52.406 -53.686  1.00  0.00    -0.001 A 
HETATM   13  C   UNL     1     -39.338  51.478 -52.027  1.00  0.00     0.030 A 
HETATM   14  C   UNL     1     -39.180  50.354 -52.842  1.00  0.00     0.002 A 
HETATM   15  C   UNL     1     -39.855  50.246 -54.055  1.00  0.00     0.001 A 
HETATM   16  C   UNL     1     -40.714  51.264 -54.489  1.00  0.00     0.014 A 
HETATM   17  O   UNL     1     -42.704  58.267 -52.621  1.00  0.00    -0.247 OA
HETATM   18  H   UNL     1     -45.145  57.039 -54.124  1.00  0.00     0.171 HD
ENDROOT
BRANCH   1  19
HETATM   19  C   UNL     1     -45.024  59.074 -54.158  1.00  0.00     0.072 A 
HETATM   20  C   UNL     1     -45.049  59.627 -55.459  1.00  0.00     0.096 A 
HETATM   21  C   UNL     1     -45.609  60.893 -55.658  1.00  0.00     0.042 A 
HETATM   22  C   UNL     1     -46.111  61.614 -54.573  1.00  0.00     0.045 A 
HETATM   23  C   UNL     1     -46.054  61.071 -53.297  1.00  0.00     0.118 A 
HETATM   24  C   UNL     1     -45.516  59.809 -53.078  1.00  0.00     0.074 A 
HETATM   25  F   UNL     1     -46.523  61.779 -52.261  1.00  0.00    -0.206 F 
BRANCH  20  26
HETATM   26  O   UNL     1     -44.519  58.826 -56.442  1.00  0.00    -0.344 OA
BRANCH  26  27
HETATM   27  C   UNL     1     -43.223  59.122 -56.975  1.00  0.00     0.121 C 
HETATM   28  C   UNL     1     -43.360  59.696 -58.383  1.00  0.00     0.040 C 
HETATM   29  C   UNL     1     -42.456  57.804 -57.021  1.00  0.00     0.040 C 
ENDBRANCH  26  27
ENDBRANCH  20  26
ENDBRANCH   1  19
TORSDOF 3
ENDMDL
