MODEL 1
REMARK VINA RESULT:      -8.5      0.000      0.000
REMARK  6 active torsions:
REMARK  status: ('A' for Active; 'I' for Inactive)
REMARK    1  A    between atoms: C_3  and  C_4 
REMARK    2  A    between atoms: C_4  and  N_5 
REMARK    3  A    between atoms: C_4  and  C_19 
REMARK    4  A    between atoms: N_9  and  C_10 
REMARK    5  A    between atoms: C_25  and  N_26 
REMARK       I    between atoms: N_26  and  C_27 
REMARK    6  A    between atoms: C_27  and  C_28 
ROOT
HETATM    1  C   UNL     1     -42.266  58.411 -53.256  1.00  0.00     0.259 C 
ENDROOT
BRANCH   1   2
HETATM    2  C   UNL     1     -43.366  59.451 -53.414  1.00  0.00     0.018 A 
HETATM    3  C   UNL     1     -44.589  59.421 -52.599  1.00  0.00    -0.038 A 
HETATM    4  C   UNL     1     -44.936  58.347 -51.606  1.00  0.00     0.050 C 
HETATM    5  C   UNL     1     -45.409  60.510 -52.851  1.00  0.00    -0.013 A 
HETATM    6  S   UNL     1     -44.779  61.515 -54.064  1.00  0.00    -0.076 SA
HETATM    7  C   UNL     1     -46.728  60.856 -52.230  1.00  0.00     0.057 C 
HETATM    8  C   UNL     1     -43.382  60.570 -54.242  1.00  0.00     0.086 A 
BRANCH   8   9
HETATM    9  N   UNL     1     -42.517  60.894 -55.265  1.00  0.00    -0.315 N 
HETATM   10  C   UNL     1     -42.250  60.221 -56.446  1.00  0.00     0.280 C 
HETATM   11  O   UNL     1     -41.236  60.583 -57.049  1.00  0.00    -0.265 OA
HETATM   12  H   UNL     1     -41.822  61.606 -55.082  1.00  0.00     0.170 HD
BRANCH  10  13
HETATM   13  C   UNL     1     -43.203  59.297 -57.022  1.00  0.00     0.142 A 
HETATM   14  O   UNL     1     -42.882  57.968 -57.164  1.00  0.00    -0.317 OA
HETATM   15  C   UNL     1     -43.952  57.361 -57.743  1.00  0.00     0.143 A 
HETATM   16  C   UNL     1     -44.987  58.252 -57.899  1.00  0.00     0.027 A 
HETATM   17  C   UNL     1     -44.515  59.493 -57.412  1.00  0.00     0.045 A 
ENDBRANCH  10  13
ENDBRANCH   8   9
ENDBRANCH   1   2
BRANCH   1  18
HETATM   18  N   UNL     1     -42.673  56.931 -53.112  1.00  0.00    -0.056 N 
HETATM   19  H   UNL     1     -43.676  56.980 -52.901  1.00  0.00     0.281 HD
HETATM   20  C   UNL     1     -42.571  56.053 -54.349  1.00  0.00     0.256 C 
HETATM   21  C   UNL     1     -43.189  54.654 -54.085  1.00  0.00     0.152 C 
HETATM   22  N   UNL     1     -42.594  54.018 -52.885  1.00  0.00    -0.364 N 
HETATM   23  C   UNL     1     -42.649  54.865 -51.665  1.00  0.00     0.152 C 
HETATM   24  C   UNL     1     -42.028  56.266 -51.896  1.00  0.00     0.256 C 
BRANCH  22  25
HETATM   25  C   UNL     1     -41.554  53.116 -53.057  1.00  0.00     0.102 A 
HETATM   26  N   UNL     1     -40.732  52.878 -52.016  1.00  0.00    -0.352 N 
HETATM   27  H   UNL     1     -40.878  53.414 -51.165  1.00  0.00     0.166 HD
HETATM   28  C   UNL     1     -39.683  52.040 -52.060  1.00  0.00     0.089 A 
HETATM   29  C   UNL     1     -39.378  51.369 -53.231  1.00  0.00     0.017 A 
HETATM   30  C   UNL     1     -40.163  51.598 -54.349  1.00  0.00     0.005 A 
HETATM   31  C   UNL     1     -41.245  52.474 -54.266  1.00  0.00     0.048 A 
ENDBRANCH  22  25
ENDBRANCH   1  18
BRANCH   1  32
HETATM   32  C   UNL     1     -41.210  58.877 -52.273  1.00  0.00    -0.005 A 
HETATM   33  C   UNL     1     -39.888  58.947 -52.724  1.00  0.00     0.125 A 
HETATM   34  N   UNL     1     -38.827  59.276 -51.964  1.00  0.00    -0.273 NA
HETATM   35  C   UNL     1     -39.068  59.628 -50.686  1.00  0.00     0.116 A 
HETATM   36  C   UNL     1     -40.335  59.637 -50.137  1.00  0.00     0.020 A 
HETATM   37  C   UNL     1     -41.415  59.256 -50.939  1.00  0.00     0.012 A 
ENDBRANCH   1  32
TORSDOF 6
ENDMDL
MODEL 2
REMARK VINA RESULT:      -8.2      2.274      4.786
REMARK  6 active torsions:
REMARK  status: ('A' for Active; 'I' for Inactive)
REMARK    1  A    between atoms: C_3  and  C_4 
REMARK    2  A    between atoms: C_4  and  N_5 
REMARK    3  A    between atoms: C_4  and  C_19 
REMARK    4  A    between atoms: N_9  and  C_10 
REMARK    5  A    between atoms: C_25  and  N_26 
REMARK       I    between atoms: N_26  and  C_27 
REMARK    6  A    between atoms: C_27  and  C_28 
ROOT
HETATM    1  C   UNL     1     -44.098  57.300 -56.190  1.00  0.00     0.259 C 
ENDROOT
BRANCH   1   2
HETATM    2  C   UNL     1     -44.650  58.718 -56.169  1.00  0.00     0.018 A 
HETATM    3  C   UNL     1     -45.858  59.093 -56.919  1.00  0.00    -0.038 A 
HETATM    4  C   UNL     1     -46.621  58.179 -57.837  1.00  0.00     0.050 C 
HETATM    5  C   UNL     1     -46.226  60.410 -56.686  1.00  0.00    -0.013 A 
HETATM    6  S   UNL     1     -45.138  61.202 -55.654  1.00  0.00    -0.076 SA
HETATM    7  C   UNL     1     -47.391  61.171 -57.242  1.00  0.00     0.057 C 
HETATM    8  C   UNL     1     -44.191  59.812 -55.442  1.00  0.00     0.086 A 
BRANCH   8   9
HETATM    9  N   UNL     1     -43.014  59.940 -54.736  1.00  0.00    -0.315 N 
HETATM   10  C   UNL     1     -42.810  60.065 -53.371  1.00  0.00     0.280 C 
HETATM   11  O   UNL     1     -41.685  60.442 -53.033  1.00  0.00    -0.265 OA
HETATM   12  H   UNL     1     -42.179  60.174 -55.256  1.00  0.00     0.170 HD
BRANCH  10  13
HETATM   13  C   UNL     1     -43.790  59.599 -52.414  1.00  0.00     0.142 A 
HETATM   14  O   UNL     1     -44.013  58.253 -52.249  1.00  0.00    -0.317 OA
HETATM   15  C   UNL     1     -44.988  58.125 -51.310  1.00  0.00     0.143 A 
HETATM   16  C   UNL     1     -45.338  59.355 -50.806  1.00  0.00     0.027 A 
HETATM   17  C   UNL     1     -44.549  60.303 -51.498  1.00  0.00     0.045 A 
ENDBRANCH  10  13
ENDBRANCH   8   9
ENDBRANCH   1   2
BRANCH   1  18
HETATM   18  N   UNL     1     -43.395  56.769 -54.925  1.00  0.00    -0.056 N 
HETATM   19  H   UNL     1     -43.590  57.492 -54.223  1.00  0.00     0.281 HD
HETATM   20  C   UNL     1     -43.922  55.477 -54.321  1.00  0.00     0.256 C 
HETATM   21  C   UNL     1     -43.235  55.184 -52.960  1.00  0.00     0.152 C 
HETATM   22  N   UNL     1     -41.757  55.190 -53.089  1.00  0.00    -0.364 N 
HETATM   23  C   UNL     1     -41.213  56.427 -53.706  1.00  0.00     0.152 C 
HETATM   24  C   UNL     1     -41.873  56.739 -55.073  1.00  0.00     0.256 C 
BRANCH  22  25
HETATM   25  C   UNL     1     -41.100  53.981 -53.261  1.00  0.00     0.102 A 
HETATM   26  N   UNL     1     -40.531  53.400 -52.186  1.00  0.00    -0.352 N 
HETATM   27  H   UNL     1     -40.561  53.905 -51.304  1.00  0.00     0.166 HD
HETATM   28  C   UNL     1     -39.854  52.241 -52.225  1.00  0.00     0.089 A 
HETATM   29  C   UNL     1     -39.692  51.570 -53.425  1.00  0.00     0.017 A 
HETATM   30  C   UNL     1     -40.222  52.132 -54.575  1.00  0.00     0.005 A 
HETATM   31  C   UNL     1     -40.919  53.338 -54.496  1.00  0.00     0.048 A 
ENDBRANCH  22  25
ENDBRANCH   1  18
BRANCH   1  32
HETATM   32  C   UNL     1     -43.366  57.017 -57.488  1.00  0.00    -0.005 A 
HETATM   33  C   UNL     1     -42.517  58.013 -57.985  1.00  0.00     0.125 A 
HETATM   34  N   UNL     1     -41.849  57.948 -59.151  1.00  0.00    -0.273 NA
HETATM   35  C   UNL     1     -41.955  56.808 -59.862  1.00  0.00     0.116 A 
HETATM   36  C   UNL     1     -42.730  55.740 -59.455  1.00  0.00     0.020 A 
HETATM   37  C   UNL     1     -43.442  55.848 -58.257  1.00  0.00     0.012 A 
ENDBRANCH   1  32
TORSDOF 6
ENDMDL
MODEL 3
REMARK VINA RESULT:      -8.1      2.903      6.465
REMARK  6 active torsions:
REMARK  status: ('A' for Active; 'I' for Inactive)
REMARK    1  A    between atoms: C_3  and  C_4 
REMARK    2  A    between atoms: C_4  and  N_5 
REMARK    3  A    between atoms: C_4  and  C_19 
REMARK    4  A    between atoms: N_9  and  C_10 
REMARK    5  A    between atoms: C_25  and  N_26 
REMARK       I    between atoms: N_26  and  C_27 
REMARK    6  A    between atoms: C_27  and  C_28 
ROOT
HETATM    1  C   UNL     1     -43.837  57.852 -53.253  1.00  0.00     0.259 C 
ENDROOT
BRANCH   1   2
HETATM    2  C   UNL     1     -42.622  57.682 -52.352  1.00  0.00     0.018 A 
HETATM    3  C   UNL     1     -41.481  58.609 -52.400  1.00  0.00    -0.038 A 
HETATM    4  C   UNL     1     -41.338  59.747 -53.373  1.00  0.00     0.050 C 
HETATM    5  C   UNL     1     -40.530  58.313 -51.437  1.00  0.00    -0.013 A 
HETATM    6  S   UNL     1     -40.944  56.938 -50.534  1.00  0.00    -0.076 SA
HETATM    7  C   UNL     1     -39.238  59.014 -51.147  1.00  0.00     0.057 C 
HETATM    8  C   UNL     1     -42.415  56.736 -51.352  1.00  0.00     0.086 A 
BRANCH   8   9
HETATM    9  N   UNL     1     -43.152  55.605 -51.074  1.00  0.00    -0.315 N 
HETATM   10  C   UNL     1     -43.242  54.413 -51.774  1.00  0.00     0.280 C 
HETATM   11  O   UNL     1     -44.181  53.678 -51.457  1.00  0.00    -0.265 OA
HETATM   12  H   UNL     1     -43.887  55.683 -50.384  1.00  0.00     0.170 HD
BRANCH  10  13
HETATM   13  C   UNL     1     -42.193  53.983 -52.673  1.00  0.00     0.142 A 
HETATM   14  O   UNL     1     -42.355  54.096 -54.033  1.00  0.00    -0.317 OA
HETATM   15  C   UNL     1     -41.227  53.600 -54.609  1.00  0.00     0.143 A 
HETATM   16  C   UNL     1     -40.309  53.249 -53.650  1.00  0.00     0.027 A 
HETATM   17  C   UNL     1     -40.919  53.518 -52.403  1.00  0.00     0.045 A 
ENDBRANCH  10  13
ENDBRANCH   8   9
ENDBRANCH   1   2
BRANCH   1  18
HETATM   18  N   UNL     1     -43.607  58.060 -54.762  1.00  0.00    -0.056 N 
HETATM   19  H   UNL     1     -43.143  58.975 -54.808  1.00  0.00     0.281 HD
HETATM   20  C   UNL     1     -42.662  57.100 -55.466  1.00  0.00     0.256 C 
HETATM   21  C   UNL     1     -42.396  57.558 -56.925  1.00  0.00     0.152 C 
HETATM   22  N   UNL     1     -43.664  57.755 -57.669  1.00  0.00    -0.364 N 
HETATM   23  C   UNL     1     -44.623  58.664 -56.991  1.00  0.00     0.152 C 
HETATM   24  C   UNL     1     -44.917  58.225 -55.534  1.00  0.00     0.256 C 
BRANCH  22  25
HETATM   25  C   UNL     1     -44.132  56.724 -58.470  1.00  0.00     0.102 A 
HETATM   26  N   UNL     1     -45.313  56.885 -59.099  1.00  0.00    -0.352 N 
HETATM   27  H   UNL     1     -45.836  57.736 -58.912  1.00  0.00     0.166 HD
HETATM   28  C   UNL     1     -45.880  55.958 -59.888  1.00  0.00     0.089 A 
HETATM   29  C   UNL     1     -45.257  54.738 -60.085  1.00  0.00     0.017 A 
HETATM   30  C   UNL     1     -44.057  54.495 -59.438  1.00  0.00     0.005 A 
HETATM   31  C   UNL     1     -43.497  55.482 -58.627  1.00  0.00     0.048 A 
ENDBRANCH  22  25
ENDBRANCH   1  18
BRANCH   1  32
HETATM   32  C   UNL     1     -44.851  58.792 -52.630  1.00  0.00    -0.005 A 
HETATM   33  C   UNL     1     -45.436  58.407 -51.418  1.00  0.00     0.125 A 
HETATM   34  N   UNL     1     -46.397  59.092 -50.771  1.00  0.00    -0.273 NA
HETATM   35  C   UNL     1     -46.776  60.272 -51.299  1.00  0.00     0.116 A 
HETATM   36  C   UNL     1     -46.244  60.776 -52.468  1.00  0.00     0.020 A 
HETATM   37  C   UNL     1     -45.273  60.028 -53.139  1.00  0.00     0.012 A 
ENDBRANCH   1  32
TORSDOF 6
ENDMDL
MODEL 4
REMARK VINA RESULT:      -7.9      2.542      4.196
REMARK  6 active torsions:
REMARK  status: ('A' for Active; 'I' for Inactive)
REMARK    1  A    between atoms: C_3  and  C_4 
REMARK    2  A    between atoms: C_4  and  N_5 
REMARK    3  A    between atoms: C_4  and  C_19 
REMARK    4  A    between atoms: N_9  and  C_10 
REMARK    5  A    between atoms: C_25  and  N_26 
REMARK       I    between atoms: N_26  and  C_27 
REMARK    6  A    between atoms: C_27  and  C_28 
ROOT
HETATM    1  C   UNL     1     -42.448  58.484 -53.565  1.00  0.00     0.259 C 
ENDROOT
BRANCH   1   2
HETATM    2  C   UNL     1     -43.563  59.501 -53.760  1.00  0.00     0.018 A 
HETATM    3  C   UNL     1     -43.469  60.578 -54.757  1.00  0.00    -0.038 A 
HETATM    4  C   UNL     1     -42.266  60.853 -55.617  1.00  0.00     0.050 C 
HETATM    5  C   UNL     1     -44.631  61.332 -54.819  1.00  0.00    -0.013 A 
HETATM    6  S   UNL     1     -45.784  60.818 -53.687  1.00  0.00    -0.076 SA
HETATM    7  C   UNL     1     -44.945  62.501 -55.702  1.00  0.00     0.057 C 
HETATM    8  C   UNL     1     -44.802  59.554 -53.130  1.00  0.00     0.086 A 
BRANCH   8   9
HETATM    9  N   UNL     1     -45.241  58.837 -52.037  1.00  0.00    -0.315 N 
HETATM   10  C   UNL     1     -45.268  59.190 -50.698  1.00  0.00     0.280 C 
HETATM   11  O   UNL     1     -45.449  58.263 -49.905  1.00  0.00    -0.265 OA
HETATM   12  H   UNL     1     -45.391  57.844 -52.158  1.00  0.00     0.170 HD
BRANCH  10  13
HETATM   13  C   UNL     1     -45.274  60.577 -50.282  1.00  0.00     0.142 A 
HETATM   14  O   UNL     1     -46.463  61.247 -50.121  1.00  0.00    -0.317 OA
HETATM   15  C   UNL     1     -46.154  62.518 -49.750  1.00  0.00     0.143 A 
HETATM   16  C   UNL     1     -44.797  62.657 -49.586  1.00  0.00     0.027 A 
HETATM   17  C   UNL     1     -44.231  61.401 -49.904  1.00  0.00     0.045 A 
ENDBRANCH  10  13
ENDBRANCH   8   9
ENDBRANCH   1   2
BRANCH   1  18
HETATM   18  N   UNL     1     -42.821  56.989 -53.516  1.00  0.00    -0.056 N 
HETATM   19  H   UNL     1     -43.847  56.998 -53.562  1.00  0.00     0.281 HD
HETATM   20  C   UNL     1     -42.381  56.119 -54.683  1.00  0.00     0.256 C 
HETATM   21  C   UNL     1     -42.991  54.696 -54.571  1.00  0.00     0.152 C 
HETATM   22  N   UNL     1     -42.690  54.080 -53.256  1.00  0.00    -0.364 N 
HETATM   23  C   UNL     1     -43.080  54.921 -52.095  1.00  0.00     0.152 C 
HETATM   24  C   UNL     1     -42.474  56.346 -52.173  1.00  0.00     0.256 C 
BRANCH  22  25
HETATM   25  C   UNL     1     -41.607  53.220 -53.158  1.00  0.00     0.102 A 
HETATM   26  N   UNL     1     -41.297  52.451 -54.220  1.00  0.00    -0.352 N 
HETATM   27  H   UNL     1     -41.909  52.496 -55.030  1.00  0.00     0.166 HD
HETATM   28  C   UNL     1     -40.284  51.570 -54.244  1.00  0.00     0.089 A 
HETATM   29  C   UNL     1     -39.489  51.394 -53.125  1.00  0.00     0.017 A 
HETATM   30  C   UNL     1     -39.776  52.129 -51.987  1.00  0.00     0.005 A 
HETATM   31  C   UNL     1     -40.837  53.035 -51.999  1.00  0.00     0.048 A 
ENDBRANCH  22  25
ENDBRANCH   1  18
BRANCH   1  32
HETATM   32  C   UNL     1     -41.481  58.931 -52.486  1.00  0.00    -0.005 A 
HETATM   33  C   UNL     1     -40.119  58.959 -52.805  1.00  0.00     0.125 A 
HETATM   34  N   UNL     1     -39.130  59.267 -51.946  1.00  0.00    -0.273 NA
HETATM   35  C   UNL     1     -39.486  59.640 -50.702  1.00  0.00     0.116 A 
HETATM   36  C   UNL     1     -40.799  59.690 -50.281  1.00  0.00     0.020 A 
HETATM   37  C   UNL     1     -41.805  59.331 -51.182  1.00  0.00     0.012 A 
ENDBRANCH   1  32
TORSDOF 6
ENDMDL
MODEL 5
REMARK VINA RESULT:      -7.9      2.291      4.003
REMARK  6 active torsions:
REMARK  status: ('A' for Active; 'I' for Inactive)
REMARK    1  A    between atoms: C_3  and  C_4 
REMARK    2  A    between atoms: C_4  and  N_5 
REMARK    3  A    between atoms: C_4  and  C_19 
REMARK    4  A    between atoms: N_9  and  C_10 
REMARK    5  A    between atoms: C_25  and  N_26 
REMARK       I    between atoms: N_26  and  C_27 
REMARK    6  A    between atoms: C_27  and  C_28 
ROOT
HETATM    1  C   UNL     1     -41.756  57.462 -54.310  1.00  0.00     0.259 C 
ENDROOT
BRANCH   1   2
HETATM    2  C   UNL     1     -43.060  58.158 -54.673  1.00  0.00     0.018 A 
HETATM    3  C   UNL     1     -43.143  59.133 -55.772  1.00  0.00    -0.038 A 
HETATM    4  C   UNL     1     -41.973  59.613 -56.586  1.00  0.00     0.050 C 
HETATM    5  C   UNL     1     -44.441  59.574 -55.979  1.00  0.00    -0.013 A 
HETATM    6  S   UNL     1     -45.528  58.899 -54.866  1.00  0.00    -0.076 SA
HETATM    7  C   UNL     1     -44.949  60.549 -56.996  1.00  0.00     0.057 C 
HETATM    8  C   UNL     1     -44.324  57.964 -54.124  1.00  0.00     0.086 A 
BRANCH   8   9
HETATM    9  N   UNL     1     -44.667  57.262 -52.988  1.00  0.00    -0.315 N 
HETATM   10  C   UNL     1     -44.757  57.692 -51.674  1.00  0.00     0.280 C 
HETATM   11  O   UNL     1     -44.813  56.800 -50.824  1.00  0.00    -0.265 OA
HETATM   12  H   UNL     1     -44.675  56.253 -53.046  1.00  0.00     0.170 HD
BRANCH  10  13
HETATM   13  C   UNL     1     -44.963  59.086 -51.347  1.00  0.00     0.142 A 
HETATM   14  O   UNL     1     -43.888  59.924 -51.172  1.00  0.00    -0.317 OA
HETATM   15  C   UNL     1     -44.388  61.150 -50.859  1.00  0.00     0.143 A 
HETATM   16  C   UNL     1     -45.761  61.139 -50.911  1.00  0.00     0.027 A 
HETATM   17  C   UNL     1     -46.132  59.818 -51.250  1.00  0.00     0.045 A 
ENDBRANCH  10  13
ENDBRANCH   8   9
ENDBRANCH   1   2
BRANCH   1  18
HETATM   18  N   UNL     1     -41.587  55.979 -54.691  1.00  0.00    -0.056 N 
HETATM   19  H   UNL     1     -41.930  55.941 -55.658  1.00  0.00     0.281 HD
HETATM   20  C   UNL     1     -40.171  55.429 -54.751  1.00  0.00     0.256 C 
HETATM   21  C   UNL     1     -40.163  53.987 -55.326  1.00  0.00     0.152 C 
HETATM   22  N   UNL     1     -41.086  53.100 -54.576  1.00  0.00    -0.364 N 
HETATM   23  C   UNL     1     -42.472  53.626 -54.472  1.00  0.00     0.152 C 
HETATM   24  C   UNL     1     -42.512  55.062 -53.889  1.00  0.00     0.256 C 
BRANCH  22  25
HETATM   25  C   UNL     1     -40.569  52.303 -53.566  1.00  0.00     0.102 A 
HETATM   26  N   UNL     1     -40.483  52.816 -52.323  1.00  0.00    -0.352 N 
HETATM   27  H   UNL     1     -40.750  53.788 -52.193  1.00  0.00     0.166 HD
HETATM   28  C   UNL     1     -39.988  52.152 -51.266  1.00  0.00     0.089 A 
HETATM   29  C   UNL     1     -39.510  50.862 -51.416  1.00  0.00     0.017 A 
HETATM   30  C   UNL     1     -39.537  50.289 -52.678  1.00  0.00     0.005 A 
HETATM   31  C   UNL     1     -40.059  51.009 -53.753  1.00  0.00     0.048 A 
ENDBRANCH  22  25
ENDBRANCH   1  18
BRANCH   1  32
HETATM   32  C   UNL     1     -41.329  57.807 -52.896  1.00  0.00    -0.005 A 
HETATM   33  C   UNL     1     -40.866  59.105 -52.656  1.00  0.00     0.125 A 
HETATM   34  N   UNL     1     -40.389  59.551 -51.479  1.00  0.00    -0.273 NA
HETATM   35  C   UNL     1     -40.422  58.698 -50.436  1.00  0.00     0.116 A 
HETATM   36  C   UNL     1     -40.893  57.405 -50.540  1.00  0.00     0.020 A 
HETATM   37  C   UNL     1     -41.349  56.956 -51.782  1.00  0.00     0.012 A 
ENDBRANCH   1  32
TORSDOF 6
ENDMDL
MODEL 6
REMARK VINA RESULT:      -7.4      3.309      7.487
REMARK  6 active torsions:
REMARK  status: ('A' for Active; 'I' for Inactive)
REMARK    1  A    between atoms: C_3  and  C_4 
REMARK    2  A    between atoms: C_4  and  N_5 
REMARK    3  A    between atoms: C_4  and  C_19 
REMARK    4  A    between atoms: N_9  and  C_10 
REMARK    5  A    between atoms: C_25  and  N_26 
REMARK       I    between atoms: N_26  and  C_27 
REMARK    6  A    between atoms: C_27  and  C_28 
ROOT
HETATM    1  C   UNL     1     -43.075  58.243 -52.891  1.00  0.00     0.259 C 
ENDROOT
BRANCH   1   2
HETATM    2  C   UNL     1     -42.696  56.978 -52.134  1.00  0.00     0.018 A 
HETATM    3  C   UNL     1     -41.858  57.015 -50.927  1.00  0.00    -0.038 A 
HETATM    4  C   UNL     1     -41.218  58.253 -50.360  1.00  0.00     0.050 C 
HETATM    5  C   UNL     1     -41.713  55.760 -50.356  1.00  0.00    -0.013 A 
HETATM    6  S   UNL     1     -42.499  54.556 -51.256  1.00  0.00    -0.076 SA
HETATM    7  C   UNL     1     -40.954  55.372 -49.123  1.00  0.00     0.057 C 
HETATM    8  C   UNL     1     -43.098  55.670 -52.385  1.00  0.00     0.086 A 
BRANCH   8   9
HETATM    9  N   UNL     1     -43.756  55.170 -53.489  1.00  0.00    -0.315 N 
HETATM   10  C   UNL     1     -43.247  54.541 -54.614  1.00  0.00     0.280 C 
HETATM   11  O   UNL     1     -44.022  54.447 -55.568  1.00  0.00    -0.265 OA
HETATM   12  H   UNL     1     -44.717  55.451 -53.628  1.00  0.00     0.170 HD
BRANCH  10  13
HETATM   13  C   UNL     1     -41.963  53.875 -54.591  1.00  0.00     0.142 A 
HETATM   14  O   UNL     1     -41.872  52.554 -54.225  1.00  0.00    -0.317 OA
HETATM   15  C   UNL     1     -40.556  52.216 -54.280  1.00  0.00     0.143 A 
HETATM   16  C   UNL     1     -39.808  53.266 -54.755  1.00  0.00     0.027 A 
HETATM   17  C   UNL     1     -40.715  54.327 -54.980  1.00  0.00     0.045 A 
ENDBRANCH  10  13
ENDBRANCH   8   9
ENDBRANCH   1   2
BRANCH   1  18
HETATM   18  N   UNL     1     -44.256  59.083 -52.369  1.00  0.00    -0.056 N 
HETATM   19  H   UNL     1     -44.928  59.059 -53.145  1.00  0.00     0.281 HD
HETATM   20  C   UNL     1     -45.020  58.548 -51.169  1.00  0.00     0.256 C 
HETATM   21  C   UNL     1     -46.282  59.408 -50.889  1.00  0.00     0.152 C 
HETATM   22  N   UNL     1     -45.938  60.843 -50.749  1.00  0.00    -0.364 N 
HETATM   23  C   UNL     1     -45.162  61.389 -51.893  1.00  0.00     0.152 C 
HETATM   24  C   UNL     1     -43.889  60.557 -52.189  1.00  0.00     0.256 C 
BRANCH  22  25
HETATM   25  C   UNL     1     -45.755  61.363 -49.476  1.00  0.00     0.102 A 
HETATM   26  N   UNL     1     -44.946  60.705 -48.623  1.00  0.00    -0.352 N 
HETATM   27  H   UNL     1     -44.548  59.823 -48.935  1.00  0.00     0.166 HD
HETATM   28  C   UNL     1     -44.700  61.096 -47.362  1.00  0.00     0.089 A 
HETATM   29  C   UNL     1     -45.306  62.233 -46.857  1.00  0.00     0.017 A 
HETATM   30  C   UNL     1     -46.179  62.936 -47.672  1.00  0.00     0.005 A 
HETATM   31  C   UNL     1     -46.409  62.500 -48.976  1.00  0.00     0.048 A 
ENDBRANCH  22  25
ENDBRANCH   1  18
BRANCH   1  32
HETATM   32  C   UNL     1     -43.082  58.002 -54.389  1.00  0.00    -0.005 A 
HETATM   33  C   UNL     1     -44.315  58.043 -55.048  1.00  0.00     0.125 A 
HETATM   34  N   UNL     1     -44.503  57.787 -56.356  1.00  0.00    -0.273 NA
HETATM   35  C   UNL     1     -43.407  57.536 -57.099  1.00  0.00     0.116 A 
HETATM   36  C   UNL     1     -42.133  57.508 -56.570  1.00  0.00     0.020 A 
HETATM   37  C   UNL     1     -41.970  57.742 -55.202  1.00  0.00     0.012 A 
ENDBRANCH   1  32
TORSDOF 6
ENDMDL
MODEL 7
REMARK VINA RESULT:      -7.4      2.500      5.596
REMARK  6 active torsions:
REMARK  status: ('A' for Active; 'I' for Inactive)
REMARK    1  A    between atoms: C_3  and  C_4 
REMARK    2  A    between atoms: C_4  and  N_5 
REMARK    3  A    between atoms: C_4  and  C_19 
REMARK    4  A    between atoms: N_9  and  C_10 
REMARK    5  A    between atoms: C_25  and  N_26 
REMARK       I    between atoms: N_26  and  C_27 
REMARK    6  A    between atoms: C_27  and  C_28 
ROOT
HETATM    1  C   UNL     1     -42.636  60.024 -55.360  1.00  0.00     0.259 C 
ENDROOT
BRANCH   1   2
HETATM    2  C   UNL     1     -42.673  58.948 -56.435  1.00  0.00     0.018 A 
HETATM    3  C   UNL     1     -42.126  59.173 -57.782  1.00  0.00    -0.038 A 
HETATM    4  C   UNL     1     -41.562  60.477 -58.275  1.00  0.00     0.050 C 
HETATM    5  C   UNL     1     -42.189  58.032 -58.566  1.00  0.00    -0.013 A 
HETATM    6  S   UNL     1     -42.931  56.741 -57.754  1.00  0.00    -0.076 SA
HETATM    7  C   UNL     1     -41.733  57.839 -59.980  1.00  0.00     0.057 C 
HETATM    8  C   UNL     1     -43.131  57.638 -56.329  1.00  0.00     0.086 A 
BRANCH   8   9
HETATM    9  N   UNL     1     -43.850  57.060 -55.305  1.00  0.00    -0.315 N 
HETATM   10  C   UNL     1     -43.689  55.827 -54.696  1.00  0.00     0.280 C 
HETATM   11  O   UNL     1     -44.635  55.447 -54.001  1.00  0.00    -0.265 OA
HETATM   12  H   UNL     1     -44.741  57.474 -55.067  1.00  0.00     0.170 HD
BRANCH  10  13
HETATM   13  C   UNL     1     -42.420  55.130 -54.723  1.00  0.00     0.142 A 
HETATM   14  O   UNL     1     -41.242  55.832 -54.644  1.00  0.00    -0.317 OA
HETATM   15  C   UNL     1     -40.233  54.922 -54.713  1.00  0.00     0.143 A 
HETATM   16  C   UNL     1     -40.737  53.644 -54.749  1.00  0.00     0.027 A 
HETATM   17  C   UNL     1     -42.145  53.775 -54.730  1.00  0.00     0.045 A 
ENDBRANCH  10  13
ENDBRANCH   8   9
ENDBRANCH   1   2
BRANCH   1  18
HETATM   18  N   UNL     1     -42.334  59.600 -53.909  1.00  0.00    -0.056 N 
HETATM   19  H   UNL     1     -42.046  60.477 -53.460  1.00  0.00     0.281 HD
HETATM   20  C   UNL     1     -43.496  59.090 -53.072  1.00  0.00     0.256 C 
HETATM   21  C   UNL     1     -43.064  58.886 -51.595  1.00  0.00     0.152 C 
HETATM   22  N   UNL     1     -41.868  58.016 -51.497  1.00  0.00    -0.364 N 
HETATM   23  C   UNL     1     -40.724  58.470 -52.329  1.00  0.00     0.152 C 
HETATM   24  C   UNL     1     -41.123  58.672 -53.814  1.00  0.00     0.256 C 
BRANCH  22  25
HETATM   25  C   UNL     1     -42.047  56.664 -51.243  1.00  0.00     0.102 A 
HETATM   26  N   UNL     1     -40.985  55.843 -51.353  1.00  0.00    -0.352 N 
HETATM   27  H   UNL     1     -40.108  56.245 -51.672  1.00  0.00     0.166 HD
HETATM   28  C   UNL     1     -41.032  54.516 -51.149  1.00  0.00     0.089 A 
HETATM   29  C   UNL     1     -42.229  53.906 -50.818  1.00  0.00     0.017 A 
HETATM   30  C   UNL     1     -43.368  54.690 -50.724  1.00  0.00     0.005 A 
HETATM   31  C   UNL     1     -43.281  56.065 -50.943  1.00  0.00     0.048 A 
ENDBRANCH  22  25
ENDBRANCH   1  18
BRANCH   1  32
HETATM   32  C   UNL     1     -43.798  60.987 -55.510  1.00  0.00    -0.005 A 
HETATM   33  C   UNL     1     -43.606  62.308 -55.088  1.00  0.00     0.125 A 
HETATM   34  N   UNL     1     -44.551  63.266 -55.092  1.00  0.00    -0.273 NA
HETATM   35  C   UNL     1     -45.756  62.943 -55.601  1.00  0.00     0.116 A 
HETATM   36  C   UNL     1     -46.053  61.685 -56.084  1.00  0.00     0.020 A 
HETATM   37  C   UNL     1     -45.064  60.698 -56.037  1.00  0.00     0.012 A 
ENDBRANCH   1  32
TORSDOF 6
ENDMDL
MODEL 8
REMARK VINA RESULT:      -7.3      2.963      4.854
REMARK  6 active torsions:
REMARK  status: ('A' for Active; 'I' for Inactive)
REMARK    1  A    between atoms: C_3  and  C_4 
REMARK    2  A    between atoms: C_4  and  N_5 
REMARK    3  A    between atoms: C_4  and  C_19 
REMARK    4  A    between atoms: N_9  and  C_10 
REMARK    5  A    between atoms: C_25  and  N_26 
REMARK       I    between atoms: N_26  and  C_27 
REMARK    6  A    between atoms: C_27  and  C_28 
ROOT
HETATM    1  C   UNL     1     -42.747  59.361 -56.486  1.00  0.00     0.259 C 
ENDROOT
BRANCH   1   2
HETATM    2  C   UNL     1     -43.183  59.906 -57.838  1.00  0.00     0.018 A 
HETATM    3  C   UNL     1     -42.306  60.759 -58.653  1.00  0.00    -0.038 A 
HETATM    4  C   UNL     1     -40.951  61.256 -58.228  1.00  0.00     0.050 C 
HETATM    5  C   UNL     1     -42.873  61.067 -59.880  1.00  0.00    -0.013 A 
HETATM    6  S   UNL     1     -44.430  60.414 -60.044  1.00  0.00    -0.076 SA
HETATM    7  C   UNL     1     -42.307  61.893 -60.995  1.00  0.00     0.057 C 
HETATM    8  C   UNL     1     -44.368  59.661 -58.526  1.00  0.00     0.086 A 
BRANCH   8   9
HETATM    9  N   UNL     1     -45.514  59.045 -58.070  1.00  0.00    -0.315 N 
HETATM   10  C   UNL     1     -46.116  57.871 -58.490  1.00  0.00     0.280 C 
HETATM   11  O   UNL     1     -47.274  57.697 -58.104  1.00  0.00    -0.265 OA
HETATM   12  H   UNL     1     -46.134  59.587 -57.483  1.00  0.00     0.170 HD
BRANCH  10  13
HETATM   13  C   UNL     1     -45.366  56.839 -59.174  1.00  0.00     0.142 A 
HETATM   14  O   UNL     1     -44.168  56.400 -58.664  1.00  0.00    -0.317 OA
HETATM   15  C   UNL     1     -43.695  55.456 -59.521  1.00  0.00     0.143 A 
HETATM   16  C   UNL     1     -44.601  55.218 -60.526  1.00  0.00     0.027 A 
HETATM   17  C   UNL     1     -45.689  56.090 -60.290  1.00  0.00     0.045 A 
ENDBRANCH  10  13
ENDBRANCH   8   9
ENDBRANCH   1   2
BRANCH   1  18
HETATM   18  N   UNL     1     -43.171  57.930 -56.102  1.00  0.00    -0.056 N 
HETATM   19  H   UNL     1     -43.692  57.607 -56.925  1.00  0.00     0.281 HD
HETATM   20  C   UNL     1     -42.068  56.903 -55.903  1.00  0.00     0.256 C 
HETATM   21  C   UNL     1     -42.666  55.483 -55.707  1.00  0.00     0.152 C 
HETATM   22  N   UNL     1     -43.665  55.463 -54.612  1.00  0.00    -0.364 N 
HETATM   23  C   UNL     1     -44.740  56.478 -54.761  1.00  0.00     0.152 C 
HETATM   24  C   UNL     1     -44.173  57.909 -54.947  1.00  0.00     0.256 C 
BRANCH  22  25
HETATM   25  C   UNL     1     -43.259  55.063 -53.348  1.00  0.00     0.102 A 
HETATM   26  N   UNL     1     -43.842  55.634 -52.275  1.00  0.00    -0.352 N 
HETATM   27  H   UNL     1     -44.515  56.377 -52.443  1.00  0.00     0.166 HD
HETATM   28  C   UNL     1     -43.526  55.345 -51.002  1.00  0.00     0.089 A 
HETATM   29  C   UNL     1     -42.537  54.418 -50.725  1.00  0.00     0.017 A 
HETATM   30  C   UNL     1     -41.874  53.820 -51.784  1.00  0.00     0.005 A 
HETATM   31  C   UNL     1     -42.228  54.145 -53.093  1.00  0.00     0.048 A 
ENDBRANCH  22  25
ENDBRANCH   1  18
BRANCH   1  32
HETATM   32  C   UNL     1     -42.940  60.394 -55.392  1.00  0.00    -0.005 A 
HETATM   33  C   UNL     1     -42.130  60.295 -54.255  1.00  0.00     0.125 A 
HETATM   34  N   UNL     1     -42.219  61.088 -53.171  1.00  0.00    -0.273 NA
HETATM   35  C   UNL     1     -43.112  62.095 -53.214  1.00  0.00     0.116 A 
HETATM   36  C   UNL     1     -43.939  62.319 -54.296  1.00  0.00     0.020 A 
HETATM   37  C   UNL     1     -43.852  61.459 -55.395  1.00  0.00     0.012 A 
ENDBRANCH   1  32
TORSDOF 6
ENDMDL
MODEL 9
REMARK VINA RESULT:      -7.3      2.929      5.563
REMARK  6 active torsions:
REMARK  status: ('A' for Active; 'I' for Inactive)
REMARK    1  A    between atoms: C_3  and  C_4 
REMARK    2  A    between atoms: C_4  and  N_5 
REMARK    3  A    between atoms: C_4  and  C_19 
REMARK    4  A    between atoms: N_9  and  C_10 
REMARK    5  A    between atoms: C_25  and  N_26 
REMARK       I    between atoms: N_26  and  C_27 
REMARK    6  A    between atoms: C_27  and  C_28 
ROOT
HETATM    1  C   UNL     1     -43.749  57.091 -56.664  1.00  0.00     0.259 C 
ENDROOT
BRANCH   1   2
HETATM    2  C   UNL     1     -43.222  58.505 -56.861  1.00  0.00     0.018 A 
HETATM    3  C   UNL     1     -43.747  59.646 -56.097  1.00  0.00    -0.038 A 
HETATM    4  C   UNL     1     -44.892  59.576 -55.124  1.00  0.00     0.050 C 
HETATM    5  C   UNL     1     -43.064  60.819 -56.376  1.00  0.00    -0.013 A 
HETATM    6  S   UNL     1     -41.867  60.592 -57.556  1.00  0.00    -0.076 SA
HETATM    7  C   UNL     1     -43.277  62.188 -55.807  1.00  0.00     0.057 C 
HETATM    8  C   UNL     1     -42.183  58.931 -57.683  1.00  0.00     0.086 A 
BRANCH   8   9
HETATM    9  N   UNL     1     -41.523  58.227 -58.667  1.00  0.00    -0.315 N 
HETATM   10  C   UNL     1     -41.773  58.162 -60.028  1.00  0.00     0.280 C 
HETATM   11  O   UNL     1     -41.208  57.246 -60.631  1.00  0.00    -0.265 OA
HETATM   12  H   UNL     1     -40.887  57.498 -58.375  1.00  0.00     0.170 HD
BRANCH  10  13
HETATM   13  C   UNL     1     -42.492  59.213 -60.716  1.00  0.00     0.142 A 
HETATM   14  O   UNL     1     -43.866  59.218 -60.731  1.00  0.00    -0.317 OA
HETATM   15  C   UNL     1     -44.250  60.300 -61.460  1.00  0.00     0.143 A 
HETATM   16  C   UNL     1     -43.156  61.038 -61.843  1.00  0.00     0.027 A 
HETATM   17  C   UNL     1     -42.025  60.353 -61.343  1.00  0.00     0.045 A 
ENDBRANCH  10  13
ENDBRANCH   8   9
ENDBRANCH   1   2
BRANCH   1  18
HETATM   18  N   UNL     1     -42.922  56.114 -55.806  1.00  0.00    -0.056 N 
HETATM   19  H   UNL     1     -42.649  55.383 -56.474  1.00  0.00     0.281 HD
HETATM   20  C   UNL     1     -41.615  56.626 -55.224  1.00  0.00     0.256 C 
HETATM   21  C   UNL     1     -40.821  55.474 -54.551  1.00  0.00     0.152 C 
HETATM   22  N   UNL     1     -41.649  54.761 -53.548  1.00  0.00    -0.364 N 
HETATM   23  C   UNL     1     -42.949  54.275 -54.078  1.00  0.00     0.152 C 
HETATM   24  C   UNL     1     -43.770  55.408 -54.747  1.00  0.00     0.256 C 
BRANCH  22  25
HETATM   25  C   UNL     1     -41.535  55.122 -52.214  1.00  0.00     0.102 A 
HETATM   26  N   UNL     1     -41.741  54.179 -51.273  1.00  0.00    -0.352 N 
HETATM   27  H   UNL     1     -42.027  53.255 -51.585  1.00  0.00     0.166 HD
HETATM   28  C   UNL     1     -41.676  54.406 -49.951  1.00  0.00     0.089 A 
HETATM   29  C   UNL     1     -41.397  55.675 -49.476  1.00  0.00     0.017 A 
HETATM   30  C   UNL     1     -41.210  56.698 -50.391  1.00  0.00     0.005 A 
HETATM   31  C   UNL     1     -41.285  56.426 -51.757  1.00  0.00     0.048 A 
ENDBRANCH  22  25
ENDBRANCH   1  18
BRANCH   1  32
HETATM   32  C   UNL     1     -44.261  56.512 -57.969  1.00  0.00    -0.005 A 
HETATM   33  C   UNL     1     -45.343  57.151 -58.583  1.00  0.00     0.125 A 
HETATM   34  N   UNL     1     -45.957  56.729 -59.704  1.00  0.00    -0.273 NA
HETATM   35  C   UNL     1     -45.446  55.643 -60.316  1.00  0.00     0.116 A 
HETATM   36  C   UNL     1     -44.355  54.951 -59.828  1.00  0.00     0.020 A 
HETATM   37  C   UNL     1     -43.759  55.390 -58.643  1.00  0.00     0.012 A 
ENDBRANCH   1  32
TORSDOF 6
ENDMDL
MODEL 10
REMARK VINA RESULT:      -7.3      2.634      4.848
REMARK  6 active torsions:
REMARK  status: ('A' for Active; 'I' for Inactive)
REMARK    1  A    between atoms: C_3  and  C_4 
REMARK    2  A    between atoms: C_4  and  N_5 
REMARK    3  A    between atoms: C_4  and  C_19 
REMARK    4  A    between atoms: N_9  and  C_10 
REMARK    5  A    between atoms: C_25  and  N_26 
REMARK       I    between atoms: N_26  and  C_27 
REMARK    6  A    between atoms: C_27  and  C_28 
ROOT
HETATM    1  C   UNL     1     -44.320  57.339 -56.684  1.00  0.00     0.259 C 
ENDROOT
BRANCH   1   2
HETATM    2  C   UNL     1     -45.161  58.607 -56.731  1.00  0.00     0.018 A 
HETATM    3  C   UNL     1     -46.295  58.755 -57.655  1.00  0.00    -0.038 A 
HETATM    4  C   UNL     1     -46.696  57.745 -58.694  1.00  0.00     0.050 C 
HETATM    5  C   UNL     1     -46.968  59.952 -57.465  1.00  0.00    -0.013 A 
HETATM    6  S   UNL     1     -46.244  60.906 -56.264  1.00  0.00    -0.076 SA
HETATM    7  C   UNL     1     -48.172  60.477 -58.186  1.00  0.00     0.057 C 
HETATM    8  C   UNL     1     -45.063  59.737 -55.925  1.00  0.00     0.086 A 
BRANCH   8   9
HETATM    9  N   UNL     1     -44.061  60.077 -55.042  1.00  0.00    -0.315 N 
HETATM   10  C   UNL     1     -42.796  60.584 -55.289  1.00  0.00     0.280 C 
HETATM   11  O   UNL     1     -42.007  60.536 -54.342  1.00  0.00    -0.265 OA
HETATM   12  H   UNL     1     -44.146  59.748 -54.089  1.00  0.00     0.170 HD
BRANCH  10  13
HETATM   13  C   UNL     1     -42.491  61.292 -56.513  1.00  0.00     0.142 A 
HETATM   14  O   UNL     1     -43.080  62.506 -56.778  1.00  0.00    -0.317 OA
HETATM   15  C   UNL     1     -42.621  62.912 -57.992  1.00  0.00     0.143 A 
HETATM   16  C   UNL     1     -41.687  62.029 -58.476  1.00  0.00     0.027 A 
HETATM   17  C   UNL     1     -41.583  60.998 -57.514  1.00  0.00     0.045 A 
ENDBRANCH  10  13
ENDBRANCH   8   9
ENDBRANCH   1   2
BRANCH   1  18
HETATM   18  N   UNL     1     -43.565  57.008 -55.382  1.00  0.00    -0.056 N 
HETATM   19  H   UNL     1     -43.714  57.842 -54.802  1.00  0.00     0.281 HD
HETATM   20  C   UNL     1     -44.084  55.848 -54.547  1.00  0.00     0.256 C 
HETATM   21  C   UNL     1     -43.336  55.767 -53.189  1.00  0.00     0.152 C 
HETATM   22  N   UNL     1     -41.867  55.715 -53.383  1.00  0.00    -0.364 N 
HETATM   23  C   UNL     1     -41.333  56.819 -54.222  1.00  0.00     0.152 C 
HETATM   24  C   UNL     1     -42.053  56.917 -55.592  1.00  0.00     0.256 C 
BRANCH  22  25
HETATM   25  C   UNL     1     -41.239  54.479 -53.381  1.00  0.00     0.102 A 
HETATM   26  N   UNL     1     -40.878  53.944 -52.198  1.00  0.00    -0.352 N 
HETATM   27  H   UNL     1     -41.033  54.499 -51.361  1.00  0.00     0.166 HD
HETATM   28  C   UNL     1     -40.251  52.763 -52.064  1.00  0.00     0.089 A 
HETATM   29  C   UNL     1     -39.921  52.021 -53.184  1.00  0.00     0.017 A 
HETATM   30  C   UNL     1     -40.232  52.532 -54.434  1.00  0.00     0.005 A 
HETATM   31  C   UNL     1     -40.884  53.761 -54.534  1.00  0.00     0.048 A 
ENDBRANCH  22  25
ENDBRANCH   1  18
BRANCH   1  32
HETATM   32  C   UNL     1     -43.499  57.181 -57.950  1.00  0.00    -0.005 A 
HETATM   33  C   UNL     1     -43.536  55.941 -58.597  1.00  0.00     0.125 A 
HETATM   34  N   UNL     1     -42.818  55.616 -59.688  1.00  0.00    -0.273 NA
HETATM   35  C   UNL     1     -42.056  56.582 -60.236  1.00  0.00     0.116 A 
HETATM   36  C   UNL     1     -41.969  57.856 -59.712  1.00  0.00     0.020 A 
HETATM   37  C   UNL     1     -42.697  58.157 -58.557  1.00  0.00     0.012 A 
ENDBRANCH   1  32
TORSDOF 6
ENDMDL
