MODEL 1
REMARK VINA RESULT:      -9.1      0.000      0.000
REMARK  6 active torsions:
REMARK  status: ('A' for Active; 'I' for Inactive)
REMARK    1  A    between atoms: O_2  and  C_3 
REMARK    2  A    between atoms: C_5  and  O_6 
REMARK    3  A    between atoms: C_8  and  N_9 
REMARK       I    between atoms: N_9  and  C_10 
REMARK    4  A    between atoms: C_10  and  C_11 
REMARK    5  A    between atoms: C_11  and  N_12 
REMARK    6  A    between atoms: C_18  and  C_19 
ROOT
HETATM    1  N   UNL     1     -43.597  59.441 -51.231  1.00  0.00    -0.063 N 
HETATM    2  H   UNL     1     -43.680  59.529 -52.251  1.00  0.00     0.280 HD
HETATM    3  C   UNL     1     -42.138  59.205 -50.919  1.00  0.00     0.240 C 
HETATM    4  C   UNL     1     -41.659  57.985 -51.678  1.00  0.00     0.083 C 
HETATM    5  C   UNL     1     -42.509  56.747 -51.369  1.00  0.00     0.131 A 
HETATM    6  N   UNL     1     -42.112  55.713 -52.355  1.00  0.00    -0.251 NA
HETATM    7  C   UNL     1     -41.566  54.734 -51.683  1.00  0.00     0.132 A 
HETATM    8  C   UNL     1     -41.589  54.996 -50.194  1.00  0.00     0.272 A 
HETATM    9  O   UNL     1     -41.135  54.313 -49.311  1.00  0.00    -0.266 OA
HETATM   10  N   UNL     1     -42.219  56.198 -50.082  1.00  0.00    -0.327 N 
HETATM   11  C   UNL     1     -44.005  57.027 -51.554  1.00  0.00     0.083 C 
HETATM   12  C   UNL     1     -44.456  58.275 -50.809  1.00  0.00     0.240 C 
HETATM   13  H   UNL     1     -42.309  56.633 -49.170  1.00  0.00     0.165 HD
ENDROOT
BRANCH   1  14
HETATM   14  C   UNL     1     -44.090  60.813 -50.691  1.00  0.00     0.337 C 
BRANCH  14  15
HETATM   15  C   UNL     1     -45.607  60.973 -50.589  1.00  0.00     0.248 C 
HETATM   16  N   UNL     1     -46.210  61.540 -49.508  1.00  0.00    -0.323 N 
HETATM   17  H   UNL     1     -47.179  61.768 -49.715  1.00  0.00     0.169 HD
HETATM   18  O   UNL     1     -46.325  60.687 -51.556  1.00  0.00    -0.271 OA
BRANCH  16  19
HETATM   19  C   UNL     1     -45.802  61.848 -48.190  1.00  0.00     0.068 A 
HETATM   20  C   UNL     1     -45.816  60.987 -47.076  1.00  0.00     0.097 A 
HETATM   21  C   UNL     1     -45.410  61.473 -45.819  1.00  0.00     0.075 A 
HETATM   22  C   UNL     1     -45.046  62.809 -45.649  1.00  0.00     0.070 A 
HETATM   23  C   UNL     1     -45.038  63.660 -46.745  1.00  0.00     0.039 A 
HETATM   24  C   UNL     1     -45.428  63.189 -47.999  1.00  0.00     0.035 A 
BRANCH  20  25
HETATM   25  O   UNL     1     -46.286  59.714 -47.251  1.00  0.00    -0.354 OA
HETATM   26  C   UNL     1     -46.786  59.029 -46.102  1.00  0.00     0.210 C 
ENDBRANCH  20  25
BRANCH  22  27
HETATM   27  O   UNL     1     -44.655  63.368 -44.465  1.00  0.00    -0.356 OA
HETATM   28  C   UNL     1     -44.107  62.464 -43.510  1.00  0.00     0.210 C 
ENDBRANCH  22  27
ENDBRANCH  16  19
ENDBRANCH  14  15
ENDBRANCH   1  14
BRANCH   7  29
HETATM   29  C   UNL     1     -40.980  53.538 -52.318  1.00  0.00    -0.002 A 
HETATM   30  C   UNL     1     -41.385  53.213 -53.622  1.00  0.00     0.016 A 
HETATM   31  C   UNL     1     -40.845  52.102 -54.276  1.00  0.00     0.024 A 
HETATM   32  C   UNL     1     -39.904  51.308 -53.626  1.00  0.00     0.034 A 
HETATM   33 CL   UNL     1     -39.236  49.942 -54.429  1.00  0.00    -0.084 Cl
HETATM   34  C   UNL     1     -39.502  51.616 -52.327  1.00  0.00     0.024 A 
HETATM   35  C   UNL     1     -40.039  52.730 -51.672  1.00  0.00     0.016 A 
ENDBRANCH   7  29
TORSDOF 6
ENDMDL
MODEL 2
REMARK VINA RESULT:      -9.0      5.976      9.047
REMARK  6 active torsions:
REMARK  status: ('A' for Active; 'I' for Inactive)
REMARK    1  A    between atoms: O_2  and  C_3 
REMARK    2  A    between atoms: C_5  and  O_6 
REMARK    3  A    between atoms: C_8  and  N_9 
REMARK       I    between atoms: N_9  and  C_10 
REMARK    4  A    between atoms: C_10  and  C_11 
REMARK    5  A    between atoms: C_11  and  N_12 
REMARK    6  A    between atoms: C_18  and  C_19 
ROOT
HETATM    1  N   UNL     1     -42.010  58.976 -55.957  1.00  0.00    -0.063 N 
HETATM    2  H   UNL     1     -41.107  58.799 -56.416  1.00  0.00     0.280 HD
HETATM    3  C   UNL     1     -41.747  59.059 -54.472  1.00  0.00     0.240 C 
HETATM    4  C   UNL     1     -41.070  57.784 -54.015  1.00  0.00     0.083 C 
HETATM    5  C   UNL     1     -41.890  56.539 -54.375  1.00  0.00     0.131 A 
HETATM    6  N   UNL     1     -41.010  55.373 -54.117  1.00  0.00    -0.251 NA
HETATM    7  C   UNL     1     -41.559  54.686 -53.149  1.00  0.00     0.132 A 
HETATM    8  C   UNL     1     -42.868  55.295 -52.704  1.00  0.00     0.272 A 
HETATM    9  O   UNL     1     -43.596  54.930 -51.815  1.00  0.00    -0.266 OA
HETATM   10  N   UNL     1     -43.025  56.373 -53.522  1.00  0.00    -0.327 N 
HETATM   11  C   UNL     1     -42.274  56.522 -55.858  1.00  0.00     0.083 C 
HETATM   12  C   UNL     1     -42.922  57.826 -56.302  1.00  0.00     0.240 C 
HETATM   13  H   UNL     1     -43.813  56.996 -53.384  1.00  0.00     0.165 HD
ENDROOT
BRANCH   1  14
HETATM   14  C   UNL     1     -42.470  60.341 -56.542  1.00  0.00     0.337 C 
BRANCH  14  15
HETATM   15  C   UNL     1     -41.716  60.812 -57.785  1.00  0.00     0.248 C 
HETATM   16  N   UNL     1     -41.965  60.307 -59.024  1.00  0.00    -0.323 N 
HETATM   17  H   UNL     1     -41.545  60.892 -59.742  1.00  0.00     0.169 HD
HETATM   18  O   UNL     1     -40.926  61.761 -57.706  1.00  0.00    -0.271 OA
BRANCH  16  19
HETATM   19  C   UNL     1     -42.641  59.166 -59.516  1.00  0.00     0.068 A 
HETATM   20  C   UNL     1     -44.027  59.023 -59.717  1.00  0.00     0.097 A 
HETATM   21  C   UNL     1     -44.538  57.796 -60.178  1.00  0.00     0.075 A 
HETATM   22  C   UNL     1     -43.698  56.701 -60.386  1.00  0.00     0.070 A 
HETATM   23  C   UNL     1     -42.332  56.839 -60.180  1.00  0.00     0.039 A 
HETATM   24  C   UNL     1     -41.811  58.053 -59.734  1.00  0.00     0.035 A 
BRANCH  20  25
HETATM   25  O   UNL     1     -44.836  60.078 -59.396  1.00  0.00    -0.354 OA
HETATM   26  C   UNL     1     -45.731  59.916 -58.295  1.00  0.00     0.210 C 
ENDBRANCH  20  25
BRANCH  22  27
HETATM   27  O   UNL     1     -44.109  55.471 -60.815  1.00  0.00    -0.356 OA
HETATM   28  C   UNL     1     -45.139  54.863 -60.040  1.00  0.00     0.210 C 
ENDBRANCH  22  27
ENDBRANCH  16  19
ENDBRANCH  14  15
ENDBRANCH   1  14
BRANCH   7  29
HETATM   29  C   UNL     1     -40.947  53.482 -52.557  1.00  0.00    -0.002 A 
HETATM   30  C   UNL     1     -40.452  52.494 -53.424  1.00  0.00     0.016 A 
HETATM   31  C   UNL     1     -39.845  51.343 -52.914  1.00  0.00     0.024 A 
HETATM   32  C   UNL     1     -39.737  51.171 -51.536  1.00  0.00     0.034 A 
HETATM   33 CL   UNL     1     -38.988  49.757 -50.906  1.00  0.00    -0.084 Cl
HETATM   34  C   UNL     1     -40.233  52.141 -50.667  1.00  0.00     0.024 A 
HETATM   35  C   UNL     1     -40.838  53.297 -51.175  1.00  0.00     0.016 A 
ENDBRANCH   7  29
TORSDOF 6
ENDMDL
MODEL 3
REMARK VINA RESULT:      -8.9      1.337      1.927
REMARK  6 active torsions:
REMARK  status: ('A' for Active; 'I' for Inactive)
REMARK    1  A    between atoms: O_2  and  C_3 
REMARK    2  A    between atoms: C_5  and  O_6 
REMARK    3  A    between atoms: C_8  and  N_9 
REMARK       I    between atoms: N_9  and  C_10 
REMARK    4  A    between atoms: C_10  and  C_11 
REMARK    5  A    between atoms: C_11  and  N_12 
REMARK    6  A    between atoms: C_18  and  C_19 
ROOT
HETATM    1  N   UNL     1     -43.238  59.276 -50.661  1.00  0.00    -0.063 N 
HETATM    2  H   UNL     1     -43.365  58.797 -49.759  1.00  0.00     0.280 HD
HETATM    3  C   UNL     1     -43.980  58.472 -51.702  1.00  0.00     0.240 C 
HETATM    4  C   UNL     1     -43.466  57.047 -51.689  1.00  0.00     0.083 C 
HETATM    5  C   UNL     1     -41.948  56.984 -51.903  1.00  0.00     0.131 A 
HETATM    6  N   UNL     1     -41.545  55.587 -51.608  1.00  0.00    -0.251 NA
HETATM    7  C   UNL     1     -41.093  55.077 -52.724  1.00  0.00     0.132 A 
HETATM    8  C   UNL     1     -41.107  56.087 -53.848  1.00  0.00     0.272 A 
HETATM    9  O   UNL     1     -40.794  55.923 -55.000  1.00  0.00    -0.266 OA
HETATM   10  N   UNL     1     -41.583  57.222 -53.264  1.00  0.00    -0.327 N 
HETATM   11  C   UNL     1     -41.201  57.906 -50.934  1.00  0.00     0.083 C 
HETATM   12  C   UNL     1     -41.757  59.323 -50.939  1.00  0.00     0.240 C 
HETATM   13  H   UNL     1     -41.747  58.046 -53.831  1.00  0.00     0.165 HD
ENDROOT
BRANCH   1  14
HETATM   14  C   UNL     1     -43.881  60.674 -50.441  1.00  0.00     0.337 C 
BRANCH  14  15
HETATM   15  C   UNL     1     -45.408  60.692 -50.374  1.00  0.00     0.248 C 
HETATM   16  N   UNL     1     -46.085  61.207 -49.311  1.00  0.00    -0.323 N 
HETATM   17  H   UNL     1     -47.066  61.343 -49.541  1.00  0.00     0.169 HD
HETATM   18  O   UNL     1     -46.074  60.334 -51.353  1.00  0.00    -0.271 OA
BRANCH  16  19
HETATM   19  C   UNL     1     -45.738  61.560 -47.987  1.00  0.00     0.068 A 
HETATM   20  C   UNL     1     -45.806  60.739 -46.845  1.00  0.00     0.097 A 
HETATM   21  C   UNL     1     -45.457  61.268 -45.589  1.00  0.00     0.075 A 
HETATM   22  C   UNL     1     -45.098  62.608 -45.448  1.00  0.00     0.070 A 
HETATM   23  C   UNL     1     -45.038  63.421 -46.572  1.00  0.00     0.039 A 
HETATM   24  C   UNL     1     -45.371  62.907 -47.825  1.00  0.00     0.035 A 
BRANCH  20  25
HETATM   25  O   UNL     1     -46.270  59.461 -46.998  1.00  0.00    -0.354 OA
HETATM   26  C   UNL     1     -46.994  58.885 -45.910  1.00  0.00     0.210 C 
ENDBRANCH  20  25
BRANCH  22  27
HETATM   27  O   UNL     1     -44.761  63.208 -44.268  1.00  0.00    -0.356 OA
HETATM   28  C   UNL     1     -43.969  62.421 -43.383  1.00  0.00     0.210 C 
ENDBRANCH  22  27
ENDBRANCH  16  19
ENDBRANCH  14  15
ENDBRANCH   1  14
BRANCH   7  29
HETATM   29  C   UNL     1     -40.653  53.675 -52.857  1.00  0.00    -0.002 A 
HETATM   30  C   UNL     1     -40.086  53.047 -51.737  1.00  0.00     0.016 A 
HETATM   31  C   UNL     1     -39.670  51.714 -51.806  1.00  0.00     0.024 A 
HETATM   32  C   UNL     1     -39.815  51.006 -52.996  1.00  0.00     0.034 A 
HETATM   33 CL   UNL     1     -39.308  49.365 -53.082  1.00  0.00    -0.084 Cl
HETATM   34  C   UNL     1     -40.369  51.622 -54.117  1.00  0.00     0.024 A 
HETATM   35  C   UNL     1     -40.789  52.956 -54.049  1.00  0.00     0.016 A 
ENDBRANCH   7  29
TORSDOF 6
ENDMDL
MODEL 4
REMARK VINA RESULT:      -8.5      3.137      5.344
REMARK  6 active torsions:
REMARK  status: ('A' for Active; 'I' for Inactive)
REMARK    1  A    between atoms: O_2  and  C_3 
REMARK    2  A    between atoms: C_5  and  O_6 
REMARK    3  A    between atoms: C_8  and  N_9 
REMARK       I    between atoms: N_9  and  C_10 
REMARK    4  A    between atoms: C_10  and  C_11 
REMARK    5  A    between atoms: C_11  and  N_12 
REMARK    6  A    between atoms: C_18  and  C_19 
ROOT
HETATM    1  N   UNL     1     -42.656  59.717 -50.857  1.00  0.00    -0.063 N 
HETATM    2  H   UNL     1     -42.467  59.926 -51.845  1.00  0.00     0.280 HD
HETATM    3  C   UNL     1     -41.375  59.182 -50.260  1.00  0.00     0.240 C 
HETATM    4  C   UNL     1     -40.919  57.980 -51.062  1.00  0.00     0.083 C 
HETATM    5  C   UNL     1     -42.002  56.897 -51.138  1.00  0.00     0.131 A 
HETATM    6  N   UNL     1     -41.538  55.916 -52.149  1.00  0.00    -0.251 NA
HETATM    7  C   UNL     1     -41.336  54.787 -51.522  1.00  0.00     0.132 A 
HETATM    8  C   UNL     1     -41.687  54.891 -50.056  1.00  0.00     0.272 A 
HETATM    9  O   UNL     1     -41.580  54.047 -49.202  1.00  0.00    -0.266 OA
HETATM   10  N   UNL     1     -42.130  56.172 -49.913  1.00  0.00    -0.327 N 
HETATM   11  C   UNL     1     -43.342  57.469 -51.614  1.00  0.00     0.083 C 
HETATM   12  C   UNL     1     -43.763  58.694 -50.817  1.00  0.00     0.240 C 
HETATM   13  H   UNL     1     -42.375  56.518 -48.993  1.00  0.00     0.165 HD
ENDROOT
BRANCH   1  14
HETATM   14  C   UNL     1     -43.048  61.093 -50.248  1.00  0.00     0.337 C 
BRANCH  14  15
HETATM   15  C   UNL     1     -42.882  62.295 -51.177  1.00  0.00     0.248 C 
HETATM   16  N   UNL     1     -43.220  62.250 -52.495  1.00  0.00    -0.323 N 
HETATM   17  H   UNL     1     -43.260  63.187 -52.888  1.00  0.00     0.169 HD
HETATM   18  O   UNL     1     -42.537  63.390 -50.715  1.00  0.00    -0.271 OA
BRANCH  16  19
HETATM   19  C   UNL     1     -43.493  61.213 -53.416  1.00  0.00     0.068 A 
HETATM   20  C   UNL     1     -44.760  60.735 -53.802  1.00  0.00     0.097 A 
HETATM   21  C   UNL     1     -44.850  59.661 -54.706  1.00  0.00     0.075 A 
HETATM   22  C   UNL     1     -43.703  59.027 -55.185  1.00  0.00     0.070 A 
HETATM   23  C   UNL     1     -42.453  59.493 -54.800  1.00  0.00     0.039 A 
HETATM   24  C   UNL     1     -42.350  60.564 -53.912  1.00  0.00     0.035 A 
BRANCH  20  25
HETATM   25  O   UNL     1     -45.865  61.302 -53.228  1.00  0.00    -0.354 OA
HETATM   26  C   UNL     1     -46.486  60.601 -52.149  1.00  0.00     0.210 C 
ENDBRANCH  20  25
BRANCH  22  27
HETATM   27  O   UNL     1     -43.697  57.970 -56.050  1.00  0.00    -0.356 OA
HETATM   28  C   UNL     1     -42.675  57.994 -57.043  1.00  0.00     0.210 C 
ENDBRANCH  22  27
ENDBRANCH  16  19
ENDBRANCH  14  15
ENDBRANCH   1  14
BRANCH   7  29
HETATM   29  C   UNL     1     -40.804  53.576 -52.176  1.00  0.00    -0.002 A 
HETATM   30  C   UNL     1     -41.171  53.326 -53.508  1.00  0.00     0.016 A 
HETATM   31  C   UNL     1     -40.678  52.203 -54.179  1.00  0.00     0.024 A 
HETATM   32  C   UNL     1     -39.823  51.324 -53.520  1.00  0.00     0.034 A 
HETATM   33 CL   UNL     1     -39.214  49.943 -54.344  1.00  0.00    -0.084 Cl
HETATM   34  C   UNL     1     -39.461  51.558 -52.194  1.00  0.00     0.024 A 
HETATM   35  C   UNL     1     -39.950  52.684 -51.521  1.00  0.00     0.016 A 
ENDBRANCH   7  29
TORSDOF 6
ENDMDL
MODEL 5
REMARK VINA RESULT:      -8.3      5.665      9.328
REMARK  6 active torsions:
REMARK  status: ('A' for Active; 'I' for Inactive)
REMARK    1  A    between atoms: O_2  and  C_3 
REMARK    2  A    between atoms: C_5  and  O_6 
REMARK    3  A    between atoms: C_8  and  N_9 
REMARK       I    between atoms: N_9  and  C_10 
REMARK    4  A    between atoms: C_10  and  C_11 
REMARK    5  A    between atoms: C_11  and  N_12 
REMARK    6  A    between atoms: C_18  and  C_19 
ROOT
HETATM    1  N   UNL     1     -42.878  58.746 -52.433  1.00  0.00    -0.063 N 
HETATM    2  H   UNL     1     -42.745  59.721 -52.135  1.00  0.00     0.280 HD
HETATM    3  C   UNL     1     -41.595  58.302 -53.095  1.00  0.00     0.240 C 
HETATM    4  C   UNL     1     -41.269  59.249 -54.232  1.00  0.00     0.083 C 
HETATM    5  C   UNL     1     -42.419  59.351 -55.241  1.00  0.00     0.131 A 
HETATM    6  N   UNL     1     -42.087  60.485 -56.137  1.00  0.00    -0.251 NA
HETATM    7  C   UNL     1     -41.912  59.988 -57.333  1.00  0.00     0.132 A 
HETATM    8  C   UNL     1     -42.154  58.497 -57.361  1.00  0.00     0.272 A 
HETATM    9  O   UNL     1     -42.040  57.741 -58.293  1.00  0.00    -0.266 OA
HETATM   10  N   UNL     1     -42.507  58.197 -56.080  1.00  0.00    -0.327 N 
HETATM   11  C   UNL     1     -43.751  59.668 -54.552  1.00  0.00     0.083 C 
HETATM   12  C   UNL     1     -44.040  58.724 -53.393  1.00  0.00     0.240 C 
HETATM   13  H   UNL     1     -42.666  57.231 -55.817  1.00  0.00     0.165 HD
ENDROOT
BRANCH   1  14
HETATM   14  C   UNL     1     -43.142  57.977 -51.108  1.00  0.00     0.337 C 
BRANCH  14  15
HETATM   15  C   UNL     1     -44.296  56.975 -51.147  1.00  0.00     0.248 C 
HETATM   16  N   UNL     1     -44.097  55.640 -51.318  1.00  0.00    -0.323 N 
HETATM   17  H   UNL     1     -44.939  55.118 -51.088  1.00  0.00     0.169 HD
HETATM   18  O   UNL     1     -45.450  57.353 -50.907  1.00  0.00    -0.271 OA
BRANCH  16  19
HETATM   19  C   UNL     1     -43.014  54.844 -51.757  1.00  0.00     0.068 A 
HETATM   20  C   UNL     1     -42.726  54.463 -53.082  1.00  0.00     0.097 A 
HETATM   21  C   UNL     1     -41.622  53.628 -53.339  1.00  0.00     0.075 A 
HETATM   22  C   UNL     1     -40.842  53.128 -52.295  1.00  0.00     0.070 A 
HETATM   23  C   UNL     1     -41.131  53.497 -50.988  1.00  0.00     0.039 A 
HETATM   24  C   UNL     1     -42.215  54.332 -50.721  1.00  0.00     0.035 A 
BRANCH  20  25
HETATM   25  O   UNL     1     -43.575  54.877 -54.071  1.00  0.00    -0.354 OA
HETATM   26  C   UNL     1     -43.123  54.767 -55.422  1.00  0.00     0.210 C 
ENDBRANCH  20  25
BRANCH  22  27
HETATM   27  O   UNL     1     -39.767  52.301 -52.451  1.00  0.00    -0.356 OA
HETATM   28  C   UNL     1     -39.745  51.541 -53.656  1.00  0.00     0.210 C 
ENDBRANCH  22  27
ENDBRANCH  16  19
ENDBRANCH  14  15
ENDBRANCH   1  14
BRANCH   7  29
HETATM   29  C   UNL     1     -41.501  60.796 -58.498  1.00  0.00    -0.002 A 
HETATM   30  C   UNL     1     -42.106  60.530 -59.737  1.00  0.00     0.016 A 
HETATM   31  C   UNL     1     -41.767  61.279 -60.867  1.00  0.00     0.024 A 
HETATM   32  C   UNL     1     -40.817  62.292 -60.764  1.00  0.00     0.034 A 
HETATM   33 CL   UNL     1     -40.400  63.217 -62.152  1.00  0.00    -0.084 Cl
HETATM   34  C   UNL     1     -40.204  62.559 -59.541  1.00  0.00     0.024 A 
HETATM   35  C   UNL     1     -40.545  61.812 -58.407  1.00  0.00     0.016 A 
ENDBRANCH   7  29
TORSDOF 6
ENDMDL
MODEL 6
REMARK VINA RESULT:      -8.3      3.251      5.641
REMARK  6 active torsions:
REMARK  status: ('A' for Active; 'I' for Inactive)
REMARK    1  A    between atoms: O_2  and  C_3 
REMARK    2  A    between atoms: C_5  and  O_6 
REMARK    3  A    between atoms: C_8  and  N_9 
REMARK       I    between atoms: N_9  and  C_10 
REMARK    4  A    between atoms: C_10  and  C_11 
REMARK    5  A    between atoms: C_11  and  N_12 
REMARK    6  A    between atoms: C_18  and  C_19 
ROOT
HETATM    1  N   UNL     1     -43.210  59.298 -50.580  1.00  0.00    -0.063 N 
HETATM    2  H   UNL     1     -43.249  58.825 -49.668  1.00  0.00     0.280 HD
HETATM    3  C   UNL     1     -44.021  58.470 -51.548  1.00  0.00     0.240 C 
HETATM    4  C   UNL     1     -43.477  57.057 -51.570  1.00  0.00     0.083 C 
HETATM    5  C   UNL     1     -41.983  57.024 -51.912  1.00  0.00     0.131 A 
HETATM    6  N   UNL     1     -41.525  55.638 -51.644  1.00  0.00    -0.251 NA
HETATM    7  C   UNL     1     -41.160  55.128 -52.790  1.00  0.00     0.132 A 
HETATM    8  C   UNL     1     -41.291  56.127 -53.916  1.00  0.00     0.272 A 
HETATM    9  O   UNL     1     -41.074  55.960 -55.089  1.00  0.00    -0.266 OA
HETATM   10  N   UNL     1     -41.740  57.257 -53.301  1.00  0.00    -0.327 N 
HETATM   11  C   UNL     1     -41.175  57.970 -51.017  1.00  0.00     0.083 C 
HETATM   12  C   UNL     1     -41.760  59.374 -50.985  1.00  0.00     0.240 C 
HETATM   13  H   UNL     1     -41.970  58.072 -53.858  1.00  0.00     0.165 HD
ENDROOT
BRANCH   1  14
HETATM   14  C   UNL     1     -43.863  60.684 -50.315  1.00  0.00     0.337 C 
BRANCH  14  15
HETATM   15  C   UNL     1     -43.141  61.881 -50.936  1.00  0.00     0.248 C 
HETATM   16  N   UNL     1     -43.247  62.191 -52.257  1.00  0.00    -0.323 N 
HETATM   17  H   UNL     1     -42.897  63.129 -52.435  1.00  0.00     0.169 HD
HETATM   18  O   UNL     1     -42.523  62.672 -50.213  1.00  0.00    -0.271 OA
BRANCH  16  19
HETATM   19  C   UNL     1     -43.701  61.505 -53.406  1.00  0.00     0.068 A 
HETATM   20  C   UNL     1     -45.037  61.333 -53.818  1.00  0.00     0.097 A 
HETATM   21  C   UNL     1     -45.315  60.582 -54.975  1.00  0.00     0.075 A 
HETATM   22  C   UNL     1     -44.291  59.958 -55.689  1.00  0.00     0.070 A 
HETATM   23  C   UNL     1     -42.975  60.120 -55.279  1.00  0.00     0.039 A 
HETATM   24  C   UNL     1     -42.685  60.871 -54.141  1.00  0.00     0.035 A 
BRANCH  20  25
HETATM   25  O   UNL     1     -46.025  61.862 -53.034  1.00  0.00    -0.354 OA
HETATM   26  C   UNL     1     -46.818  60.955 -52.267  1.00  0.00     0.210 C 
ENDBRANCH  20  25
BRANCH  22  27
HETATM   27  O   UNL     1     -44.471  59.198 -56.810  1.00  0.00    -0.356 OA
HETATM   28  C   UNL     1     -44.432  57.788 -56.609  1.00  0.00     0.210 C 
ENDBRANCH  22  27
ENDBRANCH  16  19
ENDBRANCH  14  15
ENDBRANCH   1  14
BRANCH   7  29
HETATM   29  C   UNL     1     -40.702  53.734 -52.951  1.00  0.00    -0.002 A 
HETATM   30  C   UNL     1     -40.120  53.094 -51.845  1.00  0.00     0.016 A 
HETATM   31  C   UNL     1     -39.689  51.768 -51.940  1.00  0.00     0.024 A 
HETATM   32  C   UNL     1     -39.831  51.079 -53.142  1.00  0.00     0.034 A 
HETATM   33 CL   UNL     1     -39.303  49.447 -53.260  1.00  0.00    -0.084 Cl
HETATM   34  C   UNL     1     -40.399  51.708 -54.249  1.00  0.00     0.024 A 
HETATM   35  C   UNL     1     -40.835  53.035 -54.155  1.00  0.00     0.016 A 
ENDBRANCH   7  29
TORSDOF 6
ENDMDL
MODEL 7
REMARK VINA RESULT:      -8.3      6.042      8.497
REMARK  6 active torsions:
REMARK  status: ('A' for Active; 'I' for Inactive)
REMARK    1  A    between atoms: O_2  and  C_3 
REMARK    2  A    between atoms: C_5  and  O_6 
REMARK    3  A    between atoms: C_8  and  N_9 
REMARK       I    between atoms: N_9  and  C_10 
REMARK    4  A    between atoms: C_10  and  C_11 
REMARK    5  A    between atoms: C_11  and  N_12 
REMARK    6  A    between atoms: C_18  and  C_19 
ROOT
HETATM    1  N   UNL     1     -43.465  58.877 -54.487  1.00  0.00    -0.063 N 
HETATM    2  H   UNL     1     -43.769  58.936 -53.506  1.00  0.00     0.280 HD
HETATM    3  C   UNL     1     -43.992  57.574 -55.040  1.00  0.00     0.240 C 
HETATM    4  C   UNL     1     -43.497  56.432 -54.179  1.00  0.00     0.083 C 
HETATM    5  C   UNL     1     -41.967  56.420 -54.067  1.00  0.00     0.131 A 
HETATM    6  N   UNL     1     -41.636  55.438 -53.005  1.00  0.00    -0.251 NA
HETATM    7  C   UNL     1     -40.976  54.465 -53.577  1.00  0.00     0.132 A 
HETATM    8  C   UNL     1     -40.765  54.723 -55.051  1.00  0.00     0.272 A 
HETATM    9  O   UNL     1     -40.232  54.009 -55.863  1.00  0.00    -0.266 OA
HETATM   10  N   UNL     1     -41.341  55.940 -55.258  1.00  0.00    -0.327 N 
HETATM   11  C   UNL     1     -41.420  57.785 -53.635  1.00  0.00     0.083 C 
HETATM   12  C   UNL     1     -41.958  58.920 -54.494  1.00  0.00     0.240 C 
HETATM   13  H   UNL     1     -41.386  56.319 -56.197  1.00  0.00     0.165 HD
ENDROOT
BRANCH   1  14
HETATM   14  C   UNL     1     -44.133  60.107 -55.164  1.00  0.00     0.337 C 
BRANCH  14  15
HETATM   15  C   UNL     1     -43.333  60.749 -56.297  1.00  0.00     0.248 C 
HETATM   16  N   UNL     1     -43.301  60.227 -57.554  1.00  0.00    -0.323 N 
HETATM   17  H   UNL     1     -42.919  60.900 -58.213  1.00  0.00     0.169 HD
HETATM   18  O   UNL     1     -42.778  61.841 -56.120  1.00  0.00    -0.271 OA
BRANCH  16  19
HETATM   19  C   UNL     1     -43.649  58.980 -58.122  1.00  0.00     0.068 A 
HETATM   20  C   UNL     1     -44.945  58.512 -58.408  1.00  0.00     0.097 A 
HETATM   21  C   UNL     1     -45.115  57.219 -58.939  1.00  0.00     0.075 A 
HETATM   22  C   UNL     1     -44.021  56.375 -59.134  1.00  0.00     0.070 A 
HETATM   23  C   UNL     1     -42.743  56.833 -58.845  1.00  0.00     0.039 A 
HETATM   24  C   UNL     1     -42.561  58.115 -58.328  1.00  0.00     0.035 A 
BRANCH  20  25
HETATM   25  O   UNL     1     -46.005  59.320 -58.100  1.00  0.00    -0.354 OA
HETATM   26  C   UNL     1     -47.284  58.704 -57.941  1.00  0.00     0.210 C 
ENDBRANCH  20  25
BRANCH  22  27
HETATM   27  O   UNL     1     -44.094  55.103 -59.627  1.00  0.00    -0.356 OA
HETATM   28  C   UNL     1     -44.926  54.935 -60.773  1.00  0.00     0.210 C 
ENDBRANCH  22  27
ENDBRANCH  16  19
ENDBRANCH  14  15
ENDBRANCH   1  14
BRANCH   7  29
HETATM   29  C   UNL     1     -40.525  53.257 -52.861  1.00  0.00    -0.002 A 
HETATM   30  C   UNL     1     -40.590  53.253 -51.458  1.00  0.00     0.016 A 
HETATM   31  C   UNL     1     -40.193  52.126 -50.733  1.00  0.00     0.024 A 
HETATM   32  C   UNL     1     -39.723  51.002 -51.407  1.00  0.00     0.034 A 
HETATM   33 CL   UNL     1     -39.236  49.613 -50.517  1.00  0.00    -0.084 Cl
HETATM   34  C   UNL     1     -39.645  50.998 -52.799  1.00  0.00     0.024 A 
HETATM   35  C   UNL     1     -40.046  52.125 -53.527  1.00  0.00     0.016 A 
ENDBRANCH   7  29
TORSDOF 6
ENDMDL
MODEL 8
REMARK VINA RESULT:      -8.3      4.011      9.995
REMARK  6 active torsions:
REMARK  status: ('A' for Active; 'I' for Inactive)
REMARK    1  A    between atoms: O_2  and  C_3 
REMARK    2  A    between atoms: C_5  and  O_6 
REMARK    3  A    between atoms: C_8  and  N_9 
REMARK       I    between atoms: N_9  and  C_10 
REMARK    4  A    between atoms: C_10  and  C_11 
REMARK    5  A    between atoms: C_11  and  N_12 
REMARK    6  A    between atoms: C_18  and  C_19 
ROOT
HETATM    1  N   UNL     1     -42.662  57.578 -53.659  1.00  0.00    -0.063 N 
HETATM    2  H   UNL     1     -43.270  56.846 -53.272  1.00  0.00     0.280 HD
HETATM    3  C   UNL     1     -41.773  58.060 -52.537  1.00  0.00     0.240 C 
HETATM    4  C   UNL     1     -42.637  58.531 -51.385  1.00  0.00     0.083 C 
HETATM    5  C   UNL     1     -43.632  59.612 -51.821  1.00  0.00     0.131 A 
HETATM    6  N   UNL     1     -44.575  59.789 -50.689  1.00  0.00    -0.251 NA
HETATM    7  C   UNL     1     -44.410  61.006 -50.241  1.00  0.00     0.132 A 
HETATM    8  C   UNL     1     -43.385  61.766 -51.051  1.00  0.00     0.272 A 
HETATM    9  O   UNL     1     -42.980  62.888 -50.875  1.00  0.00    -0.266 OA
HETATM   10  N   UNL     1     -43.004  60.881 -52.013  1.00  0.00    -0.327 N 
HETATM   11  C   UNL     1     -44.443  59.176 -53.047  1.00  0.00     0.083 C 
HETATM   12  C   UNL     1     -43.555  58.677 -54.178  1.00  0.00     0.240 C 
HETATM   13  H   UNL     1     -42.266  61.133 -52.661  1.00  0.00     0.165 HD
ENDROOT
BRANCH   1  14
HETATM   14  C   UNL     1     -41.852  56.850 -54.768  1.00  0.00     0.337 C 
BRANCH  14  15
HETATM   15  C   UNL     1     -42.571  55.687 -55.452  1.00  0.00     0.248 C 
HETATM   16  N   UNL     1     -42.578  54.428 -54.936  1.00  0.00    -0.323 N 
HETATM   17  H   UNL     1     -43.284  53.856 -55.392  1.00  0.00     0.169 HD
HETATM   18  O   UNL     1     -43.270  55.896 -56.452  1.00  0.00    -0.271 OA
BRANCH  16  19
HETATM   19  C   UNL     1     -41.822  53.754 -53.949  1.00  0.00     0.068 A 
HETATM   20  C   UNL     1     -41.910  53.921 -52.554  1.00  0.00     0.097 A 
HETATM   21  C   UNL     1     -41.048  53.193 -51.713  1.00  0.00     0.075 A 
HETATM   22  C   UNL     1     -40.070  52.350 -52.243  1.00  0.00     0.070 A 
HETATM   23  C   UNL     1     -39.978  52.191 -53.619  1.00  0.00     0.039 A 
HETATM   24  C   UNL     1     -40.834  52.898 -54.463  1.00  0.00     0.035 A 
BRANCH  20  25
HETATM   25  O   UNL     1     -42.801  54.839 -52.070  1.00  0.00    -0.354 OA
HETATM   26  C   UNL     1     -43.520  54.502 -50.882  1.00  0.00     0.210 C 
ENDBRANCH  20  25
BRANCH  22  27
HETATM   27  O   UNL     1     -39.183  51.621 -51.504  1.00  0.00    -0.356 OA
HETATM   28  C   UNL     1     -39.487  50.235 -51.370  1.00  0.00     0.210 C 
ENDBRANCH  22  27
ENDBRANCH  16  19
ENDBRANCH  14  15
ENDBRANCH   1  14
BRANCH   7  29
HETATM   29  C   UNL     1     -45.125  61.545 -49.069  1.00  0.00    -0.002 A 
HETATM   30  C   UNL     1     -46.314  62.259 -49.287  1.00  0.00     0.016 A 
HETATM   31  C   UNL     1     -47.040  62.774 -48.209  1.00  0.00     0.024 A 
HETATM   32  C   UNL     1     -46.576  62.583 -46.910  1.00  0.00     0.034 A 
HETATM   33 CL   UNL     1     -47.468  63.213 -45.582  1.00  0.00    -0.084 Cl
HETATM   34  C   UNL     1     -45.391  61.885 -46.682  1.00  0.00     0.024 A 
HETATM   35  C   UNL     1     -44.665  61.365 -47.760  1.00  0.00     0.016 A 
ENDBRANCH   7  29
TORSDOF 6
ENDMDL
MODEL 9
REMARK VINA RESULT:      -8.2      3.459      6.061
REMARK  6 active torsions:
REMARK  status: ('A' for Active; 'I' for Inactive)
REMARK    1  A    between atoms: O_2  and  C_3 
REMARK    2  A    between atoms: C_5  and  O_6 
REMARK    3  A    between atoms: C_8  and  N_9 
REMARK       I    between atoms: N_9  and  C_10 
REMARK    4  A    between atoms: C_10  and  C_11 
REMARK    5  A    between atoms: C_11  and  N_12 
REMARK    6  A    between atoms: C_18  and  C_19 
ROOT
HETATM    1  N   UNL     1     -44.469  59.092 -51.887  1.00  0.00    -0.063 N 
HETATM    2  H   UNL     1     -44.890  58.840 -52.790  1.00  0.00     0.280 HD
HETATM    3  C   UNL     1     -42.977  59.181 -52.097  1.00  0.00     0.240 C 
HETATM    4  C   UNL     1     -42.475  57.866 -52.659  1.00  0.00     0.083 C 
HETATM    5  C   UNL     1     -42.849  56.680 -51.762  1.00  0.00     0.131 A 
HETATM    6  N   UNL     1     -42.540  55.456 -52.541  1.00  0.00    -0.251 NA
HETATM    7  C   UNL     1     -41.585  54.830 -51.905  1.00  0.00     0.132 A 
HETATM    8  C   UNL     1     -41.200  55.542 -50.629  1.00  0.00     0.272 A 
HETATM    9  O   UNL     1     -40.336  55.247 -49.843  1.00  0.00    -0.266 OA
HETATM   10  N   UNL     1     -42.040  56.614 -50.586  1.00  0.00    -0.327 N 
HETATM   11  C   UNL     1     -44.346  56.667 -51.435  1.00  0.00     0.083 C 
HETATM   12  C   UNL     1     -44.834  58.007 -50.904  1.00  0.00     0.240 C 
HETATM   13  H   UNL     1     -41.942  57.297 -49.842  1.00  0.00     0.165 HD
ENDROOT
BRANCH   1  14
HETATM   14  C   UNL     1     -45.091  60.477 -51.553  1.00  0.00     0.337 C 
BRANCH  14  15
HETATM   15  C   UNL     1     -46.204  60.943 -52.492  1.00  0.00     0.248 C 
HETATM   16  N   UNL     1     -46.186  60.683 -53.828  1.00  0.00    -0.323 N 
HETATM   17  H   UNL     1     -47.099  60.861 -54.241  1.00  0.00     0.169 HD
HETATM   18  O   UNL     1     -47.219  61.478 -52.030  1.00  0.00    -0.271 OA
BRANCH  16  19
HETATM   19  C   UNL     1     -45.199  60.257 -54.746  1.00  0.00     0.068 A 
HETATM   20  C   UNL     1     -44.155  61.032 -55.287  1.00  0.00     0.097 A 
HETATM   21  C   UNL     1     -43.278  60.456 -56.226  1.00  0.00     0.075 A 
HETATM   22  C   UNL     1     -43.461  59.145 -56.668  1.00  0.00     0.070 A 
HETATM   23  C   UNL     1     -44.494  58.383 -56.141  1.00  0.00     0.039 A 
HETATM   24  C   UNL     1     -45.364  58.939 -55.202  1.00  0.00     0.035 A 
BRANCH  20  25
HETATM   25  O   UNL     1     -44.070  62.346 -54.919  1.00  0.00    -0.354 OA
HETATM   26  C   UNL     1     -43.184  62.679 -53.849  1.00  0.00     0.210 C 
ENDBRANCH  20  25
BRANCH  22  27
HETATM   27  O   UNL     1     -42.671  58.513 -57.586  1.00  0.00    -0.356 OA
HETATM   28  C   UNL     1     -42.755  57.090 -57.593  1.00  0.00     0.210 C 
ENDBRANCH  22  27
ENDBRANCH  16  19
ENDBRANCH  14  15
ENDBRANCH   1  14
BRANCH   7  29
HETATM   29  C   UNL     1     -40.952  53.593 -52.402  1.00  0.00    -0.002 A 
HETATM   30  C   UNL     1     -41.182  53.219 -53.736  1.00  0.00     0.016 A 
HETATM   31  C   UNL     1     -40.590  52.066 -54.261  1.00  0.00     0.024 A 
HETATM   32  C   UNL     1     -39.772  51.281 -53.454  1.00  0.00     0.034 A 
HETATM   33 CL   UNL     1     -39.040  49.865 -54.098  1.00  0.00    -0.084 Cl
HETATM   34  C   UNL     1     -39.544  51.638 -52.126  1.00  0.00     0.024 A 
HETATM   35  C   UNL     1     -40.133  52.794 -51.598  1.00  0.00     0.016 A 
ENDBRANCH   7  29
TORSDOF 6
ENDMDL
MODEL 10
REMARK VINA RESULT:      -8.1      4.428      6.924
REMARK  6 active torsions:
REMARK  status: ('A' for Active; 'I' for Inactive)
REMARK    1  A    between atoms: O_2  and  C_3 
REMARK    2  A    between atoms: C_5  and  O_6 
REMARK    3  A    between atoms: C_8  and  N_9 
REMARK       I    between atoms: N_9  and  C_10 
REMARK    4  A    between atoms: C_10  and  C_11 
REMARK    5  A    between atoms: C_11  and  N_12 
REMARK    6  A    between atoms: C_18  and  C_19 
ROOT
HETATM    1  N   UNL     1     -42.768  59.778 -53.282  1.00  0.00    -0.063 N 
HETATM    2  H   UNL     1     -42.834  59.605 -54.294  1.00  0.00     0.280 HD
HETATM    3  C   UNL     1     -41.339  59.508 -52.874  1.00  0.00     0.240 C 
HETATM    4  C   UNL     1     -40.966  58.097 -53.277  1.00  0.00     0.083 C 
HETATM    5  C   UNL     1     -41.927  57.059 -52.686  1.00  0.00     0.131 A 
HETATM    6  N   UNL     1     -41.616  55.774 -53.358  1.00  0.00    -0.251 NA
HETATM    7  C   UNL     1     -41.167  54.960 -52.439  1.00  0.00     0.132 A 
HETATM    8  C   UNL     1     -41.179  55.601 -51.070  1.00  0.00     0.272 A 
HETATM    9  O   UNL     1     -40.797  55.135 -50.027  1.00  0.00    -0.266 OA
HETATM   10  N   UNL     1     -41.699  56.840 -51.292  1.00  0.00    -0.327 N 
HETATM   11  C   UNL     1     -43.390  57.406 -52.985  1.00  0.00     0.083 C 
HETATM   12  C   UNL     1     -43.732  58.839 -52.603  1.00  0.00     0.240 C 
HETATM   13  H   UNL     1     -41.757  57.503 -50.527  1.00  0.00     0.165 HD
ENDROOT
BRANCH   1  14
HETATM   14  C   UNL     1     -43.141  61.280 -53.131  1.00  0.00     0.337 C 
BRANCH  14  15
HETATM   15  C   UNL     1     -44.370  61.735 -53.917  1.00  0.00     0.248 C 
HETATM   16  N   UNL     1     -44.410  61.730 -55.277  1.00  0.00    -0.323 N 
HETATM   17  H   UNL     1     -45.364  61.840 -55.610  1.00  0.00     0.169 HD
HETATM   18  O   UNL     1     -45.416  62.018 -53.318  1.00  0.00    -0.271 OA
BRANCH  16  19
HETATM   19  C   UNL     1     -43.438  61.632 -56.300  1.00  0.00     0.068 A 
HETATM   20  C   UNL     1     -42.793  60.464 -56.747  1.00  0.00     0.097 A 
HETATM   21  C   UNL     1     -41.814  60.554 -57.754  1.00  0.00     0.075 A 
HETATM   22  C   UNL     1     -41.435  61.790 -58.278  1.00  0.00     0.070 A 
HETATM   23  C   UNL     1     -42.065  62.944 -57.833  1.00  0.00     0.039 A 
HETATM   24  C   UNL     1     -43.044  62.867 -56.842  1.00  0.00     0.035 A 
BRANCH  20  25
HETATM   25  O   UNL     1     -43.105  59.281 -56.134  1.00  0.00    -0.354 OA
HETATM   26  C   UNL     1     -42.492  58.092 -56.637  1.00  0.00     0.210 C 
ENDBRANCH  20  25
BRANCH  22  27
HETATM   27  O   UNL     1     -40.485  61.972 -59.243  1.00  0.00    -0.356 OA
HETATM   28  C   UNL     1     -39.732  63.177 -59.144  1.00  0.00     0.210 C 
ENDBRANCH  22  27
ENDBRANCH  16  19
ENDBRANCH  14  15
ENDBRANCH   1  14
BRANCH   7  29
HETATM   29  C   UNL     1     -40.685  53.595 -52.725  1.00  0.00    -0.002 A 
HETATM   30  C   UNL     1     -40.968  53.041 -53.984  1.00  0.00     0.016 A 
HETATM   31  C   UNL     1     -40.517  51.759 -54.312  1.00  0.00     0.024 A 
HETATM   32  C   UNL     1     -39.789  51.024 -53.381  1.00  0.00     0.034 A 
HETATM   33 CL   UNL     1     -39.231  49.448 -53.783  1.00  0.00    -0.084 Cl
HETATM   34  C   UNL     1     -39.511  51.561 -52.125  1.00  0.00     0.024 A 
HETATM   35  C   UNL     1     -39.958  52.846 -51.795  1.00  0.00     0.016 A 
ENDBRANCH   7  29
TORSDOF 6
ENDMDL
