MODEL 1
REMARK VINA RESULT:      -8.2      0.000      0.000
REMARK  5 active torsions:
REMARK  status: ('A' for Active; 'I' for Inactive)
REMARK    1  A    between atoms: C_3  and  O_4 
REMARK    2  A    between atoms: O_4  and  C_5 
REMARK    3  A    between atoms: C_5  and  C_6 
REMARK       I    between atoms: C_6  and  N_7 
REMARK    4  A    between atoms: N_7  and  N_8 
REMARK    5  A    between atoms: C_9  and  C_10 
ROOT
HETATM    1  C   UNL     1     -42.928  55.789 -55.975  1.00  0.00     0.261 C 
HETATM    2  N   UNL     1     -42.698  55.906 -54.605  1.00  0.00    -0.246 N 
HETATM    3  O   UNL     1     -43.024  54.731 -56.595  1.00  0.00    -0.269 OA
HETATM    4  H   UNL     1     -42.404  56.817 -54.261  1.00  0.00     0.192 HD
ENDROOT
BRANCH   2   5
HETATM    5  N   UNL     1     -42.333  54.853 -53.797  1.00  0.00    -0.184 NA
HETATM    6  C   UNL     1     -41.066  54.615 -53.673  1.00  0.00     0.153 C 
BRANCH   6   7
HETATM    7  C   UNL     1     -40.598  53.573 -52.773  1.00  0.00     0.018 A 
HETATM    8  C   UNL     1     -40.251  52.210 -53.060  1.00  0.00     0.004 A 
HETATM    9  C   UNL     1     -39.888  51.608 -51.854  1.00  0.00     0.043 A 
HETATM   10  C   UNL     1     -40.224  51.418 -54.228  1.00  0.00     0.014 A 
HETATM   11  C   UNL     1     -39.503  50.265 -51.757  1.00  0.00     0.030 A 
HETATM   12  N   UNL     1     -39.998  52.564 -50.875  1.00  0.00    -0.358 N 
HETATM   13  C   UNL     1     -39.488  49.507 -52.930  1.00  0.00     0.002 A 
HETATM   14  C   UNL     1     -39.842  50.072 -54.150  1.00  0.00     0.001 A 
HETATM   15  H   UNL     1     -39.797  52.400 -49.898  1.00  0.00     0.166 HD
HETATM   16  C   UNL     1     -40.431  53.754 -51.404  1.00  0.00     0.018 A 
HETATM   17  C   UNL     1     -40.640  54.950 -50.547  1.00  0.00     0.069 C 
ENDBRANCH   6   7
ENDBRANCH   2   5
BRANCH   1  18
HETATM   18  C   UNL     1     -42.952  57.135 -56.693  1.00  0.00     0.280 C 
BRANCH  18  19
HETATM   19  O   UNL     1     -43.112  56.955 -58.097  1.00  0.00    -0.342 OA
BRANCH  19  20
HETATM   20  C   UNL     1     -44.393  57.114 -58.563  1.00  0.00     0.075 A 
HETATM   21  C   UNL     1     -44.862  56.148 -59.469  1.00  0.00    -0.029 A 
HETATM   22  C   UNL     1     -43.978  55.039 -59.969  1.00  0.00     0.051 C 
HETATM   23  C   UNL     1     -46.164  56.267 -59.983  1.00  0.00     0.009 A 
HETATM   24  C   UNL     1     -46.998  57.305 -59.573  1.00  0.00     0.001 A 
HETATM   25  C   UNL     1     -46.540  58.240 -58.650  1.00  0.00     0.003 A 
HETATM   26  C   UNL     1     -45.242  58.145 -58.143  1.00  0.00     0.037 A 
ENDBRANCH  19  20
ENDBRANCH  18  19
ENDBRANCH   1  18
TORSDOF 5
ENDMDL
MODEL 2
REMARK VINA RESULT:      -8.1      1.888      2.498
REMARK  5 active torsions:
REMARK  status: ('A' for Active; 'I' for Inactive)
REMARK    1  A    between atoms: C_3  and  O_4 
REMARK    2  A    between atoms: O_4  and  C_5 
REMARK    3  A    between atoms: C_5  and  C_6 
REMARK       I    between atoms: C_6  and  N_7 
REMARK    4  A    between atoms: N_7  and  N_8 
REMARK    5  A    between atoms: C_9  and  C_10 
ROOT
HETATM    1  C   UNL     1     -43.470  56.531 -54.383  1.00  0.00     0.261 C 
HETATM    2  N   UNL     1     -42.364  55.716 -54.618  1.00  0.00    -0.246 N 
HETATM    3  O   UNL     1     -44.169  56.512 -53.370  1.00  0.00    -0.269 OA
HETATM    4  H   UNL     1     -42.024  55.662 -55.575  1.00  0.00     0.192 HD
ENDROOT
BRANCH   2   5
HETATM    5  N   UNL     1     -42.033  54.631 -53.839  1.00  0.00    -0.184 NA
HETATM    6  C   UNL     1     -40.849  54.620 -53.314  1.00  0.00     0.153 C 
BRANCH   6   7
HETATM    7  C   UNL     1     -40.454  53.550 -52.412  1.00  0.00     0.018 A 
HETATM    8  C   UNL     1     -40.150  52.177 -52.704  1.00  0.00     0.004 A 
HETATM    9  C   UNL     1     -39.854  51.548 -51.495  1.00  0.00     0.043 A 
HETATM   10  C   UNL     1     -40.113  51.399 -53.881  1.00  0.00     0.014 A 
HETATM   11  C   UNL     1     -39.525  50.190 -51.401  1.00  0.00     0.030 A 
HETATM   12  N   UNL     1     -39.961  52.496 -50.507  1.00  0.00    -0.358 N 
HETATM   13  C   UNL     1     -39.498  49.445 -52.583  1.00  0.00     0.002 A 
HETATM   14  C   UNL     1     -39.787  50.038 -53.807  1.00  0.00     0.001 A 
HETATM   15  H   UNL     1     -39.801  52.313 -49.526  1.00  0.00     0.166 HD
HETATM   16  C   UNL     1     -40.328  53.708 -51.036  1.00  0.00     0.018 A 
HETATM   17  C   UNL     1     -40.520  54.901 -50.171  1.00  0.00     0.069 C 
ENDBRANCH   6   7
ENDBRANCH   2   5
BRANCH   1  18
HETATM   18  C   UNL     1     -43.822  57.418 -55.574  1.00  0.00     0.280 C 
BRANCH  18  19
HETATM   19  O   UNL     1     -42.643  57.848 -56.248  1.00  0.00    -0.342 OA
BRANCH  19  20
HETATM   20  C   UNL     1     -42.574  57.507 -57.576  1.00  0.00     0.075 A 
HETATM   21  C   UNL     1     -42.040  58.469 -58.450  1.00  0.00    -0.029 A 
HETATM   22  C   UNL     1     -41.638  59.836 -57.969  1.00  0.00     0.051 C 
HETATM   23  C   UNL     1     -41.952  58.174 -59.820  1.00  0.00     0.009 A 
HETATM   24  C   UNL     1     -42.353  56.932 -60.308  1.00  0.00     0.001 A 
HETATM   25  C   UNL     1     -42.850  55.971 -59.433  1.00  0.00     0.003 A 
HETATM   26  C   UNL     1     -42.959  56.255 -58.070  1.00  0.00     0.037 A 
ENDBRANCH  19  20
ENDBRANCH  18  19
ENDBRANCH   1  18
TORSDOF 5
ENDMDL
MODEL 3
REMARK VINA RESULT:      -8.0      2.452      8.929
REMARK  5 active torsions:
REMARK  status: ('A' for Active; 'I' for Inactive)
REMARK    1  A    between atoms: C_3  and  O_4 
REMARK    2  A    between atoms: O_4  and  C_5 
REMARK    3  A    between atoms: C_5  and  C_6 
REMARK       I    between atoms: C_6  and  N_7 
REMARK    4  A    between atoms: N_7  and  N_8 
REMARK    5  A    between atoms: C_9  and  C_10 
ROOT
HETATM    1  C   UNL     1     -43.361  55.352 -53.949  1.00  0.00     0.261 C 
HETATM    2  N   UNL     1     -43.049  55.044 -55.272  1.00  0.00    -0.246 N 
HETATM    3  O   UNL     1     -43.967  56.353 -53.572  1.00  0.00    -0.269 OA
HETATM    4  H   UNL     1     -42.348  54.324 -55.427  1.00  0.00     0.192 HD
ENDROOT
BRANCH   2   5
HETATM    5  N   UNL     1     -43.190  55.929 -56.317  1.00  0.00    -0.184 NA
HETATM    6  C   UNL     1     -43.037  55.460 -57.514  1.00  0.00     0.153 C 
BRANCH   6   7
HETATM    7  C   UNL     1     -43.252  56.311 -58.672  1.00  0.00     0.018 A 
HETATM    8  C   UNL     1     -42.806  57.655 -58.911  1.00  0.00     0.004 A 
HETATM    9  C   UNL     1     -43.295  58.043 -60.159  1.00  0.00     0.043 A 
HETATM   10  C   UNL     1     -42.043  58.591 -58.179  1.00  0.00     0.014 A 
HETATM   11  C   UNL     1     -43.064  59.310 -60.709  1.00  0.00     0.030 A 
HETATM   12  N   UNL     1     -44.001  56.980 -60.666  1.00  0.00    -0.358 N 
HETATM   13  C   UNL     1     -42.307  60.215 -59.961  1.00  0.00     0.002 A 
HETATM   14  C   UNL     1     -41.802  59.863 -58.713  1.00  0.00     0.001 A 
HETATM   15  H   UNL     1     -44.469  56.987 -61.562  1.00  0.00     0.166 HD
HETATM   16  C   UNL     1     -43.994  55.929 -59.785  1.00  0.00     0.018 A 
HETATM   17  C   UNL     1     -44.698  54.657 -60.095  1.00  0.00     0.069 C 
ENDBRANCH   6   7
ENDBRANCH   2   5
BRANCH   1  18
HETATM   18  C   UNL     1     -42.779  54.354 -52.951  1.00  0.00     0.280 C 
BRANCH  18  19
HETATM   19  O   UNL     1     -41.355  54.360 -53.005  1.00  0.00    -0.342 OA
BRANCH  19  20
HETATM   20  C   UNL     1     -40.771  53.123 -53.119  1.00  0.00     0.075 A 
HETATM   21  C   UNL     1     -40.068  52.648 -51.998  1.00  0.00    -0.029 A 
HETATM   22  C   UNL     1     -39.894  53.487 -50.763  1.00  0.00     0.051 C 
HETATM   23  C   UNL     1     -39.446  51.391 -52.063  1.00  0.00     0.009 A 
HETATM   24  C   UNL     1     -39.553  50.603 -53.208  1.00  0.00     0.001 A 
HETATM   25  C   UNL     1     -40.278  51.063 -54.302  1.00  0.00     0.003 A 
HETATM   26  C   UNL     1     -40.888  52.319 -54.259  1.00  0.00     0.037 A 
ENDBRANCH  19  20
ENDBRANCH  18  19
ENDBRANCH   1  18
TORSDOF 5
ENDMDL
MODEL 4
REMARK VINA RESULT:      -7.9      2.049      2.577
REMARK  5 active torsions:
REMARK  status: ('A' for Active; 'I' for Inactive)
REMARK    1  A    between atoms: C_3  and  O_4 
REMARK    2  A    between atoms: O_4  and  C_5 
REMARK    3  A    between atoms: C_5  and  C_6 
REMARK       I    between atoms: C_6  and  N_7 
REMARK    4  A    between atoms: N_7  and  N_8 
REMARK    5  A    between atoms: C_9  and  C_10 
ROOT
HETATM    1  C   UNL     1     -42.800  56.022 -55.754  1.00  0.00     0.261 C 
HETATM    2  N   UNL     1     -42.617  55.980 -54.373  1.00  0.00    -0.246 N 
HETATM    3  O   UNL     1     -42.841  55.045 -56.500  1.00  0.00    -0.269 OA
HETATM    4  H   UNL     1     -42.366  56.850 -53.912  1.00  0.00     0.192 HD
ENDROOT
BRANCH   2   5
HETATM    5  N   UNL     1     -42.243  54.848 -53.685  1.00  0.00    -0.184 NA
HETATM    6  C   UNL     1     -40.997  54.747 -53.346  1.00  0.00     0.153 C 
BRANCH   6   7
HETATM    7  C   UNL     1     -40.539  53.622 -52.547  1.00  0.00     0.018 A 
HETATM    8  C   UNL     1     -40.235  52.280 -52.954  1.00  0.00     0.004 A 
HETATM    9  C   UNL     1     -39.864  51.570 -51.811  1.00  0.00     0.043 A 
HETATM   10  C   UNL     1     -40.252  51.588 -54.185  1.00  0.00     0.014 A 
HETATM   11  C   UNL     1     -39.514  50.214 -51.834  1.00  0.00     0.030 A 
HETATM   12  N   UNL     1     -39.930  52.443 -50.753  1.00  0.00    -0.358 N 
HETATM   13  C   UNL     1     -39.543  49.557 -53.067  1.00  0.00     0.002 A 
HETATM   14  C   UNL     1     -39.905  50.232 -54.228  1.00  0.00     0.001 A 
HETATM   15  H   UNL     1     -39.714  52.192 -49.798  1.00  0.00     0.166 HD
HETATM   16  C   UNL     1     -40.340  53.683 -51.172  1.00  0.00     0.018 A 
HETATM   17  C   UNL     1     -40.500  54.808 -50.214  1.00  0.00     0.069 C 
ENDBRANCH   6   7
ENDBRANCH   2   5
BRANCH   1  18
HETATM   18  C   UNL     1     -42.849  57.445 -56.306  1.00  0.00     0.280 C 
BRANCH  18  19
HETATM   19  O   UNL     1     -42.226  57.511 -57.585  1.00  0.00    -0.342 OA
BRANCH  19  20
HETATM   20  C   UNL     1     -42.070  58.776 -58.093  1.00  0.00     0.075 A 
HETATM   21  C   UNL     1     -42.119  58.908 -59.491  1.00  0.00    -0.029 A 
HETATM   22  C   UNL     1     -42.252  57.712 -60.393  1.00  0.00     0.051 C 
HETATM   23  C   UNL     1     -41.958  60.180 -60.064  1.00  0.00     0.009 A 
HETATM   24  C   UNL     1     -41.792  61.306 -59.260  1.00  0.00     0.001 A 
HETATM   25  C   UNL     1     -41.779  61.174 -57.875  1.00  0.00     0.003 A 
HETATM   26  C   UNL     1     -41.920  59.914 -57.292  1.00  0.00     0.037 A 
ENDBRANCH  19  20
ENDBRANCH  18  19
ENDBRANCH   1  18
TORSDOF 5
ENDMDL
MODEL 5
REMARK VINA RESULT:      -7.7      1.485      1.873
REMARK  5 active torsions:
REMARK  status: ('A' for Active; 'I' for Inactive)
REMARK    1  A    between atoms: C_3  and  O_4 
REMARK    2  A    between atoms: O_4  and  C_5 
REMARK    3  A    between atoms: C_5  and  C_6 
REMARK       I    between atoms: C_6  and  N_7 
REMARK    4  A    between atoms: N_7  and  N_8 
REMARK    5  A    between atoms: C_9  and  C_10 
ROOT
HETATM    1  C   UNL     1     -42.855  58.021 -56.281  1.00  0.00     0.261 C 
HETATM    2  N   UNL     1     -42.808  56.635 -56.133  1.00  0.00    -0.246 N 
HETATM    3  O   UNL     1     -42.037  58.816 -55.821  1.00  0.00    -0.269 OA
HETATM    4  H   UNL     1     -43.656  56.118 -56.351  1.00  0.00     0.192 HD
ENDROOT
BRANCH   2   5
HETATM    5  N   UNL     1     -41.956  55.987 -55.269  1.00  0.00    -0.184 NA
HETATM    6  C   UNL     1     -42.470  55.508 -54.180  1.00  0.00     0.153 C 
BRANCH   6   7
HETATM    7  C   UNL     1     -41.654  54.739 -53.256  1.00  0.00     0.018 A 
HETATM    8  C   UNL     1     -41.017  53.466 -53.445  1.00  0.00     0.004 A 
HETATM    9  C   UNL     1     -40.373  53.139 -52.251  1.00  0.00     0.043 A 
HETATM   10  C   UNL     1     -40.936  52.547 -54.513  1.00  0.00     0.014 A 
HETATM   11  C   UNL     1     -39.658  51.948 -52.071  1.00  0.00     0.030 A 
HETATM   12  N   UNL     1     -40.598  54.171 -51.373  1.00  0.00    -0.358 N 
HETATM   13  C   UNL     1     -39.598  51.058 -53.145  1.00  0.00     0.002 A 
HETATM   14  C   UNL     1     -40.226  51.350 -54.351  1.00  0.00     0.001 A 
HETATM   15  H   UNL     1     -40.245  54.196 -50.426  1.00  0.00     0.166 HD
HETATM   16  C   UNL     1     -41.372  55.143 -51.955  1.00  0.00     0.018 A 
HETATM   17  C   UNL     1     -41.766  56.366 -51.208  1.00  0.00     0.069 C 
ENDBRANCH   6   7
ENDBRANCH   2   5
BRANCH   1  18
HETATM   18  C   UNL     1     -44.109  58.502 -57.007  1.00  0.00     0.280 C 
BRANCH  18  19
HETATM   19  O   UNL     1     -43.913  58.486 -58.418  1.00  0.00    -0.342 OA
BRANCH  19  20
HETATM   20  C   UNL     1     -44.702  57.599 -59.106  1.00  0.00     0.075 A 
HETATM   21  C   UNL     1     -44.044  56.559 -59.783  1.00  0.00    -0.029 A 
HETATM   22  C   UNL     1     -42.543  56.467 -59.822  1.00  0.00     0.051 C 
HETATM   23  C   UNL     1     -44.803  55.627 -60.509  1.00  0.00     0.009 A 
HETATM   24  C   UNL     1     -46.195  55.704 -60.529  1.00  0.00     0.001 A 
HETATM   25  C   UNL     1     -46.843  56.716 -59.829  1.00  0.00     0.003 A 
HETATM   26  C   UNL     1     -46.100  57.660 -59.116  1.00  0.00     0.037 A 
ENDBRANCH  19  20
ENDBRANCH  18  19
ENDBRANCH   1  18
TORSDOF 5
ENDMDL
MODEL 6
REMARK VINA RESULT:      -7.7      2.153      8.409
REMARK  5 active torsions:
REMARK  status: ('A' for Active; 'I' for Inactive)
REMARK    1  A    between atoms: C_3  and  O_4 
REMARK    2  A    between atoms: O_4  and  C_5 
REMARK    3  A    between atoms: C_5  and  C_6 
REMARK       I    between atoms: C_6  and  N_7 
REMARK    4  A    between atoms: N_7  and  N_8 
REMARK    5  A    between atoms: C_9  and  C_10 
ROOT
HETATM    1  C   UNL     1     -42.233  54.504 -52.479  1.00  0.00     0.261 C 
HETATM    2  N   UNL     1     -41.536  55.372 -53.318  1.00  0.00    -0.246 N 
HETATM    3  O   UNL     1     -43.440  54.272 -52.534  1.00  0.00    -0.269 OA
HETATM    4  H   UNL     1     -40.606  55.655 -53.021  1.00  0.00     0.192 HD
ENDROOT
BRANCH   2   5
HETATM    5  N   UNL     1     -42.144  56.250 -54.186  1.00  0.00    -0.184 NA
HETATM    6  C   UNL     1     -41.772  56.208 -55.426  1.00  0.00     0.153 C 
BRANCH   6   7
HETATM    7  C   UNL     1     -42.425  57.045 -56.419  1.00  0.00     0.018 A 
HETATM    8  C   UNL     1     -43.035  56.675 -57.665  1.00  0.00     0.004 A 
HETATM    9  C   UNL     1     -43.495  57.845 -58.270  1.00  0.00     0.043 A 
HETATM   10  C   UNL     1     -43.229  55.456 -58.350  1.00  0.00     0.014 A 
HETATM   11  C   UNL     1     -44.134  57.860 -59.516  1.00  0.00     0.030 A 
HETATM   12  N   UNL     1     -43.189  58.885 -57.426  1.00  0.00    -0.358 N 
HETATM   13  C   UNL     1     -44.310  56.638 -60.170  1.00  0.00     0.002 A 
HETATM   14  C   UNL     1     -43.865  55.451 -59.598  1.00  0.00     0.001 A 
HETATM   15  H   UNL     1     -43.408  59.853 -57.618  1.00  0.00     0.166 HD
HETATM   16  C   UNL     1     -42.539  58.427 -56.308  1.00  0.00     0.018 A 
HETATM   17  C   UNL     1     -42.090  59.359 -55.241  1.00  0.00     0.069 C 
ENDBRANCH   6   7
ENDBRANCH   2   5
BRANCH   1  18
HETATM   18  C   UNL     1     -41.361  53.915 -51.373  1.00  0.00     0.280 C 
BRANCH  18  19
HETATM   19  O   UNL     1     -40.103  53.496 -51.892  1.00  0.00    -0.342 OA
BRANCH  19  20
HETATM   20  C   UNL     1     -39.946  52.139 -52.017  1.00  0.00     0.075 A 
HETATM   21  C   UNL     1     -39.873  51.627 -53.324  1.00  0.00    -0.029 A 
HETATM   22  C   UNL     1     -40.041  52.511 -54.528  1.00  0.00     0.051 C 
HETATM   23  C   UNL     1     -39.720  50.243 -53.509  1.00  0.00     0.009 A 
HETATM   24  C   UNL     1     -39.601  49.388 -52.414  1.00  0.00     0.001 A 
HETATM   25  C   UNL     1     -39.641  49.905 -51.123  1.00  0.00     0.003 A 
HETATM   26  C   UNL     1     -39.810  51.276 -50.923  1.00  0.00     0.037 A 
ENDBRANCH  19  20
ENDBRANCH  18  19
ENDBRANCH   1  18
TORSDOF 5
ENDMDL
MODEL 7
REMARK VINA RESULT:      -7.6      2.083      9.284
REMARK  5 active torsions:
REMARK  status: ('A' for Active; 'I' for Inactive)
REMARK    1  A    between atoms: C_3  and  O_4 
REMARK    2  A    between atoms: O_4  and  C_5 
REMARK    3  A    between atoms: C_5  and  C_6 
REMARK       I    between atoms: C_6  and  N_7 
REMARK    4  A    between atoms: N_7  and  N_8 
REMARK    5  A    between atoms: C_9  and  C_10 
ROOT
HETATM    1  C   UNL     1     -42.008  54.822 -55.218  1.00  0.00     0.261 C 
HETATM    2  N   UNL     1     -42.110  55.276 -56.532  1.00  0.00    -0.246 N 
HETATM    3  O   UNL     1     -42.891  54.899 -54.365  1.00  0.00    -0.269 OA
HETATM    4  H   UNL     1     -41.244  55.371 -57.057  1.00  0.00     0.192 HD
ENDROOT
BRANCH   2   5
HETATM    5  N   UNL     1     -43.139  56.066 -56.991  1.00  0.00    -0.184 NA
HETATM    6  C   UNL     1     -42.867  56.894 -57.949  1.00  0.00     0.153 C 
BRANCH   6   7
HETATM    7  C   UNL     1     -43.918  57.703 -58.544  1.00  0.00     0.018 A 
HETATM    8  C   UNL     1     -45.041  57.297 -59.340  1.00  0.00     0.004 A 
HETATM    9  C   UNL     1     -45.742  58.450 -59.695  1.00  0.00     0.043 A 
HETATM   10  C   UNL     1     -45.527  56.057 -59.810  1.00  0.00     0.014 A 
HETATM   11  C   UNL     1     -46.893  58.429 -60.491  1.00  0.00     0.030 A 
HETATM   12  N   UNL     1     -45.081  59.515 -59.133  1.00  0.00    -0.358 N 
HETATM   13  C   UNL     1     -47.349  57.188 -60.943  1.00  0.00     0.002 A 
HETATM   14  C   UNL     1     -46.678  56.016 -60.608  1.00  0.00     0.001 A 
HETATM   15  H   UNL     1     -45.372  60.478 -59.232  1.00  0.00     0.166 HD
HETATM   16  C   UNL     1     -43.976  59.089 -58.440  1.00  0.00     0.018 A 
HETATM   17  C   UNL     1     -43.083  60.052 -57.744  1.00  0.00     0.069 C 
ENDBRANCH   6   7
ENDBRANCH   2   5
BRANCH   1  18
HETATM   18  C   UNL     1     -40.619  54.289 -54.877  1.00  0.00     0.280 C 
BRANCH  18  19
HETATM   19  O   UNL     1     -40.569  53.838 -53.526  1.00  0.00    -0.342 OA
BRANCH  19  20
HETATM   20  C   UNL     1     -40.256  52.511 -53.366  1.00  0.00     0.075 A 
HETATM   21  C   UNL     1     -39.874  52.102 -52.077  1.00  0.00    -0.029 A 
HETATM   22  C   UNL     1     -39.734  53.083 -50.946  1.00  0.00     0.051 C 
HETATM   23  C   UNL     1     -39.536  50.756 -51.859  1.00  0.00     0.009 A 
HETATM   24  C   UNL     1     -39.615  49.827 -52.894  1.00  0.00     0.001 A 
HETATM   25  C   UNL     1     -40.026  50.231 -54.160  1.00  0.00     0.003 A 
HETATM   26  C   UNL     1     -40.349  51.569 -54.397  1.00  0.00     0.037 A 
ENDBRANCH  19  20
ENDBRANCH  18  19
ENDBRANCH   1  18
TORSDOF 5
ENDMDL
MODEL 8
REMARK VINA RESULT:      -7.5      4.236      5.263
REMARK  5 active torsions:
REMARK  status: ('A' for Active; 'I' for Inactive)
REMARK    1  A    between atoms: C_3  and  O_4 
REMARK    2  A    between atoms: O_4  and  C_5 
REMARK    3  A    between atoms: C_5  and  C_6 
REMARK       I    between atoms: C_6  and  N_7 
REMARK    4  A    between atoms: N_7  and  N_8 
REMARK    5  A    between atoms: C_9  and  C_10 
ROOT
HETATM    1  C   UNL     1     -41.133  58.989 -51.006  1.00  0.00     0.261 C 
HETATM    2  N   UNL     1     -41.550  57.869 -50.289  1.00  0.00    -0.246 N 
HETATM    3  O   UNL     1     -40.282  58.993 -51.895  1.00  0.00    -0.269 OA
HETATM    4  H   UNL     1     -42.074  58.036 -49.433  1.00  0.00     0.192 HD
ENDROOT
BRANCH   2   5
HETATM    5  N   UNL     1     -40.909  56.652 -50.330  1.00  0.00    -0.184 NA
HETATM    6  C   UNL     1     -41.578  55.648 -50.802  1.00  0.00     0.153 C 
BRANCH   6   7
HETATM    7  C   UNL     1     -40.944  54.349 -50.955  1.00  0.00     0.018 A 
HETATM    8  C   UNL     1     -40.654  53.612 -52.153  1.00  0.00     0.004 A 
HETATM    9  C   UNL     1     -40.067  52.405 -51.770  1.00  0.00     0.043 A 
HETATM   10  C   UNL     1     -40.846  53.845 -53.532  1.00  0.00     0.014 A 
HETATM   11  C   UNL     1     -39.667  51.426 -52.688  1.00  0.00     0.030 A 
HETATM   12  N   UNL     1     -39.993  52.408 -50.398  1.00  0.00    -0.358 N 
HETATM   13  C   UNL     1     -39.871  51.685 -54.045  1.00  0.00     0.002 A 
HETATM   14  C   UNL     1     -40.452  52.877 -54.464  1.00  0.00     0.001 A 
HETATM   15  H   UNL     1     -39.610  51.650 -49.851  1.00  0.00     0.166 HD
HETATM   16  C   UNL     1     -40.521  53.566 -49.886  1.00  0.00     0.018 A 
HETATM   17  C   UNL     1     -40.568  53.811 -48.421  1.00  0.00     0.069 C 
ENDBRANCH   6   7
ENDBRANCH   2   5
BRANCH   1  18
HETATM   18  C   UNL     1     -41.772  60.285 -50.514  1.00  0.00     0.280 C 
BRANCH  18  19
HETATM   19  O   UNL     1     -43.191  60.221 -50.622  1.00  0.00    -0.342 OA
BRANCH  19  20
HETATM   20  C   UNL     1     -43.681  60.276 -51.903  1.00  0.00     0.075 A 
HETATM   21  C   UNL     1     -44.624  59.298 -52.263  1.00  0.00    -0.029 A 
HETATM   22  C   UNL     1     -45.017  58.196 -51.319  1.00  0.00     0.051 C 
HETATM   23  C   UNL     1     -45.152  59.304 -53.564  1.00  0.00     0.009 A 
HETATM   24  C   UNL     1     -44.780  60.288 -54.478  1.00  0.00     0.001 A 
HETATM   25  C   UNL     1     -43.871  61.273 -54.106  1.00  0.00     0.003 A 
HETATM   26  C   UNL     1     -43.324  61.270 -52.821  1.00  0.00     0.037 A 
ENDBRANCH  19  20
ENDBRANCH  18  19
ENDBRANCH   1  18
TORSDOF 5
ENDMDL
MODEL 9
REMARK VINA RESULT:      -7.5      2.622      3.229
REMARK  5 active torsions:
REMARK  status: ('A' for Active; 'I' for Inactive)
REMARK    1  A    between atoms: C_3  and  O_4 
REMARK    2  A    between atoms: O_4  and  C_5 
REMARK    3  A    between atoms: C_5  and  C_6 
REMARK       I    between atoms: C_6  and  N_7 
REMARK    4  A    between atoms: N_7  and  N_8 
REMARK    5  A    between atoms: C_9  and  C_10 
ROOT
HETATM    1  C   UNL     1     -41.046  58.645 -53.863  1.00  0.00     0.261 C 
HETATM    2  N   UNL     1     -41.229  57.329 -54.286  1.00  0.00    -0.246 N 
HETATM    3  O   UNL     1     -40.202  59.023 -53.052  1.00  0.00    -0.269 OA
HETATM    4  H   UNL     1     -42.099  57.114 -54.767  1.00  0.00     0.192 HD
ENDROOT
BRANCH   2   5
HETATM    5  N   UNL     1     -40.630  56.243 -53.690  1.00  0.00    -0.184 NA
HETATM    6  C   UNL     1     -41.350  55.548 -52.868  1.00  0.00     0.153 C 
BRANCH   6   7
HETATM    7  C   UNL     1     -40.816  54.340 -52.261  1.00  0.00     0.018 A 
HETATM    8  C   UNL     1     -40.475  53.086 -52.872  1.00  0.00     0.004 A 
HETATM    9  C   UNL     1     -40.030  52.234 -51.861  1.00  0.00     0.043 A 
HETATM   10  C   UNL     1     -40.515  52.583 -54.191  1.00  0.00     0.014 A 
HETATM   11  C   UNL     1     -39.628  50.914 -52.097  1.00  0.00     0.030 A 
HETATM   12  N   UNL     1     -40.087  52.939 -50.683  1.00  0.00    -0.358 N 
HETATM   13  C   UNL     1     -39.680  50.444 -53.412  1.00  0.00     0.002 A 
HETATM   14  C   UNL     1     -40.117  51.265 -54.446  1.00  0.00     0.001 A 
HETATM   15  H   UNL     1     -39.823  52.561 -49.784  1.00  0.00     0.166 HD
HETATM   16  C   UNL     1     -40.563  54.207 -50.899  1.00  0.00     0.018 A 
HETATM   17  C   UNL     1     -40.729  55.171 -49.780  1.00  0.00     0.069 C 
ENDBRANCH   6   7
ENDBRANCH   2   5
BRANCH   1  18
HETATM   18  C   UNL     1     -42.084  59.605 -54.436  1.00  0.00     0.280 C 
BRANCH  18  19
HETATM   19  O   UNL     1     -42.761  59.016 -55.542  1.00  0.00    -0.342 OA
BRANCH  19  20
HETATM   20  C   UNL     1     -42.381  59.483 -56.775  1.00  0.00     0.075 A 
HETATM   21  C   UNL     1     -42.411  58.565 -57.838  1.00  0.00    -0.029 A 
HETATM   22  C   UNL     1     -42.764  57.119 -57.622  1.00  0.00     0.051 C 
HETATM   23  C   UNL     1     -42.024  58.989 -59.120  1.00  0.00     0.009 A 
HETATM   24  C   UNL     1     -41.653  60.312 -59.349  1.00  0.00     0.001 A 
HETATM   25  C   UNL     1     -41.657  61.226 -58.299  1.00  0.00     0.003 A 
HETATM   26  C   UNL     1     -42.022  60.815 -57.016  1.00  0.00     0.037 A 
ENDBRANCH  19  20
ENDBRANCH  18  19
ENDBRANCH   1  18
TORSDOF 5
ENDMDL
MODEL 10
REMARK VINA RESULT:      -7.5      3.716      8.704
REMARK  5 active torsions:
REMARK  status: ('A' for Active; 'I' for Inactive)
REMARK    1  A    between atoms: C_3  and  O_4 
REMARK    2  A    between atoms: O_4  and  C_5 
REMARK    3  A    between atoms: C_5  and  C_6 
REMARK       I    between atoms: C_6  and  N_7 
REMARK    4  A    between atoms: N_7  and  N_8 
REMARK    5  A    between atoms: C_9  and  C_10 
ROOT
HETATM    1  C   UNL     1     -41.866  54.322 -51.076  1.00  0.00     0.261 C 
HETATM    2  N   UNL     1     -41.308  55.337 -51.853  1.00  0.00    -0.246 N 
HETATM    3  O   UNL     1     -43.035  54.271 -50.699  1.00  0.00    -0.269 OA
HETATM    4  H   UNL     1     -40.293  55.384 -51.894  1.00  0.00     0.192 HD
ENDROOT
BRANCH   2   5
HETATM    5  N   UNL     1     -41.941  56.529 -52.122  1.00  0.00    -0.184 NA
HETATM    6  C   UNL     1     -42.754  56.552 -53.130  1.00  0.00     0.153 C 
BRANCH   6   7
HETATM    7  C   UNL     1     -43.523  57.749 -53.429  1.00  0.00     0.018 A 
HETATM    8  C   UNL     1     -44.463  58.458 -52.607  1.00  0.00     0.004 A 
HETATM    9  C   UNL     1     -44.954  59.526 -53.359  1.00  0.00     0.043 A 
HETATM   10  C   UNL     1     -44.960  58.287 -51.297  1.00  0.00     0.014 A 
HETATM   11  C   UNL     1     -45.910  60.426 -52.872  1.00  0.00     0.030 A 
HETATM   12  N   UNL     1     -44.333  59.479 -54.583  1.00  0.00    -0.358 N 
HETATM   13  C   UNL     1     -46.384  60.231 -51.573  1.00  0.00     0.002 A 
HETATM   14  C   UNL     1     -45.917  59.178 -50.793  1.00  0.00     0.001 A 
HETATM   15  H   UNL     1     -44.504  60.138 -55.330  1.00  0.00     0.166 HD
HETATM   16  C   UNL     1     -43.472  58.413 -54.650  1.00  0.00     0.018 A 
HETATM   17  C   UNL     1     -42.682  58.135 -55.878  1.00  0.00     0.069 C 
ENDBRANCH   6   7
ENDBRANCH   2   5
BRANCH   1  18
HETATM   18  C   UNL     1     -40.841  53.283 -50.627  1.00  0.00     0.280 C 
BRANCH  18  19
HETATM   19  O   UNL     1     -39.808  53.141 -51.598  1.00  0.00    -0.342 OA
BRANCH  19  20
HETATM   20  C   UNL     1     -39.792  51.939 -52.260  1.00  0.00     0.075 A 
HETATM   21  C   UNL     1     -39.973  51.981 -53.653  1.00  0.00    -0.029 A 
HETATM   22  C   UNL     1     -40.253  53.271 -54.375  1.00  0.00     0.051 C 
HETATM   23  C   UNL     1     -39.972  50.779 -54.380  1.00  0.00     0.009 A 
HETATM   24  C   UNL     1     -39.756  49.561 -53.738  1.00  0.00     0.001 A 
HETATM   25  C   UNL     1     -39.544  49.529 -52.363  1.00  0.00     0.003 A 
HETATM   26  C   UNL     1     -39.559  50.714 -51.625  1.00  0.00     0.037 A 
ENDBRANCH  19  20
ENDBRANCH  18  19
ENDBRANCH   1  18
TORSDOF 5
ENDMDL
