MODEL 1
REMARK VINA RESULT:      -9.0      0.000      0.000
REMARK  6 active torsions:
REMARK  status: ('A' for Active; 'I' for Inactive)
REMARK    1  A    between atoms: O_2  and  C_3 
REMARK    2  A    between atoms: C_6  and  C_7 
REMARK    3  A    between atoms: C_11  and  C_12 
REMARK       I    between atoms: C_12  and  N_13 
REMARK    4  A    between atoms: N_13  and  N_14 
REMARK       I    between atoms: N_14  and  C_15 
REMARK    5  A    between atoms: C_15  and  C_16 
REMARK    6  A    between atoms: C_17  and  C_18 
ROOT
HETATM    1  C   UNL     1     -43.124  56.979 -57.369  1.00  0.00     0.288 C 
HETATM    2  N   UNL     1     -43.188  55.670 -56.939  1.00  0.00    -0.262 N 
HETATM    3  O   UNL     1     -42.157  57.698 -57.123  1.00  0.00    -0.264 OA
HETATM    4  H   UNL     1     -43.934  55.027 -57.187  1.00  0.00     0.190 HD
ENDROOT
BRANCH   1   5
HETATM    5  C   UNL     1     -44.262  57.448 -58.109  1.00  0.00     0.121 A 
HETATM    6  N   UNL     1     -44.980  58.535 -57.698  1.00  0.00    -0.272 N 
HETATM    7  N   UNL     1     -46.041  58.816 -58.466  1.00  0.00    -0.174 NA
HETATM    8  H   UNL     1     -44.796  59.114 -56.883  1.00  0.00     0.189 HD
HETATM    9  C   UNL     1     -46.017  57.887 -59.436  1.00  0.00     0.089 A 
HETATM   10  C   UNL     1     -44.905  57.016 -59.252  1.00  0.00     0.071 A 
BRANCH   9  11
HETATM   11  C   UNL     1     -47.050  57.835 -60.475  1.00  0.00    -0.005 A 
HETATM   12  C   UNL     1     -47.705  58.992 -60.910  1.00  0.00     0.016 A 
HETATM   13  C   UNL     1     -48.666  58.924 -61.925  1.00  0.00     0.037 A 
HETATM   14  C   UNL     1     -48.988  57.705 -62.527  1.00  0.00     0.068 A 
HETATM   15  C   UNL     1     -48.352  56.546 -62.088  1.00  0.00     0.037 A 
HETATM   16  C   UNL     1     -47.393  56.612 -61.069  1.00  0.00     0.016 A 
BRANCH  14  17
HETATM   17  O   UNL     1     -49.931  57.783 -63.512  1.00  0.00    -0.356 OA
HETATM   18  C   UNL     1     -50.600  59.029 -63.662  1.00  0.00     0.210 C 
ENDBRANCH  14  17
ENDBRANCH   9  11
ENDBRANCH   1   5
BRANCH   2  19
HETATM   19  N   UNL     1     -42.114  55.143 -56.222  1.00  0.00    -0.267 N 
HETATM   20  C   UNL     1     -42.341  54.604 -54.979  1.00  0.00     0.240 C 
HETATM   21  O   UNL     1     -43.441  54.550 -54.440  1.00  0.00    -0.271 OA
HETATM   22  H   UNL     1     -41.184  55.234 -56.631  1.00  0.00     0.190 HD
BRANCH  20  23
HETATM   23  C   UNL     1     -41.112  54.109 -54.316  1.00  0.00     0.089 A 
HETATM   24  C   UNL     1     -40.657  52.691 -54.633  1.00  0.00     0.036 A 
HETATM   25  C   UNL     1     -39.828  53.873 -55.065  1.00  0.00     0.025 A 
BRANCH  24  26
HETATM   26  C   UNL     1     -40.265  51.800 -53.481  1.00  0.00    -0.015 A 
HETATM   27  C   UNL     1     -39.948  50.449 -53.695  1.00  0.00     0.123 A 
HETATM   28  F   UNL     1     -40.025  49.947 -54.939  1.00  0.00    -0.206 F 
HETATM   29  C   UNL     1     -39.559  49.601 -52.660  1.00  0.00     0.043 A 
HETATM   30  C   UNL     1     -39.480  50.095 -51.362  1.00  0.00     0.003 A 
HETATM   31  C   UNL     1     -39.785  51.433 -51.114  1.00  0.00     0.001 A 
HETATM   32  C   UNL     1     -40.169  52.275 -52.163  1.00  0.00     0.011 A 
ENDBRANCH  24  26
ENDBRANCH  20  23
ENDBRANCH   2  19
TORSDOF 6
ENDMDL
MODEL 2
REMARK VINA RESULT:      -8.7      4.048      5.347
REMARK  6 active torsions:
REMARK  status: ('A' for Active; 'I' for Inactive)
REMARK    1  A    between atoms: O_2  and  C_3 
REMARK    2  A    between atoms: C_6  and  C_7 
REMARK    3  A    between atoms: C_11  and  C_12 
REMARK       I    between atoms: C_12  and  N_13 
REMARK    4  A    between atoms: N_13  and  N_14 
REMARK       I    between atoms: N_14  and  C_15 
REMARK    5  A    between atoms: C_15  and  C_16 
REMARK    6  A    between atoms: C_17  and  C_18 
ROOT
HETATM    1  C   UNL     1     -42.814  56.200 -57.631  1.00  0.00     0.288 C 
HETATM    2  N   UNL     1     -41.977  56.233 -56.536  1.00  0.00    -0.262 N 
HETATM    3  O   UNL     1     -43.550  55.241 -57.859  1.00  0.00    -0.264 OA
HETATM    4  H   UNL     1     -41.413  57.037 -56.276  1.00  0.00     0.190 HD
ENDROOT
BRANCH   1   5
HETATM    5  C   UNL     1     -42.758  57.348 -58.491  1.00  0.00     0.121 A 
HETATM    6  N   UNL     1     -43.608  57.484 -59.553  1.00  0.00    -0.272 N 
HETATM    7  N   UNL     1     -43.397  58.585 -60.288  1.00  0.00    -0.174 NA
HETATM    8  H   UNL     1     -44.342  56.840 -59.831  1.00  0.00     0.189 HD
HETATM    9  C   UNL     1     -42.378  59.212 -59.680  1.00  0.00     0.089 A 
HETATM   10  C   UNL     1     -41.957  58.472 -58.538  1.00  0.00     0.071 A 
BRANCH   9  11
HETATM   11  C   UNL     1     -41.820  60.462 -60.208  1.00  0.00    -0.005 A 
HETATM   12  C   UNL     1     -41.200  61.394 -59.369  1.00  0.00     0.016 A 
HETATM   13  C   UNL     1     -40.647  62.566 -59.898  1.00  0.00     0.037 A 
HETATM   14  C   UNL     1     -40.698  62.828 -61.269  1.00  0.00     0.068 A 
HETATM   15  C   UNL     1     -41.328  61.912 -62.109  1.00  0.00     0.037 A 
HETATM   16  C   UNL     1     -41.886  60.741 -61.581  1.00  0.00     0.016 A 
BRANCH  14  17
HETATM   17  O   UNL     1     -40.108  63.999 -61.652  1.00  0.00    -0.356 OA
HETATM   18  C   UNL     1     -38.697  63.978 -61.826  1.00  0.00     0.210 C 
ENDBRANCH  14  17
ENDBRANCH   9  11
ENDBRANCH   1   5
BRANCH   2  19
HETATM   19  N   UNL     1     -41.984  55.155 -55.650  1.00  0.00    -0.267 N 
HETATM   20  C   UNL     1     -41.921  55.401 -54.299  1.00  0.00     0.240 C 
HETATM   21  O   UNL     1     -41.858  56.520 -53.803  1.00  0.00    -0.271 OA
HETATM   22  H   UNL     1     -41.977  54.217 -56.049  1.00  0.00     0.190 HD
BRANCH  20  23
HETATM   23  C   UNL     1     -41.906  54.170 -53.476  1.00  0.00     0.089 A 
HETATM   24  C   UNL     1     -40.567  53.706 -52.918  1.00  0.00     0.036 A 
HETATM   25  C   UNL     1     -41.653  54.191 -51.992  1.00  0.00     0.025 A 
BRANCH  24  26
HETATM   26  C   UNL     1     -40.210  52.247 -53.058  1.00  0.00    -0.015 A 
HETATM   27  C   UNL     1     -39.782  51.503 -51.945  1.00  0.00     0.123 A 
HETATM   28  F   UNL     1     -39.665  52.115 -50.755  1.00  0.00    -0.206 F 
HETATM   29  C   UNL     1     -39.467  50.149 -52.030  1.00  0.00     0.043 A 
HETATM   30  C   UNL     1     -39.572  49.496 -53.254  1.00  0.00     0.003 A 
HETATM   31  C   UNL     1     -39.996  50.203 -54.379  1.00  0.00     0.001 A 
HETATM   32  C   UNL     1     -40.316  51.561 -54.278  1.00  0.00     0.011 A 
ENDBRANCH  24  26
ENDBRANCH  20  23
ENDBRANCH   2  19
TORSDOF 6
ENDMDL
MODEL 3
REMARK VINA RESULT:      -8.6      8.039     11.689
REMARK  6 active torsions:
REMARK  status: ('A' for Active; 'I' for Inactive)
REMARK    1  A    between atoms: O_2  and  C_3 
REMARK    2  A    between atoms: C_6  and  C_7 
REMARK    3  A    between atoms: C_11  and  C_12 
REMARK       I    between atoms: C_12  and  N_13 
REMARK    4  A    between atoms: N_13  and  N_14 
REMARK       I    between atoms: N_14  and  C_15 
REMARK    5  A    between atoms: C_15  and  C_16 
REMARK    6  A    between atoms: C_17  and  C_18 
ROOT
HETATM    1  C   UNL     1     -44.698  57.889 -51.159  1.00  0.00     0.288 C 
HETATM    2  N   UNL     1     -43.952  59.005 -50.848  1.00  0.00    -0.262 N 
HETATM    3  O   UNL     1     -45.874  57.773 -50.817  1.00  0.00    -0.264 OA
HETATM    4  H   UNL     1     -43.005  59.167 -51.178  1.00  0.00     0.190 HD
ENDROOT
BRANCH   1   5
HETATM    5  C   UNL     1     -44.008  56.867 -51.897  1.00  0.00     0.121 A 
HETATM    6  N   UNL     1     -44.351  56.562 -53.184  1.00  0.00    -0.272 N 
HETATM    7  N   UNL     1     -43.649  55.554 -53.717  1.00  0.00    -0.174 NA
HETATM    8  H   UNL     1     -45.075  57.006 -53.742  1.00  0.00     0.189 HD
HETATM    9  C   UNL     1     -42.794  55.184 -52.750  1.00  0.00     0.089 A 
HETATM   10  C   UNL     1     -42.981  55.995 -51.594  1.00  0.00     0.071 A 
BRANCH   9  11
HETATM   11  C   UNL     1     -41.859  54.069 -52.935  1.00  0.00    -0.005 A 
HETATM   12  C   UNL     1     -41.727  53.428 -54.172  1.00  0.00     0.016 A 
HETATM   13  C   UNL     1     -40.807  52.387 -54.336  1.00  0.00     0.037 A 
HETATM   14  C   UNL     1     -40.000  51.969 -53.275  1.00  0.00     0.068 A 
HETATM   15  C   UNL     1     -40.136  52.592 -52.036  1.00  0.00     0.037 A 
HETATM   16  C   UNL     1     -41.060  53.632 -51.869  1.00  0.00     0.016 A 
BRANCH  14  17
HETATM   17  O   UNL     1     -39.136  50.954 -53.575  1.00  0.00    -0.356 OA
HETATM   18  C   UNL     1     -39.634  49.917 -54.411  1.00  0.00     0.210 C 
ENDBRANCH  14  17
ENDBRANCH   9  11
ENDBRANCH   1   5
BRANCH   2  19
HETATM   19  N   UNL     1     -44.559  60.044 -50.140  1.00  0.00    -0.267 N 
HETATM   20  C   UNL     1     -44.746  61.255 -50.762  1.00  0.00     0.240 C 
HETATM   21  O   UNL     1     -44.412  61.498 -51.916  1.00  0.00    -0.271 OA
HETATM   22  H   UNL     1     -44.789  59.876 -49.161  1.00  0.00     0.190 HD
BRANCH  20  23
HETATM   23  C   UNL     1     -45.372  62.276 -49.890  1.00  0.00     0.089 A 
HETATM   24  C   UNL     1     -44.457  63.103 -48.996  1.00  0.00     0.036 A 
HETATM   25  C   UNL     1     -45.210  63.753 -50.128  1.00  0.00     0.025 A 
BRANCH  24  26
HETATM   26  C   UNL     1     -44.852  63.278 -47.550  1.00  0.00    -0.015 A 
HETATM   27  C   UNL     1     -44.852  62.184 -46.669  1.00  0.00     0.123 A 
HETATM   28  F   UNL     1     -44.525  60.968 -47.136  1.00  0.00    -0.206 F 
HETATM   29  C   UNL     1     -45.187  62.311 -45.323  1.00  0.00     0.043 A 
HETATM   30  C   UNL     1     -45.538  63.559 -44.818  1.00  0.00     0.003 A 
HETATM   31  C   UNL     1     -45.545  64.667 -45.664  1.00  0.00     0.001 A 
HETATM   32  C   UNL     1     -45.201  64.527 -47.013  1.00  0.00     0.011 A 
ENDBRANCH  24  26
ENDBRANCH  20  23
ENDBRANCH   2  19
TORSDOF 6
ENDMDL
MODEL 4
REMARK VINA RESULT:      -8.3      3.034      3.617
REMARK  6 active torsions:
REMARK  status: ('A' for Active; 'I' for Inactive)
REMARK    1  A    between atoms: O_2  and  C_3 
REMARK    2  A    between atoms: C_6  and  C_7 
REMARK    3  A    between atoms: C_11  and  C_12 
REMARK       I    between atoms: C_12  and  N_13 
REMARK    4  A    between atoms: N_13  and  N_14 
REMARK       I    between atoms: N_14  and  C_15 
REMARK    5  A    between atoms: C_15  and  C_16 
REMARK    6  A    between atoms: C_17  and  C_18 
ROOT
HETATM    1  C   UNL     1     -42.787  55.713 -56.499  1.00  0.00     0.288 C 
HETATM    2  N   UNL     1     -43.570  55.552 -55.376  1.00  0.00    -0.262 N 
HETATM    3  O   UNL     1     -41.747  55.076 -56.665  1.00  0.00    -0.264 OA
HETATM    4  H   UNL     1     -44.470  56.004 -55.241  1.00  0.00     0.190 HD
ENDROOT
BRANCH   1   5
HETATM    5  C   UNL     1     -43.256  56.681 -57.451  1.00  0.00     0.121 A 
HETATM    6  N   UNL     1     -44.589  56.927 -57.620  1.00  0.00    -0.272 N 
HETATM    7  N   UNL     1     -44.867  57.819 -58.579  1.00  0.00    -0.174 NA
HETATM    8  H   UNL     1     -45.356  56.495 -57.113  1.00  0.00     0.189 HD
HETATM    9  C   UNL     1     -43.669  58.194 -59.055  1.00  0.00     0.089 A 
HETATM   10  C   UNL     1     -42.630  57.510 -58.361  1.00  0.00     0.071 A 
BRANCH   9  11
HETATM   11  C   UNL     1     -43.546  59.153 -60.158  1.00  0.00    -0.005 A 
HETATM   12  C   UNL     1     -44.675  59.729 -60.751  1.00  0.00     0.016 A 
HETATM   13  C   UNL     1     -44.534  60.665 -61.782  1.00  0.00     0.037 A 
HETATM   14  C   UNL     1     -43.270  61.048 -62.236  1.00  0.00     0.068 A 
HETATM   15  C   UNL     1     -42.141  60.468 -61.661  1.00  0.00     0.037 A 
HETATM   16  C   UNL     1     -42.280  59.527 -60.632  1.00  0.00     0.016 A 
BRANCH  14  17
HETATM   17  O   UNL     1     -43.276  61.979 -63.235  1.00  0.00    -0.356 OA
HETATM   18  C   UNL     1     -44.467  62.741 -63.393  1.00  0.00     0.210 C 
ENDBRANCH  14  17
ENDBRANCH   9  11
ENDBRANCH   1   5
BRANCH   2  19
HETATM   19  N   UNL     1     -43.181  54.621 -54.412  1.00  0.00    -0.267 N 
HETATM   20  C   UNL     1     -42.463  55.050 -53.322  1.00  0.00     0.240 C 
HETATM   21  O   UNL     1     -42.130  56.214 -53.128  1.00  0.00    -0.271 OA
HETATM   22  H   UNL     1     -43.399  53.641 -54.588  1.00  0.00     0.190 HD
BRANCH  20  23
HETATM   23  C   UNL     1     -42.090  53.957 -52.394  1.00  0.00     0.089 A 
HETATM   24  C   UNL     1     -40.613  53.610 -52.264  1.00  0.00     0.036 A 
HETATM   25  C   UNL     1     -41.362  54.207 -51.100  1.00  0.00     0.025 A 
BRANCH  24  26
HETATM   26  C   UNL     1     -40.221  52.154 -52.318  1.00  0.00    -0.015 A 
HETATM   27  C   UNL     1     -40.128  51.482 -53.548  1.00  0.00     0.123 A 
HETATM   28  F   UNL     1     -40.422  52.144 -54.679  1.00  0.00    -0.206 F 
HETATM   29  C   UNL     1     -39.746  50.146 -53.640  1.00  0.00     0.043 A 
HETATM   30  C   UNL     1     -39.446  49.437 -52.481  1.00  0.00     0.003 A 
HETATM   31  C   UNL     1     -39.525  50.074 -51.243  1.00  0.00     0.001 A 
HETATM   32  C   UNL     1     -39.903  51.419 -51.166  1.00  0.00     0.011 A 
ENDBRANCH  24  26
ENDBRANCH  20  23
ENDBRANCH   2  19
TORSDOF 6
ENDMDL
MODEL 5
REMARK VINA RESULT:      -8.3      1.991      2.463
REMARK  6 active torsions:
REMARK  status: ('A' for Active; 'I' for Inactive)
REMARK    1  A    between atoms: O_2  and  C_3 
REMARK    2  A    between atoms: C_6  and  C_7 
REMARK    3  A    between atoms: C_11  and  C_12 
REMARK       I    between atoms: C_12  and  N_13 
REMARK    4  A    between atoms: N_13  and  N_14 
REMARK       I    between atoms: N_14  and  C_15 
REMARK    5  A    between atoms: C_15  and  C_16 
REMARK    6  A    between atoms: C_17  and  C_18 
ROOT
HETATM    1  C   UNL     1     -43.035  57.202 -57.335  1.00  0.00     0.288 C 
HETATM    2  N   UNL     1     -42.499  55.932 -57.339  1.00  0.00    -0.262 N 
HETATM    3  O   UNL     1     -42.806  58.003 -56.430  1.00  0.00    -0.264 OA
HETATM    4  H   UNL     1     -42.605  55.273 -58.105  1.00  0.00     0.190 HD
ENDROOT
BRANCH   1   5
HETATM    5  C   UNL     1     -43.888  57.521 -58.445  1.00  0.00     0.121 A 
HETATM    6  N   UNL     1     -43.507  58.421 -59.401  1.00  0.00    -0.272 N 
HETATM    7  N   UNL     1     -44.432  58.647 -60.343  1.00  0.00    -0.174 NA
HETATM    8  H   UNL     1     -42.626  58.924 -59.446  1.00  0.00     0.189 HD
HETATM    9  C   UNL     1     -45.462  57.854 -60.009  1.00  0.00     0.089 A 
HETATM   10  C   UNL     1     -45.153  57.120 -58.828  1.00  0.00     0.071 A 
BRANCH   9  11
HETATM   11  C   UNL     1     -46.704  57.837 -60.789  1.00  0.00    -0.005 A 
HETATM   12  C   UNL     1     -47.366  59.022 -61.130  1.00  0.00     0.016 A 
HETATM   13  C   UNL     1     -48.533  58.985 -61.901  1.00  0.00     0.037 A 
HETATM   14  C   UNL     1     -49.057  57.771 -62.351  1.00  0.00     0.068 A 
HETATM   15  C   UNL     1     -48.412  56.586 -62.004  1.00  0.00     0.037 A 
HETATM   16  C   UNL     1     -47.247  56.620 -61.227  1.00  0.00     0.016 A 
BRANCH  14  17
HETATM   17  O   UNL     1     -50.191  57.879 -63.107  1.00  0.00    -0.356 OA
HETATM   18  C   UNL     1     -50.893  59.114 -63.033  1.00  0.00     0.210 C 
ENDBRANCH  14  17
ENDBRANCH   9  11
ENDBRANCH   1   5
BRANCH   2  19
HETATM   19  N   UNL     1     -41.652  55.555 -56.296  1.00  0.00    -0.267 N 
HETATM   20  C   UNL     1     -42.059  54.567 -55.431  1.00  0.00     0.240 C 
HETATM   21  O   UNL     1     -43.131  53.980 -55.509  1.00  0.00    -0.271 OA
HETATM   22  H   UNL     1     -40.783  56.075 -56.183  1.00  0.00     0.190 HD
BRANCH  20  23
HETATM   23  C   UNL     1     -41.081  54.287 -54.355  1.00  0.00     0.089 A 
HETATM   24  C   UNL     1     -41.482  53.293 -53.273  1.00  0.00     0.036 A 
HETATM   25  C   UNL     1     -40.367  52.967 -54.233  1.00  0.00     0.025 A 
BRANCH  24  26
HETATM   26  C   UNL     1     -41.231  53.674 -51.835  1.00  0.00    -0.015 A 
HETATM   27  C   UNL     1     -42.194  54.390 -51.105  1.00  0.00     0.123 A 
HETATM   28  F   UNL     1     -43.333  54.761 -51.712  1.00  0.00    -0.206 F 
HETATM   29  C   UNL     1     -42.009  54.738 -49.769  1.00  0.00     0.043 A 
HETATM   30  C   UNL     1     -40.833  54.373 -49.121  1.00  0.00     0.003 A 
HETATM   31  C   UNL     1     -39.857  53.659 -49.815  1.00  0.00     0.001 A 
HETATM   32  C   UNL     1     -40.058  53.310 -51.155  1.00  0.00     0.011 A 
ENDBRANCH  24  26
ENDBRANCH  20  23
ENDBRANCH   2  19
TORSDOF 6
ENDMDL
MODEL 6
REMARK VINA RESULT:      -8.2      8.555     10.605
REMARK  6 active torsions:
REMARK  status: ('A' for Active; 'I' for Inactive)
REMARK    1  A    between atoms: O_2  and  C_3 
REMARK    2  A    between atoms: C_6  and  C_7 
REMARK    3  A    between atoms: C_11  and  C_12 
REMARK       I    between atoms: C_12  and  N_13 
REMARK    4  A    between atoms: N_13  and  N_14 
REMARK       I    between atoms: N_14  and  C_15 
REMARK    5  A    between atoms: C_15  and  C_16 
REMARK    6  A    between atoms: C_17  and  C_18 
ROOT
HETATM    1  C   UNL     1     -43.707  60.073 -51.491  1.00  0.00     0.288 C 
HETATM    2  N   UNL     1     -43.181  58.897 -51.001  1.00  0.00    -0.262 N 
HETATM    3  O   UNL     1     -43.877  60.259 -52.696  1.00  0.00    -0.264 OA
HETATM    4  H   UNL     1     -43.097  58.681 -50.012  1.00  0.00     0.190 HD
ENDROOT
BRANCH   1   5
HETATM    5  C   UNL     1     -44.030  61.069 -50.508  1.00  0.00     0.121 A 
HETATM    6  N   UNL     1     -43.291  62.210 -50.379  1.00  0.00    -0.272 N 
HETATM    7  N   UNL     1     -43.688  63.015 -49.385  1.00  0.00    -0.174 NA
HETATM    8  H   UNL     1     -42.488  62.481 -50.939  1.00  0.00     0.189 HD
HETATM    9  C   UNL     1     -44.745  62.390 -48.841  1.00  0.00     0.089 A 
HETATM   10  C   UNL     1     -44.999  61.168 -49.529  1.00  0.00     0.071 A 
BRANCH   9  11
HETATM   11  C   UNL     1     -45.455  62.945 -47.684  1.00  0.00    -0.005 A 
HETATM   12  C   UNL     1     -46.678  62.416 -47.257  1.00  0.00     0.016 A 
HETATM   13  C   UNL     1     -47.324  62.941 -46.132  1.00  0.00     0.037 A 
HETATM   14  C   UNL     1     -46.761  63.995 -45.409  1.00  0.00     0.068 A 
HETATM   15  C   UNL     1     -45.551  64.538 -45.837  1.00  0.00     0.037 A 
HETATM   16  C   UNL     1     -44.906  64.017 -46.966  1.00  0.00     0.016 A 
BRANCH  14  17
HETATM   17  O   UNL     1     -47.487  64.401 -44.325  1.00  0.00    -0.356 OA
HETATM   18  C   UNL     1     -46.752  64.782 -43.169  1.00  0.00     0.210 C 
ENDBRANCH  14  17
ENDBRANCH   9  11
ENDBRANCH   1   5
BRANCH   2  19
HETATM   19  N   UNL     1     -42.852  57.881 -51.898  1.00  0.00    -0.267 N 
HETATM   20  C   UNL     1     -41.837  57.012 -51.579  1.00  0.00     0.240 C 
HETATM   21  O   UNL     1     -41.185  57.062 -50.542  1.00  0.00    -0.271 OA
HETATM   22  H   UNL     1     -43.345  57.862 -52.790  1.00  0.00     0.190 HD
BRANCH  20  23
HETATM   23  C   UNL     1     -41.572  56.002 -52.630  1.00  0.00     0.089 A 
HETATM   24  C   UNL     1     -42.124  54.599 -52.421  1.00  0.00     0.036 A 
HETATM   25  C   UNL     1     -42.652  55.469 -53.532  1.00  0.00     0.025 A 
BRANCH  24  26
HETATM   26  C   UNL     1     -41.201  53.431 -52.672  1.00  0.00    -0.015 A 
HETATM   27  C   UNL     1     -40.419  52.900 -51.633  1.00  0.00     0.123 A 
HETATM   28  F   UNL     1     -40.479  53.462 -50.415  1.00  0.00    -0.206 F 
HETATM   29  C   UNL     1     -39.575  51.808 -51.820  1.00  0.00     0.043 A 
HETATM   30  C   UNL     1     -39.489  51.214 -53.075  1.00  0.00     0.003 A 
HETATM   31  C   UNL     1     -40.253  51.714 -54.129  1.00  0.00     0.001 A 
HETATM   32  C   UNL     1     -41.103  52.807 -53.925  1.00  0.00     0.011 A 
ENDBRANCH  24  26
ENDBRANCH  20  23
ENDBRANCH   2  19
TORSDOF 6
ENDMDL
MODEL 7
REMARK VINA RESULT:      -8.1     16.864     22.163
REMARK  6 active torsions:
REMARK  status: ('A' for Active; 'I' for Inactive)
REMARK    1  A    between atoms: O_2  and  C_3 
REMARK    2  A    between atoms: C_6  and  C_7 
REMARK    3  A    between atoms: C_11  and  C_12 
REMARK       I    between atoms: C_12  and  N_13 
REMARK    4  A    between atoms: N_13  and  N_14 
REMARK       I    between atoms: N_14  and  C_15 
REMARK    5  A    between atoms: C_15  and  C_16 
REMARK    6  A    between atoms: C_17  and  C_18 
ROOT
HETATM    1  C   UNL     1     -33.898  40.283 -51.934  1.00  0.00     0.288 C 
HETATM    2  N   UNL     1     -33.134  40.713 -52.998  1.00  0.00    -0.262 N 
HETATM    3  O   UNL     1     -35.125  40.377 -51.932  1.00  0.00    -0.264 OA
HETATM    4  H   UNL     1     -32.129  40.583 -53.065  1.00  0.00     0.190 HD
ENDROOT
BRANCH   1   5
HETATM    5  C   UNL     1     -33.168  39.732 -50.826  1.00  0.00     0.121 A 
HETATM    6  N   UNL     1     -32.640  38.472 -50.877  1.00  0.00    -0.272 N 
HETATM    7  N   UNL     1     -32.032  38.085 -49.748  1.00  0.00    -0.174 NA
HETATM    8  H   UNL     1     -32.683  37.826 -51.659  1.00  0.00     0.189 HD
HETATM    9  C   UNL     1     -32.147  39.136 -48.920  1.00  0.00     0.089 A 
HETATM   10  C   UNL     1     -32.844  40.196 -49.567  1.00  0.00     0.071 A 
BRANCH   9  11
HETATM   11  C   UNL     1     -31.627  39.095 -47.549  1.00  0.00    -0.005 A 
HETATM   12  C   UNL     1     -30.634  39.983 -47.120  1.00  0.00     0.016 A 
HETATM   13  C   UNL     1     -30.173  39.947 -45.799  1.00  0.00     0.037 A 
HETATM   14  C   UNL     1     -30.695  39.031 -44.882  1.00  0.00     0.068 A 
HETATM   15  C   UNL     1     -31.673  38.133 -45.306  1.00  0.00     0.037 A 
HETATM   16  C   UNL     1     -32.132  38.165 -46.629  1.00  0.00     0.016 A 
BRANCH  14  17
HETATM   17  O   UNL     1     -30.168  39.113 -43.625  1.00  0.00    -0.356 OA
HETATM   18  C   UNL     1     -29.065  39.994 -43.450  1.00  0.00     0.210 C 
ENDBRANCH  14  17
ENDBRANCH   9  11
ENDBRANCH   1   5
BRANCH   2  19
HETATM   19  N   UNL     1     -33.776  41.252 -54.113  1.00  0.00    -0.267 N 
HETATM   20  C   UNL     1     -33.470  40.763 -55.360  1.00  0.00     0.240 C 
HETATM   21  O   UNL     1     -32.658  39.869 -55.571  1.00  0.00    -0.271 OA
HETATM   22  H   UNL     1     -34.410  42.035 -53.959  1.00  0.00     0.190 HD
BRANCH  20  23
HETATM   23  C   UNL     1     -34.199  41.442 -56.456  1.00  0.00     0.089 A 
HETATM   24  C   UNL     1     -35.695  41.187 -56.577  1.00  0.00     0.036 A 
HETATM   25  C   UNL     1     -35.182  42.555 -56.207  1.00  0.00     0.025 A 
BRANCH  24  26
HETATM   26  C   UNL     1     -36.250  40.869 -57.944  1.00  0.00    -0.015 A 
HETATM   27  C   UNL     1     -36.185  39.564 -58.459  1.00  0.00     0.123 A 
HETATM   28  F   UNL     1     -35.594  38.602 -57.731  1.00  0.00    -0.206 F 
HETATM   29  C   UNL     1     -36.707  39.227 -59.705  1.00  0.00     0.043 A 
HETATM   30  C   UNL     1     -37.316  40.208 -60.482  1.00  0.00     0.003 A 
HETATM   31  C   UNL     1     -37.401  41.514 -60.001  1.00  0.00     0.001 A 
HETATM   32  C   UNL     1     -36.878  41.837 -58.744  1.00  0.00     0.011 A 
ENDBRANCH  24  26
ENDBRANCH  20  23
ENDBRANCH   2  19
TORSDOF 6
ENDMDL
MODEL 8
REMARK VINA RESULT:      -8.1      6.899      7.446
REMARK  6 active torsions:
REMARK  status: ('A' for Active; 'I' for Inactive)
REMARK    1  A    between atoms: O_2  and  C_3 
REMARK    2  A    between atoms: C_6  and  C_7 
REMARK    3  A    between atoms: C_11  and  C_12 
REMARK       I    between atoms: C_12  and  N_13 
REMARK    4  A    between atoms: N_13  and  N_14 
REMARK       I    between atoms: N_14  and  C_15 
REMARK    5  A    between atoms: C_15  and  C_16 
REMARK    6  A    between atoms: C_17  and  C_18 
ROOT
HETATM    1  C   UNL     1     -42.130  58.107 -51.239  1.00  0.00     0.288 C 
HETATM    2  N   UNL     1     -42.658  57.054 -50.522  1.00  0.00    -0.262 N 
HETATM    3  O   UNL     1     -41.020  58.044 -51.766  1.00  0.00    -0.264 OA
HETATM    4  H   UNL     1     -43.599  57.043 -50.138  1.00  0.00     0.190 HD
ENDROOT
BRANCH   1   5
HETATM    5  C   UNL     1     -42.952  59.281 -51.317  1.00  0.00     0.121 A 
HETATM    6  N   UNL     1     -42.426  60.532 -51.156  1.00  0.00    -0.272 N 
HETATM    7  N   UNL     1     -43.329  61.520 -51.207  1.00  0.00    -0.174 NA
HETATM    8  H   UNL     1     -41.452  60.765 -50.990  1.00  0.00     0.189 HD
HETATM    9  C   UNL     1     -44.501  60.901 -51.427  1.00  0.00     0.089 A 
HETATM   10  C   UNL     1     -44.302  59.493 -51.516  1.00  0.00     0.071 A 
BRANCH   9  11
HETATM   11  C   UNL     1     -45.760  61.648 -51.517  1.00  0.00    -0.005 A 
HETATM   12  C   UNL     1     -46.702  61.371 -52.513  1.00  0.00     0.016 A 
HETATM   13  C   UNL     1     -47.911  62.075 -52.562  1.00  0.00     0.037 A 
HETATM   14  C   UNL     1     -48.204  63.062 -51.618  1.00  0.00     0.068 A 
HETATM   15  C   UNL     1     -47.264  63.356 -50.633  1.00  0.00     0.037 A 
HETATM   16  C   UNL     1     -46.052  62.655 -50.585  1.00  0.00     0.016 A 
BRANCH  14  17
HETATM   17  O   UNL     1     -49.422  63.661 -51.773  1.00  0.00    -0.356 OA
HETATM   18  C   UNL     1     -50.229  63.200 -52.849  1.00  0.00     0.210 C 
ENDBRANCH  14  17
ENDBRANCH   9  11
ENDBRANCH   1   5
BRANCH   2  19
HETATM   19  N   UNL     1     -41.918  55.876 -50.411  1.00  0.00    -0.267 N 
HETATM   20  C   UNL     1     -42.300  54.777 -51.142  1.00  0.00     0.240 C 
HETATM   21  O   UNL     1     -43.262  54.753 -51.901  1.00  0.00    -0.271 OA
HETATM   22  H   UNL     1     -41.151  55.863 -49.740  1.00  0.00     0.190 HD
BRANCH  20  23
HETATM   23  C   UNL     1     -41.448  53.588 -50.908  1.00  0.00     0.089 A 
HETATM   24  C   UNL     1     -40.237  53.394 -51.811  1.00  0.00     0.036 A 
HETATM   25  C   UNL     1     -40.056  53.687 -50.344  1.00  0.00     0.025 A 
BRANCH  24  26
HETATM   26  C   UNL     1     -40.008  52.025 -52.401  1.00  0.00    -0.015 A 
HETATM   27  C   UNL     1     -40.101  51.816 -53.787  1.00  0.00     0.123 A 
HETATM   28  F   UNL     1     -40.428  52.847 -54.583  1.00  0.00    -0.206 F 
HETATM   29  C   UNL     1     -39.872  50.572 -54.370  1.00  0.00     0.043 A 
HETATM   30  C   UNL     1     -39.541  49.487 -53.565  1.00  0.00     0.003 A 
HETATM   31  C   UNL     1     -39.437  49.659 -52.185  1.00  0.00     0.001 A 
HETATM   32  C   UNL     1     -39.663  50.915 -51.613  1.00  0.00     0.011 A 
ENDBRANCH  24  26
ENDBRANCH  20  23
ENDBRANCH   2  19
TORSDOF 6
ENDMDL
MODEL 9
REMARK VINA RESULT:      -8.1      1.862      2.343
REMARK  6 active torsions:
REMARK  status: ('A' for Active; 'I' for Inactive)
REMARK    1  A    between atoms: O_2  and  C_3 
REMARK    2  A    between atoms: C_6  and  C_7 
REMARK    3  A    between atoms: C_11  and  C_12 
REMARK       I    between atoms: C_12  and  N_13 
REMARK    4  A    between atoms: N_13  and  N_14 
REMARK       I    between atoms: N_14  and  C_15 
REMARK    5  A    between atoms: C_15  and  C_16 
REMARK    6  A    between atoms: C_17  and  C_18 
ROOT
HETATM    1  C   UNL     1     -43.779  56.683 -57.950  1.00  0.00     0.288 C 
HETATM    2  N   UNL     1     -43.313  55.423 -57.641  1.00  0.00    -0.262 N 
HETATM    3  O   UNL     1     -43.310  57.696 -57.432  1.00  0.00    -0.264 OA
HETATM    4  H   UNL     1     -43.624  54.573 -58.103  1.00  0.00     0.190 HD
ENDROOT
BRANCH   1   5
HETATM    5  C   UNL     1     -44.853  56.733 -58.903  1.00  0.00     0.121 A 
HETATM    6  N   UNL     1     -45.216  55.632 -59.626  1.00  0.00    -0.272 N 
HETATM    7  N   UNL     1     -46.200  55.853 -60.507  1.00  0.00    -0.174 NA
HETATM    8  H   UNL     1     -44.808  54.704 -59.566  1.00  0.00     0.189 HD
HETATM    9  C   UNL     1     -46.514  57.149 -60.352  1.00  0.00     0.089 A 
HETATM   10  C   UNL     1     -45.697  57.734 -59.342  1.00  0.00     0.071 A 
BRANCH   9  11
HETATM   11  C   UNL     1     -47.544  57.794 -61.173  1.00  0.00    -0.005 A 
HETATM   12  C   UNL     1     -47.732  59.181 -61.148  1.00  0.00     0.016 A 
HETATM   13  C   UNL     1     -48.700  59.780 -61.963  1.00  0.00     0.037 A 
HETATM   14  C   UNL     1     -49.491  59.011 -62.819  1.00  0.00     0.068 A 
HETATM   15  C   UNL     1     -49.321  57.628 -62.839  1.00  0.00     0.037 A 
HETATM   16  C   UNL     1     -48.356  57.027 -62.020  1.00  0.00     0.016 A 
BRANCH  14  17
HETATM   17  O   UNL     1     -50.385  59.723 -63.569  1.00  0.00    -0.356 OA
HETATM   18  C   UNL     1     -51.761  59.410 -63.390  1.00  0.00     0.210 C 
ENDBRANCH  14  17
ENDBRANCH   9  11
ENDBRANCH   1   5
BRANCH   2  19
HETATM   19  N   UNL     1     -42.264  55.298 -56.729  1.00  0.00    -0.267 N 
HETATM   20  C   UNL     1     -42.512  54.736 -55.500  1.00  0.00     0.240 C 
HETATM   21  O   UNL     1     -43.608  54.326 -55.136  1.00  0.00    -0.271 OA
HETATM   22  H   UNL     1     -41.360  55.687 -56.995  1.00  0.00     0.190 HD
BRANCH  20  23
HETATM   23  C   UNL     1     -41.321  54.691 -54.621  1.00  0.00     0.089 A 
HETATM   24  C   UNL     1     -41.258  53.595 -53.566  1.00  0.00     0.036 A 
HETATM   25  C   UNL     1     -40.284  53.603 -54.716  1.00  0.00     0.025 A 
BRANCH  24  26
HETATM   26  C   UNL     1     -40.863  53.985 -52.163  1.00  0.00    -0.015 A 
HETATM   27  C   UNL     1     -39.934  53.219 -51.441  1.00  0.00     0.123 A 
HETATM   28  F   UNL     1     -39.419  52.113 -52.003  1.00  0.00    -0.206 F 
HETATM   29  C   UNL     1     -39.527  53.561 -50.153  1.00  0.00     0.043 A 
HETATM   30  C   UNL     1     -40.053  54.697 -49.546  1.00  0.00     0.003 A 
HETATM   31  C   UNL     1     -40.977  55.482 -50.236  1.00  0.00     0.001 A 
HETATM   32  C   UNL     1     -41.372  55.131 -51.531  1.00  0.00     0.011 A 
ENDBRANCH  24  26
ENDBRANCH  20  23
ENDBRANCH   2  19
TORSDOF 6
ENDMDL
MODEL 10
REMARK VINA RESULT:      -8.0     10.175     12.929
REMARK  6 active torsions:
REMARK  status: ('A' for Active; 'I' for Inactive)
REMARK    1  A    between atoms: O_2  and  C_3 
REMARK    2  A    between atoms: C_6  and  C_7 
REMARK    3  A    between atoms: C_11  and  C_12 
REMARK       I    between atoms: C_12  and  N_13 
REMARK    4  A    between atoms: N_13  and  N_14 
REMARK       I    between atoms: N_14  and  C_15 
REMARK    5  A    between atoms: C_15  and  C_16 
REMARK    6  A    between atoms: C_17  and  C_18 
ROOT
HETATM    1  C   UNL     1     -45.209  60.815 -49.244  1.00  0.00     0.288 C 
HETATM    2  N   UNL     1     -44.008  60.273 -49.647  1.00  0.00    -0.262 N 
HETATM    3  O   UNL     1     -46.267  60.553 -49.816  1.00  0.00    -0.264 OA
HETATM    4  H   UNL     1     -43.130  60.407 -49.154  1.00  0.00     0.190 HD
ENDROOT
BRANCH   1   5
HETATM    5  C   UNL     1     -45.143  61.712 -48.124  1.00  0.00     0.121 A 
HETATM    6  N   UNL     1     -44.881  63.043 -48.291  1.00  0.00    -0.272 N 
HETATM    7  N   UNL     1     -44.803  63.736 -47.148  1.00  0.00    -0.174 NA
HETATM    8  H   UNL     1     -44.730  63.527 -49.171  1.00  0.00     0.189 HD
HETATM    9  C   UNL     1     -45.039  62.833 -46.183  1.00  0.00     0.089 A 
HETATM   10  C   UNL     1     -45.270  61.550 -46.759  1.00  0.00     0.071 A 
BRANCH   9  11
HETATM   11  C   UNL     1     -45.009  63.199 -44.763  1.00  0.00    -0.005 A 
HETATM   12  C   UNL     1     -44.131  62.575 -43.869  1.00  0.00     0.016 A 
HETATM   13  C   UNL     1     -44.097  62.961 -42.524  1.00  0.00     0.037 A 
HETATM   14  C   UNL     1     -44.930  63.976 -42.048  1.00  0.00     0.068 A 
HETATM   15  C   UNL     1     -45.817  64.591 -42.928  1.00  0.00     0.037 A 
HETATM   16  C   UNL     1     -45.856  64.203 -44.274  1.00  0.00     0.016 A 
BRANCH  14  17
HETATM   17  O   UNL     1     -44.784  64.263 -40.720  1.00  0.00    -0.356 OA
HETATM   18  C   UNL     1     -45.503  63.443 -39.806  1.00  0.00     0.210 C 
ENDBRANCH  14  17
ENDBRANCH   9  11
ENDBRANCH   1   5
BRANCH   2  19
HETATM   19  N   UNL     1     -43.997  59.385 -50.723  1.00  0.00    -0.267 N 
HETATM   20  C   UNL     1     -42.797  58.869 -51.150  1.00  0.00     0.240 C 
HETATM   21  O   UNL     1     -41.712  59.134 -50.646  1.00  0.00    -0.271 OA
HETATM   22  H   UNL     1     -44.884  59.201 -51.191  1.00  0.00     0.190 HD
BRANCH  20  23
HETATM   23  C   UNL     1     -42.925  57.965 -52.317  1.00  0.00     0.089 A 
HETATM   24  C   UNL     1     -43.336  56.523 -52.056  1.00  0.00     0.036 A 
HETATM   25  C   UNL     1     -44.255  57.454 -52.803  1.00  0.00     0.025 A 
BRANCH  24  26
HETATM   26  C   UNL     1     -42.553  55.430 -52.740  1.00  0.00    -0.015 A 
HETATM   27  C   UNL     1     -41.331  54.983 -52.211  1.00  0.00     0.123 A 
HETATM   28  F   UNL     1     -40.849  55.563 -51.100  1.00  0.00    -0.206 F 
HETATM   29  C   UNL     1     -40.592  53.961 -52.801  1.00  0.00     0.043 A 
HETATM   30  C   UNL     1     -41.067  53.351 -53.959  1.00  0.00     0.003 A 
HETATM   31  C   UNL     1     -42.278  53.767 -54.510  1.00  0.00     0.001 A 
HETATM   32  C   UNL     1     -43.014  54.791 -53.903  1.00  0.00     0.011 A 
ENDBRANCH  24  26
ENDBRANCH  20  23
ENDBRANCH   2  19
TORSDOF 6
ENDMDL
