MODEL 1
REMARK VINA RESULT:      -8.2      0.000      0.000
REMARK  6 active torsions:
REMARK  status: ('A' for Active; 'I' for Inactive)
REMARK    1  A    between atoms: C_3  and  N_4 
REMARK       I    between atoms: N_4  and  C_5 
REMARK    2  A    between atoms: C_5  and  C_6 
REMARK    3  A    between atoms: C_6  and  C_7 
REMARK    4  A    between atoms: C_7  and  N_8 
REMARK    5  A    between atoms: C_13  and  C_14 
REMARK    6  A    between atoms: C_17  and  O_18 
ROOT
HETATM    1  N   UNL     1     -42.047  58.319 -55.359  1.00  0.00    -0.305 N 
HETATM    2  C   UNL     1     -41.841  59.374 -54.501  1.00  0.00     0.196 A 
HETATM    3  S   UNL     1     -41.339  59.384 -52.924  1.00  0.00    -0.039 SA
HETATM    4  N   UNL     1     -42.110  60.523 -55.222  1.00  0.00    -0.251 N 
HETATM    5  N   UNL     1     -42.480  60.212 -56.492  1.00  0.00    -0.153 NA
HETATM    6  C   UNL     1     -42.450  58.909 -56.532  1.00  0.00     0.162 A 
HETATM    7  H   UNL     1     -42.050  61.480 -54.896  1.00  0.00     0.191 HD
ENDROOT
BRANCH   1   8
HETATM    8  C   UNL     1     -41.808  56.895 -55.074  1.00  0.00     0.142 C 
BRANCH   8   9
HETATM    9  C   UNL     1     -42.998  56.216 -54.409  1.00  0.00     0.123 C 
BRANCH   9  10
HETATM   10  C   UNL     1     -42.616  55.070 -53.496  1.00  0.00     0.223 C 
HETATM   11  N   UNL     1     -41.261  54.812 -53.449  1.00  0.00    -0.327 N 
HETATM   12  H   UNL     1     -40.653  55.620 -53.538  1.00  0.00     0.169 HD
HETATM   13  O   UNL     1     -43.487  54.448 -52.891  1.00  0.00    -0.273 OA
BRANCH  11  14
HETATM   14  C   UNL     1     -40.667  53.670 -52.863  1.00  0.00     0.042 A 
HETATM   15  C   UNL     1     -40.325  53.559 -51.500  1.00  0.00    -0.035 A 
HETATM   16  C   UNL     1     -40.614  54.612 -50.465  1.00  0.00     0.050 C 
HETATM   17  C   UNL     1     -39.712  52.372 -51.047  1.00  0.00     0.010 A 
HETATM   18  C   UNL     1     -39.494  51.297 -51.905  1.00  0.00     0.020 A 
HETATM   19  C   UNL     1     -39.894  51.393 -53.230  1.00  0.00     0.013 A 
HETATM   20  C   UNL     1     -40.485  52.563 -53.707  1.00  0.00     0.049 A 
HETATM   21 BR   UNL     1     -39.623  49.935 -54.402  1.00  0.00    -0.051 Br
ENDBRANCH  11  14
ENDBRANCH   9  10
ENDBRANCH   8   9
ENDBRANCH   1   8
BRANCH   6  22
HETATM   22  C   UNL     1     -42.779  58.162 -57.759  1.00  0.00     0.012 A 
HETATM   23  C   UNL     1     -44.024  57.530 -57.828  1.00  0.00     0.018 A 
HETATM   24  C   UNL     1     -44.368  56.795 -58.964  1.00  0.00     0.037 A 
HETATM   25  C   UNL     1     -43.478  56.678 -60.034  1.00  0.00     0.068 A 
HETATM   26  C   UNL     1     -42.225  57.287 -59.949  1.00  0.00     0.037 A 
HETATM   27  C   UNL     1     -41.869  58.017 -58.808  1.00  0.00     0.018 A 
BRANCH  25  28
HETATM   28  O   UNL     1     -43.942  55.933 -61.082  1.00  0.00    -0.356 OA
HETATM   29  C   UNL     1     -45.060  55.090 -60.832  1.00  0.00     0.210 C 
ENDBRANCH  25  28
ENDBRANCH   6  22
TORSDOF 6
ENDMDL
MODEL 2
REMARK VINA RESULT:      -7.9      3.155      5.303
REMARK  6 active torsions:
REMARK  status: ('A' for Active; 'I' for Inactive)
REMARK    1  A    between atoms: C_3  and  N_4 
REMARK       I    between atoms: N_4  and  C_5 
REMARK    2  A    between atoms: C_5  and  C_6 
REMARK    3  A    between atoms: C_6  and  C_7 
REMARK    4  A    between atoms: C_7  and  N_8 
REMARK    5  A    between atoms: C_13  and  C_14 
REMARK    6  A    between atoms: C_17  and  O_18 
ROOT
HETATM    1  N   UNL     1     -43.602  57.397 -56.567  1.00  0.00    -0.305 N 
HETATM    2  C   UNL     1     -44.619  57.702 -57.441  1.00  0.00     0.196 A 
HETATM    3  S   UNL     1     -44.902  57.162 -58.980  1.00  0.00    -0.039 SA
HETATM    4  N   UNL     1     -45.456  58.580 -56.777  1.00  0.00    -0.251 N 
HETATM    5  N   UNL     1     -44.988  58.830 -55.526  1.00  0.00    -0.153 NA
HETATM    6  C   UNL     1     -43.888  58.133 -55.443  1.00  0.00     0.162 A 
HETATM    7  H   UNL     1     -46.309  58.999 -57.127  1.00  0.00     0.191 HD
ENDROOT
BRANCH   1   8
HETATM    8  C   UNL     1     -42.511  56.436 -56.791  1.00  0.00     0.142 C 
BRANCH   8   9
HETATM    9  C   UNL     1     -42.740  55.105 -56.087  1.00  0.00     0.123 C 
BRANCH   9  10
HETATM   10  C   UNL     1     -41.672  54.759 -55.070  1.00  0.00     0.223 C 
HETATM   11  N   UNL     1     -41.985  53.682 -54.265  1.00  0.00    -0.327 N 
HETATM   12  H   UNL     1     -42.534  52.948 -54.702  1.00  0.00     0.169 HD
HETATM   13  O   UNL     1     -40.645  55.430 -55.004  1.00  0.00    -0.273 OA
BRANCH  11  14
HETATM   14  C   UNL     1     -41.276  53.297 -53.103  1.00  0.00     0.042 A 
HETATM   15  C   UNL     1     -40.357  52.230 -53.045  1.00  0.00    -0.035 A 
HETATM   16  C   UNL     1     -39.947  51.399 -54.230  1.00  0.00     0.050 C 
HETATM   17  C   UNL     1     -39.736  51.934 -51.814  1.00  0.00     0.010 A 
HETATM   18  C   UNL     1     -39.970  52.708 -50.680  1.00  0.00     0.020 A 
HETATM   19  C   UNL     1     -40.827  53.796 -50.766  1.00  0.00     0.013 A 
HETATM   20  C   UNL     1     -41.468  54.098 -51.966  1.00  0.00     0.049 A 
HETATM   21 BR   UNL     1     -41.139  54.868 -49.240  1.00  0.00    -0.051 Br
ENDBRANCH  11  14
ENDBRANCH   9  10
ENDBRANCH   8   9
ENDBRANCH   1   8
BRANCH   6  22
HETATM   22  C   UNL     1     -43.068  58.119 -54.220  1.00  0.00     0.012 A 
HETATM   23  C   UNL     1     -41.856  58.816 -54.234  1.00  0.00     0.018 A 
HETATM   24  C   UNL     1     -41.038  58.813 -53.103  1.00  0.00     0.037 A 
HETATM   25  C   UNL     1     -41.415  58.114 -51.954  1.00  0.00     0.068 A 
HETATM   26  C   UNL     1     -42.612  57.396 -51.952  1.00  0.00     0.037 A 
HETATM   27  C   UNL     1     -43.432  57.387 -53.088  1.00  0.00     0.018 A 
BRANCH  25  28
HETATM   28  O   UNL     1     -40.524  58.196 -50.920  1.00  0.00    -0.356 OA
HETATM   29  C   UNL     1     -39.532  59.211 -50.999  1.00  0.00     0.210 C 
ENDBRANCH  25  28
ENDBRANCH   6  22
TORSDOF 6
ENDMDL
MODEL 3
REMARK VINA RESULT:      -7.8     15.848     17.844
REMARK  6 active torsions:
REMARK  status: ('A' for Active; 'I' for Inactive)
REMARK    1  A    between atoms: C_3  and  N_4 
REMARK       I    between atoms: N_4  and  C_5 
REMARK    2  A    between atoms: C_5  and  C_6 
REMARK    3  A    between atoms: C_6  and  C_7 
REMARK    4  A    between atoms: C_7  and  N_8 
REMARK    5  A    between atoms: C_13  and  C_14 
REMARK    6  A    between atoms: C_17  and  O_18 
ROOT
HETATM    1  N   UNL     1     -36.862  39.949 -59.190  1.00  0.00    -0.305 N 
HETATM    2  C   UNL     1     -37.226  40.081 -60.509  1.00  0.00     0.196 A 
HETATM    3  S   UNL     1     -37.468  38.926 -61.671  1.00  0.00    -0.039 SA
HETATM    4  N   UNL     1     -37.403  41.434 -60.733  1.00  0.00    -0.251 N 
HETATM    5  N   UNL     1     -37.155  42.141 -59.599  1.00  0.00    -0.153 NA
HETATM    6  C   UNL     1     -36.823  41.239 -58.718  1.00  0.00     0.162 A 
HETATM    7  H   UNL     1     -37.682  41.883 -61.598  1.00  0.00     0.191 HD
ENDROOT
BRANCH   1   8
HETATM    8  C   UNL     1     -36.644  38.690 -58.461  1.00  0.00     0.142 C 
BRANCH   8   9
HETATM    9  C   UNL     1     -35.271  38.085 -58.721  1.00  0.00     0.123 C 
BRANCH   9  10
HETATM   10  C   UNL     1     -34.416  37.950 -57.478  1.00  0.00     0.223 C 
HETATM   11  N   UNL     1     -34.704  38.873 -56.492  1.00  0.00    -0.327 N 
HETATM   12  H   UNL     1     -35.677  39.151 -56.417  1.00  0.00     0.169 HD
HETATM   13  O   UNL     1     -33.544  37.086 -57.421  1.00  0.00    -0.273 OA
BRANCH  11  14
HETATM   14  C   UNL     1     -33.916  39.110 -55.341  1.00  0.00     0.042 A 
HETATM   15  C   UNL     1     -32.626  39.677 -55.360  1.00  0.00    -0.035 A 
HETATM   16  C   UNL     1     -31.938  40.179 -56.602  1.00  0.00     0.050 C 
HETATM   17  C   UNL     1     -31.934  39.836 -54.142  1.00  0.00     0.010 A 
HETATM   18  C   UNL     1     -32.523  39.498 -52.926  1.00  0.00     0.020 A 
HETATM   19  C   UNL     1     -33.819  39.001 -52.914  1.00  0.00     0.013 A 
HETATM   20  C   UNL     1     -34.517  38.817 -54.107  1.00  0.00     0.049 A 
HETATM   21 BR   UNL     1     -34.639  38.558 -51.269  1.00  0.00    -0.051 Br
ENDBRANCH  11  14
ENDBRANCH   9  10
ENDBRANCH   8   9
ENDBRANCH   1   8
BRANCH   6  22
HETATM   22  C   UNL     1     -36.484  41.597 -57.330  1.00  0.00     0.012 A 
HETATM   23  C   UNL     1     -37.435  41.345 -56.336  1.00  0.00     0.018 A 
HETATM   24  C   UNL     1     -37.162  41.688 -55.010  1.00  0.00     0.037 A 
HETATM   25  C   UNL     1     -35.949  42.287 -54.664  1.00  0.00     0.068 A 
HETATM   26  C   UNL     1     -35.013  42.562 -55.663  1.00  0.00     0.037 A 
HETATM   27  C   UNL     1     -35.285  42.231 -56.997  1.00  0.00     0.018 A 
BRANCH  25  28
HETATM   28  O   UNL     1     -35.812  42.568 -53.334  1.00  0.00    -0.356 OA
HETATM   29  C   UNL     1     -36.486  41.713 -52.419  1.00  0.00     0.210 C 
ENDBRANCH  25  28
ENDBRANCH   6  22
TORSDOF 6
ENDMDL
MODEL 4
REMARK VINA RESULT:      -7.8      3.124      7.747
REMARK  6 active torsions:
REMARK  status: ('A' for Active; 'I' for Inactive)
REMARK    1  A    between atoms: C_3  and  N_4 
REMARK       I    between atoms: N_4  and  C_5 
REMARK    2  A    between atoms: C_5  and  C_6 
REMARK    3  A    between atoms: C_6  and  C_7 
REMARK    4  A    between atoms: C_7  and  N_8 
REMARK    5  A    between atoms: C_13  and  C_14 
REMARK    6  A    between atoms: C_17  and  O_18 
ROOT
HETATM    1  N   UNL     1     -42.774  55.735 -53.311  1.00  0.00    -0.305 N 
HETATM    2  C   UNL     1     -42.914  57.103 -53.328  1.00  0.00     0.196 A 
HETATM    3  S   UNL     1     -44.130  58.044 -53.941  1.00  0.00    -0.039 SA
HETATM    4  N   UNL     1     -41.807  57.617 -52.678  1.00  0.00    -0.251 N 
HETATM    5  N   UNL     1     -40.988  56.615 -52.265  1.00  0.00    -0.153 NA
HETATM    6  C   UNL     1     -41.578  55.524 -52.669  1.00  0.00     0.162 A 
HETATM    7  H   UNL     1     -41.596  58.593 -52.504  1.00  0.00     0.191 HD
ENDROOT
BRANCH   1   8
HETATM    8  C   UNL     1     -43.743  54.747 -53.810  1.00  0.00     0.142 C 
BRANCH   8   9
HETATM    9  C   UNL     1     -43.318  54.113 -55.128  1.00  0.00     0.123 C 
BRANCH   9  10
HETATM   10  C   UNL     1     -42.637  55.077 -56.078  1.00  0.00     0.223 C 
HETATM   11  N   UNL     1     -43.508  55.865 -56.804  1.00  0.00    -0.327 N 
HETATM   12  H   UNL     1     -44.364  56.133 -56.330  1.00  0.00     0.169 HD
HETATM   13  O   UNL     1     -41.412  55.094 -56.163  1.00  0.00    -0.273 OA
BRANCH  11  14
HETATM   14  C   UNL     1     -43.149  56.674 -57.908  1.00  0.00     0.042 A 
HETATM   15  C   UNL     1     -43.314  56.302 -59.258  1.00  0.00    -0.035 A 
HETATM   16  C   UNL     1     -43.966  55.024 -59.711  1.00  0.00     0.050 C 
HETATM   17  C   UNL     1     -42.890  57.193 -60.266  1.00  0.00     0.010 A 
HETATM   18  C   UNL     1     -42.369  58.445 -59.951  1.00  0.00     0.020 A 
HETATM   19  C   UNL     1     -42.271  58.827 -58.621  1.00  0.00     0.013 A 
HETATM   20  C   UNL     1     -42.666  57.956 -57.605  1.00  0.00     0.049 A 
HETATM   21 BR   UNL     1     -41.583  60.532 -58.180  1.00  0.00    -0.051 Br
ENDBRANCH  11  14
ENDBRANCH   9  10
ENDBRANCH   8   9
ENDBRANCH   1   8
BRANCH   6  22
HETATM   22  C   UNL     1     -41.009  54.191 -52.406  1.00  0.00     0.012 A 
HETATM   23  C   UNL     1     -41.001  53.730 -51.085  1.00  0.00     0.018 A 
HETATM   24  C   UNL     1     -40.453  52.481 -50.789  1.00  0.00     0.037 A 
HETATM   25  C   UNL     1     -39.906  51.685 -51.797  1.00  0.00     0.068 A 
HETATM   26  C   UNL     1     -39.891  52.160 -53.110  1.00  0.00     0.037 A 
HETATM   27  C   UNL     1     -40.429  53.418 -53.413  1.00  0.00     0.018 A 
BRANCH  25  28
HETATM   28  O   UNL     1     -39.406  50.487 -51.369  1.00  0.00    -0.356 OA
HETATM   29  C   UNL     1     -39.551  49.375 -52.245  1.00  0.00     0.210 C 
ENDBRANCH  25  28
ENDBRANCH   6  22
TORSDOF 6
ENDMDL
MODEL 5
REMARK VINA RESULT:      -7.7      2.863      7.790
REMARK  6 active torsions:
REMARK  status: ('A' for Active; 'I' for Inactive)
REMARK    1  A    between atoms: C_3  and  N_4 
REMARK       I    between atoms: N_4  and  C_5 
REMARK    2  A    between atoms: C_5  and  C_6 
REMARK    3  A    between atoms: C_6  and  C_7 
REMARK    4  A    between atoms: C_7  and  N_8 
REMARK    5  A    between atoms: C_13  and  C_14 
REMARK    6  A    between atoms: C_17  and  O_18 
ROOT
HETATM    1  N   UNL     1     -41.896  55.711 -51.901  1.00  0.00    -0.305 N 
HETATM    2  C   UNL     1     -42.085  56.811 -51.099  1.00  0.00     0.196 A 
HETATM    3  S   UNL     1     -42.985  58.177 -51.354  1.00  0.00    -0.039 SA
HETATM    4  N   UNL     1     -41.374  56.574 -49.936  1.00  0.00    -0.251 N 
HETATM    5  N   UNL     1     -40.750  55.369 -49.997  1.00  0.00    -0.153 NA
HETATM    6  C   UNL     1     -41.063  54.898 -51.172  1.00  0.00     0.162 A 
HETATM    7  H   UNL     1     -41.303  57.179 -49.126  1.00  0.00     0.191 HD
ENDROOT
BRANCH   1   8
HETATM    8  C   UNL     1     -42.521  55.460 -53.210  1.00  0.00     0.142 C 
BRANCH   8   9
HETATM    9  C   UNL     1     -41.852  56.228 -54.342  1.00  0.00     0.123 C 
BRANCH   9  10
HETATM   10  C   UNL     1     -42.784  56.563 -55.488  1.00  0.00     0.223 C 
HETATM   11  N   UNL     1     -42.213  56.431 -56.738  1.00  0.00    -0.327 N 
HETATM   12  H   UNL     1     -41.529  55.688 -56.836  1.00  0.00     0.169 HD
HETATM   13  O   UNL     1     -43.932  56.936 -55.259  1.00  0.00    -0.273 OA
BRANCH  11  14
HETATM   14  C   UNL     1     -42.782  56.892 -57.949  1.00  0.00     0.042 A 
HETATM   15  C   UNL     1     -42.659  58.207 -58.439  1.00  0.00    -0.035 A 
HETATM   16  C   UNL     1     -41.841  59.284 -57.779  1.00  0.00     0.050 C 
HETATM   17  C   UNL     1     -43.299  58.546 -59.649  1.00  0.00     0.010 A 
HETATM   18  C   UNL     1     -43.996  57.594 -60.389  1.00  0.00     0.020 A 
HETATM   19  C   UNL     1     -44.056  56.286 -59.930  1.00  0.00     0.013 A 
HETATM   20  C   UNL     1     -43.447  55.931 -58.726  1.00  0.00     0.049 A 
HETATM   21 BR   UNL     1     -44.981  54.978 -60.934  1.00  0.00    -0.051 Br
ENDBRANCH  11  14
ENDBRANCH   9  10
ENDBRANCH   8   9
ENDBRANCH   1   8
BRANCH   6  22
HETATM   22  C   UNL     1     -40.588  53.582 -51.632  1.00  0.00     0.012 A 
HETATM   23  C   UNL     1     -40.522  53.352 -53.010  1.00  0.00     0.018 A 
HETATM   24  C   UNL     1     -40.096  52.112 -53.489  1.00  0.00     0.037 A 
HETATM   25  C   UNL     1     -39.740  51.091 -52.605  1.00  0.00     0.068 A 
HETATM   26  C   UNL     1     -39.834  51.314 -51.230  1.00  0.00     0.037 A 
HETATM   27  C   UNL     1     -40.271  52.553 -50.743  1.00  0.00     0.018 A 
BRANCH  25  28
HETATM   28  O   UNL     1     -39.340  49.930 -53.207  1.00  0.00    -0.356 OA
HETATM   29  C   UNL     1     -39.632  49.785 -54.591  1.00  0.00     0.210 C 
ENDBRANCH  25  28
ENDBRANCH   6  22
TORSDOF 6
ENDMDL
MODEL 6
REMARK VINA RESULT:      -7.6      3.420      8.048
REMARK  6 active torsions:
REMARK  status: ('A' for Active; 'I' for Inactive)
REMARK    1  A    between atoms: C_3  and  N_4 
REMARK       I    between atoms: N_4  and  C_5 
REMARK    2  A    between atoms: C_5  and  C_6 
REMARK    3  A    between atoms: C_6  and  C_7 
REMARK    4  A    between atoms: C_7  and  N_8 
REMARK    5  A    between atoms: C_13  and  C_14 
REMARK    6  A    between atoms: C_17  and  O_18 
ROOT
HETATM    1  N   UNL     1     -42.745  56.203 -53.043  1.00  0.00    -0.305 N 
HETATM    2  C   UNL     1     -43.772  56.887 -52.437  1.00  0.00     0.196 A 
HETATM    3  S   UNL     1     -44.429  58.364 -52.796  1.00  0.00    -0.039 SA
HETATM    4  N   UNL     1     -44.233  56.078 -51.415  1.00  0.00    -0.251 N 
HETATM    5  N   UNL     1     -43.522  54.920 -51.367  1.00  0.00    -0.153 NA
HETATM    6  C   UNL     1     -42.645  55.036 -52.325  1.00  0.00     0.162 A 
HETATM    7  H   UNL     1     -44.992  56.272 -50.773  1.00  0.00     0.191 HD
ENDROOT
BRANCH   1   8
HETATM    8  C   UNL     1     -41.993  56.623 -54.236  1.00  0.00     0.142 C 
BRANCH   8   9
HETATM    9  C   UNL     1     -42.570  56.061 -55.528  1.00  0.00     0.123 C 
BRANCH   9  10
HETATM   10  C   UNL     1     -43.005  57.124 -56.516  1.00  0.00     0.223 C 
HETATM   11  N   UNL     1     -42.171  57.254 -57.609  1.00  0.00    -0.327 N 
HETATM   12  H   UNL     1     -41.733  56.399 -57.936  1.00  0.00     0.169 HD
HETATM   13  O   UNL     1     -44.011  57.793 -56.297  1.00  0.00    -0.273 OA
BRANCH  11  14
HETATM   14  C   UNL     1     -42.219  58.308 -58.551  1.00  0.00     0.042 A 
HETATM   15  C   UNL     1     -42.843  58.225 -59.812  1.00  0.00    -0.035 A 
HETATM   16  C   UNL     1     -43.612  57.026 -60.299  1.00  0.00     0.050 C 
HETATM   17  C   UNL     1     -42.796  59.343 -60.670  1.00  0.00     0.010 A 
HETATM   18  C   UNL     1     -42.198  60.536 -60.271  1.00  0.00     0.020 A 
HETATM   19  C   UNL     1     -41.643  60.628 -59.003  1.00  0.00     0.013 A 
HETATM   20  C   UNL     1     -41.660  59.530 -58.143  1.00  0.00     0.049 A 
HETATM   21 BR   UNL     1     -40.845  62.247 -58.441  1.00  0.00    -0.051 Br
ENDBRANCH  11  14
ENDBRANCH   9  10
ENDBRANCH   8   9
ENDBRANCH   1   8
BRANCH   6  22
HETATM   22  C   UNL     1     -41.673  53.970 -52.619  1.00  0.00     0.012 A 
HETATM   23  C   UNL     1     -41.785  53.297 -53.840  1.00  0.00     0.018 A 
HETATM   24  C   UNL     1     -40.896  52.266 -54.150  1.00  0.00     0.037 A 
HETATM   25  C   UNL     1     -39.896  51.892 -53.250  1.00  0.00     0.068 A 
HETATM   26  C   UNL     1     -39.804  52.547 -52.021  1.00  0.00     0.037 A 
HETATM   27  C   UNL     1     -40.700  53.576 -51.699  1.00  0.00     0.018 A 
BRANCH  25  28
HETATM   28  O   UNL     1     -39.095  50.871 -53.680  1.00  0.00    -0.356 OA
HETATM   29  C   UNL     1     -39.706  49.856 -54.465  1.00  0.00     0.210 C 
ENDBRANCH  25  28
ENDBRANCH   6  22
TORSDOF 6
ENDMDL
MODEL 7
REMARK VINA RESULT:      -7.6      2.860      4.992
REMARK  6 active torsions:
REMARK  status: ('A' for Active; 'I' for Inactive)
REMARK    1  A    between atoms: C_3  and  N_4 
REMARK       I    between atoms: N_4  and  C_5 
REMARK    2  A    between atoms: C_5  and  C_6 
REMARK    3  A    between atoms: C_6  and  C_7 
REMARK    4  A    between atoms: C_7  and  N_8 
REMARK    5  A    between atoms: C_13  and  C_14 
REMARK    6  A    between atoms: C_17  and  O_18 
ROOT
HETATM    1  N   UNL     1     -44.139  57.513 -57.236  1.00  0.00    -0.305 N 
HETATM    2  C   UNL     1     -44.970  57.448 -58.330  1.00  0.00     0.196 A 
HETATM    3  S   UNL     1     -44.658  56.952 -59.879  1.00  0.00    -0.039 SA
HETATM    4  N   UNL     1     -46.216  57.867 -57.902  1.00  0.00    -0.251 N 
HETATM    5  N   UNL     1     -46.181  58.193 -56.583  1.00  0.00    -0.153 NA
HETATM    6  C   UNL     1     -44.942  57.990 -56.229  1.00  0.00     0.162 A 
HETATM    7  H   UNL     1     -47.064  57.933 -58.452  1.00  0.00     0.191 HD
ENDROOT
BRANCH   1   8
HETATM    8  C   UNL     1     -42.731  57.089 -57.175  1.00  0.00     0.142 C 
BRANCH   8   9
HETATM    9  C   UNL     1     -42.564  55.578 -57.270  1.00  0.00     0.123 C 
BRANCH   9  10
HETATM   10  C   UNL     1     -42.457  54.889 -55.926  1.00  0.00     0.223 C 
HETATM   11  N   UNL     1     -41.162  54.746 -55.466  1.00  0.00    -0.327 N 
HETATM   12  H   UNL     1     -40.520  55.492 -55.712  1.00  0.00     0.169 HD
HETATM   13  O   UNL     1     -43.470  54.496 -55.352  1.00  0.00    -0.273 OA
BRANCH  11  14
HETATM   14  C   UNL     1     -40.771  53.948 -54.365  1.00  0.00     0.042 A 
HETATM   15  C   UNL     1     -40.760  54.387 -53.026  1.00  0.00    -0.035 A 
HETATM   16  C   UNL     1     -41.237  55.741 -52.573  1.00  0.00     0.050 C 
HETATM   17  C   UNL     1     -40.321  53.498 -52.022  1.00  0.00     0.010 A 
HETATM   18  C   UNL     1     -39.957  52.189 -52.325  1.00  0.00     0.020 A 
HETATM   19  C   UNL     1     -40.033  51.748 -53.638  1.00  0.00     0.013 A 
HETATM   20  C   UNL     1     -40.446  52.613 -54.651  1.00  0.00     0.049 A 
HETATM   21 BR   UNL     1     -39.560  49.967 -54.060  1.00  0.00    -0.051 Br
ENDBRANCH  11  14
ENDBRANCH   9  10
ENDBRANCH   8   9
ENDBRANCH   1   8
BRANCH   6  22
HETATM   22  C   UNL     1     -44.482  58.219 -54.849  1.00  0.00     0.012 A 
HETATM   23  C   UNL     1     -43.673  59.332 -54.602  1.00  0.00     0.018 A 
HETATM   24  C   UNL     1     -43.198  59.574 -53.311  1.00  0.00     0.037 A 
HETATM   25  C   UNL     1     -43.518  58.711 -52.261  1.00  0.00     0.068 A 
HETATM   26  C   UNL     1     -44.303  57.585 -52.516  1.00  0.00     0.037 A 
HETATM   27  C   UNL     1     -44.774  57.331 -53.811  1.00  0.00     0.018 A 
BRANCH  25  28
HETATM   28  O   UNL     1     -42.990  59.067 -51.051  1.00  0.00    -0.356 OA
HETATM   29  C   UNL     1     -42.358  60.338 -50.969  1.00  0.00     0.210 C 
ENDBRANCH  25  28
ENDBRANCH   6  22
TORSDOF 6
ENDMDL
MODEL 8
REMARK VINA RESULT:      -7.4      3.639      6.673
REMARK  6 active torsions:
REMARK  status: ('A' for Active; 'I' for Inactive)
REMARK    1  A    between atoms: C_3  and  N_4 
REMARK       I    between atoms: N_4  and  C_5 
REMARK    2  A    between atoms: C_5  and  C_6 
REMARK    3  A    between atoms: C_6  and  C_7 
REMARK    4  A    between atoms: C_7  and  N_8 
REMARK    5  A    between atoms: C_13  and  C_14 
REMARK    6  A    between atoms: C_17  and  O_18 
ROOT
HETATM    1  N   UNL     1     -41.085  54.611 -50.914  1.00  0.00    -0.305 N 
HETATM    2  C   UNL     1     -40.493  53.800 -49.974  1.00  0.00     0.196 A 
HETATM    3  S   UNL     1     -40.336  54.001 -48.339  1.00  0.00    -0.039 SA
HETATM    4  N   UNL     1     -40.035  52.685 -50.652  1.00  0.00    -0.251 N 
HETATM    5  N   UNL     1     -40.320  52.783 -51.977  1.00  0.00    -0.153 NA
HETATM    6  C   UNL     1     -40.920  53.934 -52.098  1.00  0.00     0.162 A 
HETATM    7  H   UNL     1     -39.556  51.883 -50.261  1.00  0.00     0.191 HD
ENDROOT
BRANCH   1   8
HETATM    8  C   UNL     1     -41.793  55.876 -50.662  1.00  0.00     0.142 C 
BRANCH   8   9
HETATM    9  C   UNL     1     -43.299  55.695 -50.523  1.00  0.00     0.123 C 
BRANCH   9  10
HETATM   10  C   UNL     1     -44.111  56.706 -51.304  1.00  0.00     0.223 C 
HETATM   11  N   UNL     1     -43.557  57.059 -52.519  1.00  0.00    -0.327 N 
HETATM   12  H   UNL     1     -43.049  56.326 -53.003  1.00  0.00     0.169 HD
HETATM   13  O   UNL     1     -45.155  57.152 -50.835  1.00  0.00    -0.273 OA
BRANCH  11  14
HETATM   14  C   UNL     1     -43.987  58.135 -53.331  1.00  0.00     0.042 A 
HETATM   15  C   UNL     1     -43.675  59.488 -53.092  1.00  0.00    -0.035 A 
HETATM   16  C   UNL     1     -42.778  59.969 -51.984  1.00  0.00     0.050 C 
HETATM   17  C   UNL     1     -44.190  60.469 -53.965  1.00  0.00     0.010 A 
HETATM   18  C   UNL     1     -44.946  60.119 -55.081  1.00  0.00     0.020 A 
HETATM   19  C   UNL     1     -45.192  58.779 -55.342  1.00  0.00     0.013 A 
HETATM   20  C   UNL     1     -44.710  57.791 -54.483  1.00  0.00     0.049 A 
HETATM   21 BR   UNL     1     -46.200  58.288 -56.864  1.00  0.00    -0.051 Br
ENDBRANCH  11  14
ENDBRANCH   9  10
ENDBRANCH   8   9
ENDBRANCH   1   8
BRANCH   6  22
HETATM   22  C   UNL     1     -41.411  54.421 -53.399  1.00  0.00     0.012 A 
HETATM   23  C   UNL     1     -42.542  53.807 -53.946  1.00  0.00     0.018 A 
HETATM   24  C   UNL     1     -43.028  54.225 -55.186  1.00  0.00     0.037 A 
HETATM   25  C   UNL     1     -42.392  55.247 -55.894  1.00  0.00     0.068 A 
HETATM   26  C   UNL     1     -41.246  55.838 -55.358  1.00  0.00     0.037 A 
HETATM   27  C   UNL     1     -40.747  55.417 -54.119  1.00  0.00     0.018 A 
BRANCH  25  28
HETATM   28  O   UNL     1     -42.973  55.557 -57.092  1.00  0.00    -0.356 OA
HETATM   29  C   UNL     1     -42.775  56.876 -57.585  1.00  0.00     0.210 C 
ENDBRANCH  25  28
ENDBRANCH   6  22
TORSDOF 6
ENDMDL
MODEL 9
REMARK VINA RESULT:      -7.4      2.960      5.294
REMARK  6 active torsions:
REMARK  status: ('A' for Active; 'I' for Inactive)
REMARK    1  A    between atoms: C_3  and  N_4 
REMARK       I    between atoms: N_4  and  C_5 
REMARK    2  A    between atoms: C_5  and  C_6 
REMARK    3  A    between atoms: C_6  and  C_7 
REMARK    4  A    between atoms: C_7  and  N_8 
REMARK    5  A    between atoms: C_13  and  C_14 
REMARK    6  A    between atoms: C_17  and  O_18 
ROOT
HETATM    1  N   UNL     1     -44.097  58.583 -55.222  1.00  0.00    -0.305 N 
HETATM    2  C   UNL     1     -45.270  59.052 -55.766  1.00  0.00     0.196 A 
HETATM    3  S   UNL     1     -46.026  58.648 -57.182  1.00  0.00    -0.039 SA
HETATM    4  N   UNL     1     -45.780  59.969 -54.866  1.00  0.00    -0.251 N 
HETATM    5  N   UNL     1     -44.961  60.085 -53.788  1.00  0.00    -0.153 NA
HETATM    6  C   UNL     1     -43.974  59.270 -54.039  1.00  0.00     0.162 A 
HETATM    7  H   UNL     1     -46.640  60.499 -54.950  1.00  0.00     0.191 HD
ENDROOT
BRANCH   1   8
HETATM    8  C   UNL     1     -43.233  57.528 -55.774  1.00  0.00     0.142 C 
BRANCH   8   9
HETATM    9  C   UNL     1     -43.491  56.164 -55.147  1.00  0.00     0.123 C 
BRANCH   9  10
HETATM   10  C   UNL     1     -42.229  55.414 -54.773  1.00  0.00     0.223 C 
HETATM   11  N   UNL     1     -42.453  54.239 -54.083  1.00  0.00    -0.327 N 
HETATM   12  H   UNL     1     -43.294  53.731 -54.335  1.00  0.00     0.169 HD
HETATM   13  O   UNL     1     -41.129  55.874 -55.069  1.00  0.00    -0.273 OA
BRANCH  11  14
HETATM   14  C   UNL     1     -41.459  53.476 -53.426  1.00  0.00     0.042 A 
HETATM   15  C   UNL     1     -40.925  53.782 -52.159  1.00  0.00    -0.035 A 
HETATM   16  C   UNL     1     -41.394  54.921 -51.294  1.00  0.00     0.050 C 
HETATM   17  C   UNL     1     -39.916  52.952 -51.626  1.00  0.00     0.010 A 
HETATM   18  C   UNL     1     -39.486  51.813 -52.303  1.00  0.00     0.020 A 
HETATM   19  C   UNL     1     -40.064  51.486 -53.521  1.00  0.00     0.013 A 
HETATM   20  C   UNL     1     -41.050  52.301 -54.076  1.00  0.00     0.049 A 
HETATM   21 BR   UNL     1     -39.503  49.932 -54.440  1.00  0.00    -0.051 Br
ENDBRANCH  11  14
ENDBRANCH   9  10
ENDBRANCH   8   9
ENDBRANCH   1   8
BRANCH   6  22
HETATM   22  C   UNL     1     -42.858  59.089 -53.095  1.00  0.00     0.012 A 
HETATM   23  C   UNL     1     -41.558  59.303 -53.565  1.00  0.00     0.018 A 
HETATM   24  C   UNL     1     -40.471  59.122 -52.708  1.00  0.00     0.037 A 
HETATM   25  C   UNL     1     -40.665  58.723 -51.384  1.00  0.00     0.068 A 
HETATM   26  C   UNL     1     -41.961  58.483 -50.926  1.00  0.00     0.037 A 
HETATM   27  C   UNL     1     -43.057  58.652 -51.783  1.00  0.00     0.018 A 
BRANCH  25  28
HETATM   28  O   UNL     1     -39.516  58.586 -50.656  1.00  0.00    -0.356 OA
HETATM   29  C   UNL     1     -38.795  59.774 -50.355  1.00  0.00     0.210 C 
ENDBRANCH  25  28
ENDBRANCH   6  22
TORSDOF 6
ENDMDL
MODEL 10
REMARK VINA RESULT:      -7.2      1.609      2.088
REMARK  6 active torsions:
REMARK  status: ('A' for Active; 'I' for Inactive)
REMARK    1  A    between atoms: C_3  and  N_4 
REMARK       I    between atoms: N_4  and  C_5 
REMARK    2  A    between atoms: C_5  and  C_6 
REMARK    3  A    between atoms: C_6  and  C_7 
REMARK    4  A    between atoms: C_7  and  N_8 
REMARK    5  A    between atoms: C_13  and  C_14 
REMARK    6  A    between atoms: C_17  and  O_18 
ROOT
HETATM    1  N   UNL     1     -43.026  58.634 -55.010  1.00  0.00    -0.305 N 
HETATM    2  C   UNL     1     -42.502  59.592 -54.174  1.00  0.00     0.196 A 
HETATM    3  S   UNL     1     -42.517  59.690 -52.521  1.00  0.00    -0.039 SA
HETATM    4  N   UNL     1     -41.885  60.525 -54.986  1.00  0.00    -0.251 N 
HETATM    5  N   UNL     1     -42.014  60.178 -56.294  1.00  0.00    -0.153 NA
HETATM    6  C   UNL     1     -42.705  59.073 -56.272  1.00  0.00     0.162 A 
HETATM    7  H   UNL     1     -41.390  61.360 -54.696  1.00  0.00     0.191 HD
ENDROOT
BRANCH   1   8
HETATM    8  C   UNL     1     -43.706  57.393 -54.607  1.00  0.00     0.142 C 
BRANCH   8   9
HETATM    9  C   UNL     1     -42.934  56.140 -55.000  1.00  0.00     0.123 C 
BRANCH   9  10
HETATM   10  C   UNL     1     -42.731  55.164 -53.859  1.00  0.00     0.223 C 
HETATM   11  N   UNL     1     -41.432  55.100 -53.395  1.00  0.00    -0.327 N 
HETATM   12  H   UNL     1     -40.907  55.968 -53.425  1.00  0.00     0.169 HD
HETATM   13  O   UNL     1     -43.676  54.501 -53.441  1.00  0.00    -0.273 OA
BRANCH  11  14
HETATM   14  C   UNL     1     -40.931  54.121 -52.505  1.00  0.00     0.042 A 
HETATM   15  C   UNL     1     -40.404  52.876 -52.902  1.00  0.00    -0.035 A 
HETATM   16  C   UNL     1     -40.231  52.447 -54.334  1.00  0.00     0.050 C 
HETATM   17  C   UNL     1     -39.960  51.976 -51.910  1.00  0.00     0.010 A 
HETATM   18  C   UNL     1     -39.982  52.320 -50.561  1.00  0.00     0.020 A 
HETATM   19  C   UNL     1     -40.443  53.574 -50.186  1.00  0.00     0.013 A 
HETATM   20  C   UNL     1     -40.904  54.474 -51.147  1.00  0.00     0.049 A 
HETATM   21 BR   UNL     1     -40.460  54.061 -48.360  1.00  0.00    -0.051 Br
ENDBRANCH  11  14
ENDBRANCH   9  10
ENDBRANCH   8   9
ENDBRANCH   1   8
BRANCH   6  22
HETATM   22  C   UNL     1     -43.057  58.352 -57.507  1.00  0.00     0.012 A 
HETATM   23  C   UNL     1     -44.412  58.189 -57.809  1.00  0.00     0.018 A 
HETATM   24  C   UNL     1     -44.790  57.495 -58.960  1.00  0.00     0.037 A 
HETATM   25  C   UNL     1     -43.826  56.955 -59.815  1.00  0.00     0.068 A 
HETATM   26  C   UNL     1     -42.475  57.095 -59.496  1.00  0.00     0.037 A 
HETATM   27  C   UNL     1     -42.089  57.781 -58.336  1.00  0.00     0.018 A 
BRANCH  25  28
HETATM   28  O   UNL     1     -44.333  56.303 -60.904  1.00  0.00    -0.356 OA
HETATM   29  C   UNL     1     -45.535  55.567 -60.718  1.00  0.00     0.210 C 
ENDBRANCH  25  28
ENDBRANCH   6  22
TORSDOF 6
ENDMDL
