MODEL 1
REMARK VINA RESULT:      -7.5      0.000      0.000
REMARK  7 active torsions:
REMARK  status: ('A' for Active; 'I' for Inactive)
REMARK    1  A    between atoms: C_2  and  C_3 
REMARK    2  A    between atoms: C_6  and  O_7 
REMARK    3  A    between atoms: O_7  and  C_8 
REMARK    4  A    between atoms: C_8  and  C_9 
REMARK       I    between atoms: C_9  and  N_10 
REMARK    5  A    between atoms: N_10  and  N_11 
REMARK       I    between atoms: N_11  and  C_12 
REMARK    6  A    between atoms: C_12  and  C_13 
REMARK    7  A    between atoms: C_16  and  N_17 
ROOT
HETATM    1  N   UNL     1     -42.965  58.792 -54.870  1.00  0.00    -0.263 N 
HETATM    2  C   UNL     1     -43.639  57.584 -54.837  1.00  0.00     0.270 C 
HETATM    3  O   UNL     1     -44.856  57.485 -54.954  1.00  0.00    -0.266 OA
HETATM    4  H   UNL     1     -42.024  58.873 -54.500  1.00  0.00     0.190 HD
ENDROOT
BRANCH   1   5
HETATM    5  N   UNL     1     -43.728  59.963 -54.942  1.00  0.00    -0.265 N 
HETATM    6  C   UNL     1     -43.501  61.038 -54.111  1.00  0.00     0.260 C 
HETATM    7  O   UNL     1     -44.046  62.121 -54.333  1.00  0.00    -0.269 OA
HETATM    8  H   UNL     1     -44.119  60.192 -55.856  1.00  0.00     0.190 HD
BRANCH   6   9
HETATM    9  C   UNL     1     -42.630  60.811 -52.881  1.00  0.00     0.280 C 
BRANCH   9  10
HETATM   10  O   UNL     1     -43.430  60.256 -51.845  1.00  0.00    -0.342 OA
BRANCH  10  11
HETATM   11  C   UNL     1     -43.196  58.960 -51.490  1.00  0.00     0.069 A 
HETATM   12  C   UNL     1     -44.342  58.168 -51.415  1.00  0.00     0.037 A 
HETATM   13  C   UNL     1     -44.256  56.821 -51.060  1.00  0.00     0.010 A 
HETATM   14  C   UNL     1     -43.014  56.248 -50.765  1.00  0.00    -0.058 A 
HETATM   15  C   UNL     1     -41.864  57.045 -50.847  1.00  0.00     0.010 A 
HETATM   16  C   UNL     1     -41.954  58.395 -51.207  1.00  0.00     0.037 A 
BRANCH  14  17
HETATM   17  C   UNL     1     -42.913  54.788 -50.406  1.00  0.00     0.034 C 
HETATM   18  C   UNL     1     -44.212  54.047 -50.680  1.00  0.00     0.010 C 
ENDBRANCH  14  17
ENDBRANCH  10  11
ENDBRANCH   9  10
ENDBRANCH   6   9
ENDBRANCH   1   5
BRANCH   2  19
HETATM   19  C   UNL     1     -42.803  56.389 -54.547  1.00  0.00     0.033 A 
HETATM   20  C   UNL     1     -43.444  55.166 -54.348  1.00  0.00     0.019 A 
HETATM   21  C   UNL     1     -42.702  54.035 -53.997  1.00  0.00     0.032 A 
HETATM   22  C   UNL     1     -41.305  54.103 -53.836  1.00  0.00     0.058 A 
HETATM   23  C   UNL     1     -40.664  55.319 -54.100  1.00  0.00     0.032 A 
HETATM   24  C   UNL     1     -41.408  56.457 -54.452  1.00  0.00     0.019 A 
BRANCH  22  25
HETATM   25  N   UNL     1     -40.608  52.920 -53.424  1.00  0.00    -0.238 N 
HETATM   26  N   UNL     1     -40.553  51.867 -54.289  1.00  0.00    -0.172 NA
HETATM   27  C   UNL     1     -39.819  50.933 -53.688  1.00  0.00     0.053 A 
HETATM   28  C   UNL     1     -39.542  49.643 -54.362  1.00  0.00     0.072 C 
HETATM   29  C   UNL     1     -39.422  51.340 -52.407  1.00  0.00     0.055 A 
HETATM   30  C   UNL     1     -39.963  52.599 -52.229  1.00  0.00     0.035 A 
HETATM   31  C   UNL     1     -39.921  53.417 -50.992  1.00  0.00     0.070 C 
ENDBRANCH  22  25
ENDBRANCH   2  19
TORSDOF 7
ENDMDL
MODEL 2
REMARK VINA RESULT:      -7.2      1.918      3.489
REMARK  7 active torsions:
REMARK  status: ('A' for Active; 'I' for Inactive)
REMARK    1  A    between atoms: C_2  and  C_3 
REMARK    2  A    between atoms: C_6  and  O_7 
REMARK    3  A    between atoms: O_7  and  C_8 
REMARK    4  A    between atoms: C_8  and  C_9 
REMARK       I    between atoms: C_9  and  N_10 
REMARK    5  A    between atoms: N_10  and  N_11 
REMARK       I    between atoms: N_11  and  C_12 
REMARK    6  A    between atoms: C_12  and  C_13 
REMARK    7  A    between atoms: C_16  and  N_17 
ROOT
HETATM    1  N   UNL     1     -43.155  58.740 -50.797  1.00  0.00    -0.263 N 
HETATM    2  C   UNL     1     -43.894  57.578 -50.931  1.00  0.00     0.270 C 
HETATM    3  O   UNL     1     -45.111  57.529 -50.788  1.00  0.00    -0.266 OA
HETATM    4  H   UNL     1     -42.153  58.706 -50.646  1.00  0.00     0.190 HD
ENDROOT
BRANCH   1   5
HETATM    5  N   UNL     1     -43.827  59.896 -50.381  1.00  0.00    -0.265 N 
HETATM    6  C   UNL     1     -44.007  60.979 -51.213  1.00  0.00     0.260 C 
HETATM    7  O   UNL     1     -44.772  61.889 -50.891  1.00  0.00    -0.269 OA
HETATM    8  H   UNL     1     -44.544  59.769 -49.667  1.00  0.00     0.190 HD
BRANCH   6   9
HETATM    9  C   UNL     1     -43.170  61.041 -52.485  1.00  0.00     0.280 C 
BRANCH   9  10
HETATM   10  O   UNL     1     -43.982  60.667 -53.590  1.00  0.00    -0.342 OA
BRANCH  10  11
HETATM   11  C   UNL     1     -43.845  59.401 -54.077  1.00  0.00     0.069 A 
HETATM   12  C   UNL     1     -42.534  59.043 -54.391  1.00  0.00     0.037 A 
HETATM   13  C   UNL     1     -42.243  57.778 -54.902  1.00  0.00     0.010 A 
HETATM   14  C   UNL     1     -43.269  56.851 -55.115  1.00  0.00    -0.058 A 
HETATM   15  C   UNL     1     -44.584  57.210 -54.792  1.00  0.00     0.010 A 
HETATM   16  C   UNL     1     -44.871  58.480 -54.276  1.00  0.00     0.037 A 
BRANCH  14  17
HETATM   17  C   UNL     1     -42.957  55.474 -55.642  1.00  0.00     0.034 C 
HETATM   18  C   UNL     1     -43.646  54.388 -54.831  1.00  0.00     0.010 C 
ENDBRANCH  14  17
ENDBRANCH  10  11
ENDBRANCH   9  10
ENDBRANCH   6   9
ENDBRANCH   1   5
BRANCH   2  19
HETATM   19  C   UNL     1     -43.104  56.339 -51.167  1.00  0.00     0.033 A 
HETATM   20  C   UNL     1     -41.753  56.469 -51.493  1.00  0.00     0.019 A 
HETATM   21  C   UNL     1     -40.995  55.336 -51.798  1.00  0.00     0.032 A 
HETATM   22  C   UNL     1     -41.570  54.051 -51.784  1.00  0.00     0.058 A 
HETATM   23  C   UNL     1     -42.908  53.926 -51.394  1.00  0.00     0.032 A 
HETATM   24  C   UNL     1     -43.673  55.063 -51.088  1.00  0.00     0.019 A 
BRANCH  22  25
HETATM   25  N   UNL     1     -40.752  52.934 -52.158  1.00  0.00    -0.238 N 
HETATM   26  N   UNL     1     -40.405  52.035 -51.192  1.00  0.00    -0.172 NA
HETATM   27  C   UNL     1     -39.698  51.089 -51.805  1.00  0.00     0.053 A 
HETATM   28  C   UNL     1     -39.166  49.933 -51.046  1.00  0.00     0.072 C 
HETATM   29  C   UNL     1     -39.532  51.376 -53.167  1.00  0.00     0.055 A 
HETATM   30  C   UNL     1     -40.178  52.579 -53.379  1.00  0.00     0.035 A 
HETATM   31  C   UNL     1     -40.200  53.366 -54.635  1.00  0.00     0.070 C 
ENDBRANCH  22  25
ENDBRANCH   2  19
TORSDOF 7
ENDMDL
MODEL 3
REMARK VINA RESULT:      -7.1      2.292      3.558
REMARK  7 active torsions:
REMARK  status: ('A' for Active; 'I' for Inactive)
REMARK    1  A    between atoms: C_2  and  C_3 
REMARK    2  A    between atoms: C_6  and  O_7 
REMARK    3  A    between atoms: O_7  and  C_8 
REMARK    4  A    between atoms: C_8  and  C_9 
REMARK       I    between atoms: C_9  and  N_10 
REMARK    5  A    between atoms: N_10  and  N_11 
REMARK       I    between atoms: N_11  and  C_12 
REMARK    6  A    between atoms: C_12  and  C_13 
REMARK    7  A    between atoms: C_16  and  N_17 
ROOT
HETATM    1  N   UNL     1     -42.235  56.816 -57.529  1.00  0.00    -0.263 N 
HETATM    2  C   UNL     1     -42.778  55.607 -57.130  1.00  0.00     0.270 C 
HETATM    3  O   UNL     1     -43.630  55.004 -57.774  1.00  0.00    -0.266 OA
HETATM    4  H   UNL     1     -41.756  57.415 -56.865  1.00  0.00     0.190 HD
ENDROOT
BRANCH   1   5
HETATM    5  N   UNL     1     -42.761  57.422 -58.676  1.00  0.00    -0.265 N 
HETATM    6  C   UNL     1     -43.632  58.487 -58.607  1.00  0.00     0.260 C 
HETATM    7  O   UNL     1     -43.914  59.124 -59.624  1.00  0.00    -0.269 OA
HETATM    8  H   UNL     1     -42.182  57.384 -59.513  1.00  0.00     0.190 HD
BRANCH   6   9
HETATM    9  C   UNL     1     -44.282  58.786 -57.262  1.00  0.00     0.280 C 
BRANCH   9  10
HETATM   10  O   UNL     1     -43.335  59.434 -56.424  1.00  0.00    -0.342 OA
BRANCH  10  11
HETATM   11  C   UNL     1     -43.079  58.876 -55.207  1.00  0.00     0.069 A 
HETATM   12  C   UNL     1     -44.201  58.346 -54.569  1.00  0.00     0.037 A 
HETATM   13  C   UNL     1     -44.092  57.745 -53.314  1.00  0.00     0.010 A 
HETATM   14  C   UNL     1     -42.850  57.674 -52.674  1.00  0.00    -0.058 A 
HETATM   15  C   UNL     1     -41.724  58.200 -53.320  1.00  0.00     0.010 A 
HETATM   16  C   UNL     1     -41.837  58.799 -54.580  1.00  0.00     0.037 A 
BRANCH  14  17
HETATM   17  C   UNL     1     -42.722  57.003 -51.330  1.00  0.00     0.034 C 
HETATM   18  C   UNL     1     -43.984  56.242 -50.955  1.00  0.00     0.010 C 
ENDBRANCH  14  17
ENDBRANCH  10  11
ENDBRANCH   9  10
ENDBRANCH   6   9
ENDBRANCH   1   5
BRANCH   2  19
HETATM   19  C   UNL     1     -42.336  55.113 -55.799  1.00  0.00     0.033 A 
HETATM   20  C   UNL     1     -40.985  55.229 -55.466  1.00  0.00     0.019 A 
HETATM   21  C   UNL     1     -40.514  54.707 -54.258  1.00  0.00     0.032 A 
HETATM   22  C   UNL     1     -41.383  54.058 -53.359  1.00  0.00     0.058 A 
HETATM   23  C   UNL     1     -42.745  54.003 -53.674  1.00  0.00     0.032 A 
HETATM   24  C   UNL     1     -43.220  54.526 -54.887  1.00  0.00     0.019 A 
BRANCH  22  25
HETATM   25  N   UNL     1     -40.828  53.498 -52.161  1.00  0.00    -0.238 N 
HETATM   26  N   UNL     1     -40.992  54.182 -50.992  1.00  0.00    -0.172 NA
HETATM   27  C   UNL     1     -40.434  53.432 -50.045  1.00  0.00     0.053 A 
HETATM   28  C   UNL     1     -40.443  53.874 -48.631  1.00  0.00     0.072 C 
HETATM   29  C   UNL     1     -39.858  52.272 -50.583  1.00  0.00     0.055 A 
HETATM   30  C   UNL     1     -40.082  52.340 -51.945  1.00  0.00     0.035 A 
HETATM   31  C   UNL     1     -39.573  51.402 -52.975  1.00  0.00     0.070 C 
ENDBRANCH  22  25
ENDBRANCH   2  19
TORSDOF 7
ENDMDL
MODEL 4
REMARK VINA RESULT:      -6.8      3.263      7.222
REMARK  7 active torsions:
REMARK  status: ('A' for Active; 'I' for Inactive)
REMARK    1  A    between atoms: C_2  and  C_3 
REMARK    2  A    between atoms: C_6  and  O_7 
REMARK    3  A    between atoms: O_7  and  C_8 
REMARK    4  A    between atoms: C_8  and  C_9 
REMARK       I    between atoms: C_9  and  N_10 
REMARK    5  A    between atoms: N_10  and  N_11 
REMARK       I    between atoms: N_11  and  C_12 
REMARK    6  A    between atoms: C_12  and  C_13 
REMARK    7  A    between atoms: C_16  and  N_17 
ROOT
HETATM    1  N   UNL     1     -43.960  56.315 -52.814  1.00  0.00    -0.263 N 
HETATM    2  C   UNL     1     -43.964  55.874 -54.126  1.00  0.00     0.270 C 
HETATM    3  O   UNL     1     -44.115  54.699 -54.444  1.00  0.00    -0.266 OA
HETATM    4  H   UNL     1     -43.564  57.217 -52.570  1.00  0.00     0.190 HD
ENDROOT
BRANCH   1   5
HETATM    5  N   UNL     1     -44.035  55.352 -51.801  1.00  0.00    -0.265 N 
HETATM    6  C   UNL     1     -43.084  55.257 -50.809  1.00  0.00     0.260 C 
HETATM    7  O   UNL     1     -43.283  54.542 -49.826  1.00  0.00    -0.269 OA
HETATM    8  H   UNL     1     -44.971  55.042 -51.542  1.00  0.00     0.190 HD
BRANCH   6   9
HETATM    9  C   UNL     1     -41.766  55.994 -51.018  1.00  0.00     0.280 C 
BRANCH   9  10
HETATM   10  O   UNL     1     -41.270  55.693 -52.315  1.00  0.00    -0.342 OA
BRANCH  10  11
HETATM   11  C   UNL     1     -40.775  54.441 -52.530  1.00  0.00     0.069 A 
HETATM   12  C   UNL     1     -40.765  54.047 -53.868  1.00  0.00     0.037 A 
HETATM   13  C   UNL     1     -40.289  52.789 -54.239  1.00  0.00     0.010 A 
HETATM   14  C   UNL     1     -39.821  51.899 -53.266  1.00  0.00    -0.058 A 
HETATM   15  C   UNL     1     -39.826  52.299 -51.923  1.00  0.00     0.010 A 
HETATM   16  C   UNL     1     -40.301  53.564 -51.556  1.00  0.00     0.037 A 
BRANCH  14  17
HETATM   17  C   UNL     1     -39.282  50.549 -53.663  1.00  0.00     0.034 C 
HETATM   18  C   UNL     1     -40.218  49.825 -54.618  1.00  0.00     0.010 C 
ENDBRANCH  14  17
ENDBRANCH  10  11
ENDBRANCH   9  10
ENDBRANCH   6   9
ENDBRANCH   1   5
BRANCH   2  19
HETATM   19  C   UNL     1     -43.669  56.909 -55.152  1.00  0.00     0.033 A 
HETATM   20  C   UNL     1     -42.701  56.627 -56.117  1.00  0.00     0.019 A 
HETATM   21  C   UNL     1     -42.338  57.600 -57.052  1.00  0.00     0.032 A 
HETATM   22  C   UNL     1     -42.936  58.875 -57.042  1.00  0.00     0.058 A 
HETATM   23  C   UNL     1     -43.950  59.127 -56.112  1.00  0.00     0.032 A 
HETATM   24  C   UNL     1     -44.316  58.150 -55.171  1.00  0.00     0.019 A 
BRANCH  22  25
HETATM   25  N   UNL     1     -42.483  59.847 -57.995  1.00  0.00    -0.238 N 
HETATM   26  N   UNL     1     -41.421  60.634 -57.659  1.00  0.00    -0.172 NA
HETATM   27  C   UNL     1     -41.180  61.401 -58.720  1.00  0.00     0.053 A 
HETATM   28  C   UNL     1     -40.068  62.380 -58.707  1.00  0.00     0.072 C 
HETATM   29  C   UNL     1     -42.106  61.161 -59.746  1.00  0.00     0.055 A 
HETATM   30  C   UNL     1     -42.962  60.191 -59.259  1.00  0.00     0.035 A 
HETATM   31  C   UNL     1     -44.181  59.669 -59.923  1.00  0.00     0.070 C 
ENDBRANCH  22  25
ENDBRANCH   2  19
TORSDOF 7
ENDMDL
MODEL 5
REMARK VINA RESULT:      -6.6      3.690      6.992
REMARK  7 active torsions:
REMARK  status: ('A' for Active; 'I' for Inactive)
REMARK    1  A    between atoms: C_2  and  C_3 
REMARK    2  A    between atoms: C_6  and  O_7 
REMARK    3  A    between atoms: O_7  and  C_8 
REMARK    4  A    between atoms: C_8  and  C_9 
REMARK       I    between atoms: C_9  and  N_10 
REMARK    5  A    between atoms: N_10  and  N_11 
REMARK       I    between atoms: N_11  and  C_12 
REMARK    6  A    between atoms: C_12  and  C_13 
REMARK    7  A    between atoms: C_16  and  N_17 
ROOT
HETATM    1  N   UNL     1     -42.852  57.954 -53.451  1.00  0.00    -0.263 N 
HETATM    2  C   UNL     1     -42.319  58.489 -54.611  1.00  0.00     0.270 C 
HETATM    3  O   UNL     1     -41.356  59.248 -54.624  1.00  0.00    -0.266 OA
HETATM    4  H   UNL     1     -43.790  57.568 -53.440  1.00  0.00     0.190 HD
ENDROOT
BRANCH   1   5
HETATM    5  N   UNL     1     -42.320  58.383 -52.230  1.00  0.00    -0.265 N 
HETATM    6  C   UNL     1     -41.630  57.535 -51.393  1.00  0.00     0.260 C 
HETATM    7  O   UNL     1     -41.002  57.985 -50.432  1.00  0.00    -0.269 OA
HETATM    8  H   UNL     1     -42.054  59.366 -52.174  1.00  0.00     0.190 HD
BRANCH   6   9
HETATM    9  C   UNL     1     -41.742  56.037 -51.652  1.00  0.00     0.280 C 
BRANCH   9  10
HETATM   10  O   UNL     1     -41.132  55.738 -52.900  1.00  0.00    -0.342 OA
BRANCH  10  11
HETATM   11  C   UNL     1     -40.777  54.443 -53.138  1.00  0.00     0.069 A 
HETATM   12  C   UNL     1     -40.487  53.706 -51.989  1.00  0.00     0.037 A 
HETATM   13  C   UNL     1     -40.106  52.366 -52.078  1.00  0.00     0.010 A 
HETATM   14  C   UNL     1     -40.000  51.746 -53.328  1.00  0.00    -0.058 A 
HETATM   15  C   UNL     1     -40.298  52.487 -54.479  1.00  0.00     0.010 A 
HETATM   16  C   UNL     1     -40.683  53.830 -54.385  1.00  0.00     0.037 A 
BRANCH  14  17
HETATM   17  C   UNL     1     -39.614  50.293 -53.428  1.00  0.00     0.034 C 
HETATM   18  C   UNL     1     -39.608  49.614 -52.068  1.00  0.00     0.010 C 
ENDBRANCH  14  17
ENDBRANCH  10  11
ENDBRANCH   9  10
ENDBRANCH   6   9
ENDBRANCH   1   5
BRANCH   2  19
HETATM   19  C   UNL     1     -43.053  58.167 -55.863  1.00  0.00     0.033 A 
HETATM   20  C   UNL     1     -44.419  58.450 -55.920  1.00  0.00     0.019 A 
HETATM   21  C   UNL     1     -45.162  58.092 -57.048  1.00  0.00     0.032 A 
HETATM   22  C   UNL     1     -44.556  57.444 -58.142  1.00  0.00     0.058 A 
HETATM   23  C   UNL     1     -43.175  57.222 -58.101  1.00  0.00     0.032 A 
HETATM   24  C   UNL     1     -42.426  57.580 -56.968  1.00  0.00     0.019 A 
BRANCH  22  25
HETATM   25  N   UNL     1     -45.383  57.056 -59.248  1.00  0.00    -0.238 N 
HETATM   26  N   UNL     1     -46.340  57.929 -59.676  1.00  0.00    -0.172 NA
HETATM   27  C   UNL     1     -46.921  57.352 -60.725  1.00  0.00     0.053 A 
HETATM   28  C   UNL     1     -48.012  58.040 -61.455  1.00  0.00     0.072 C 
HETATM   29  C   UNL     1     -46.388  56.079 -60.971  1.00  0.00     0.055 A 
HETATM   30  C   UNL     1     -45.429  55.880 -59.997  1.00  0.00     0.035 A 
HETATM   31  C   UNL     1     -44.651  54.640 -59.756  1.00  0.00     0.070 C 
ENDBRANCH  22  25
ENDBRANCH   2  19
TORSDOF 7
ENDMDL
MODEL 6
REMARK VINA RESULT:      -6.6      3.314      6.873
REMARK  7 active torsions:
REMARK  status: ('A' for Active; 'I' for Inactive)
REMARK    1  A    between atoms: C_2  and  C_3 
REMARK    2  A    between atoms: C_6  and  O_7 
REMARK    3  A    between atoms: O_7  and  C_8 
REMARK    4  A    between atoms: C_8  and  C_9 
REMARK       I    between atoms: C_9  and  N_10 
REMARK    5  A    between atoms: N_10  and  N_11 
REMARK       I    between atoms: N_11  and  C_12 
REMARK    6  A    between atoms: C_12  and  C_13 
REMARK    7  A    between atoms: C_16  and  N_17 
ROOT
HETATM    1  N   UNL     1     -39.942  52.727 -52.721  1.00  0.00    -0.263 N 
HETATM    2  C   UNL     1     -40.778  52.568 -53.813  1.00  0.00     0.270 C 
HETATM    3  O   UNL     1     -40.993  51.486 -54.348  1.00  0.00    -0.266 OA
HETATM    4  H   UNL     1     -39.570  53.639 -52.479  1.00  0.00     0.190 HD
ENDROOT
BRANCH   1   5
HETATM    5  N   UNL     1     -39.235  51.606 -52.272  1.00  0.00    -0.265 N 
HETATM    6  C   UNL     1     -39.601  50.914 -51.139  1.00  0.00     0.260 C 
HETATM    7  O   UNL     1     -39.090  49.822 -50.886  1.00  0.00    -0.269 OA
HETATM    8  H   UNL     1     -38.761  51.055 -52.987  1.00  0.00     0.190 HD
BRANCH   6   9
HETATM    9  C   UNL     1     -40.585  51.584 -50.187  1.00  0.00     0.280 C 
BRANCH   9  10
HETATM   10  O   UNL     1     -40.103  52.881 -49.862  1.00  0.00    -0.342 OA
BRANCH  10  11
HETATM   11  C   UNL     1     -40.886  53.948 -50.191  1.00  0.00     0.069 A 
HETATM   12  C   UNL     1     -42.177  53.611 -50.600  1.00  0.00     0.037 A 
HETATM   13  C   UNL     1     -43.089  54.600 -50.970  1.00  0.00     0.010 A 
HETATM   14  C   UNL     1     -42.716  55.948 -50.943  1.00  0.00    -0.058 A 
HETATM   15  C   UNL     1     -41.422  56.284 -50.525  1.00  0.00     0.010 A 
HETATM   16  C   UNL     1     -40.510  55.289 -50.151  1.00  0.00     0.037 A 
BRANCH  14  17
HETATM   17  C   UNL     1     -43.705  57.021 -51.317  1.00  0.00     0.034 C 
HETATM   18  C   UNL     1     -43.022  58.356 -51.572  1.00  0.00     0.010 C 
ENDBRANCH  14  17
ENDBRANCH  10  11
ENDBRANCH   9  10
ENDBRANCH   6   9
ENDBRANCH   1   5
BRANCH   2  19
HETATM   19  C   UNL     1     -41.339  53.823 -54.380  1.00  0.00     0.033 A 
HETATM   20  C   UNL     1     -42.464  53.732 -55.201  1.00  0.00     0.019 A 
HETATM   21  C   UNL     1     -42.977  54.877 -55.817  1.00  0.00     0.032 A 
HETATM   22  C   UNL     1     -42.376  56.136 -55.625  1.00  0.00     0.058 A 
HETATM   23  C   UNL     1     -41.287  56.227 -54.751  1.00  0.00     0.032 A 
HETATM   24  C   UNL     1     -40.770  55.077 -54.131  1.00  0.00     0.019 A 
BRANCH  22  25
HETATM   25  N   UNL     1     -42.918  57.264 -56.326  1.00  0.00    -0.238 N 
HETATM   26  N   UNL     1     -42.233  57.744 -57.404  1.00  0.00    -0.172 NA
HETATM   27  C   UNL     1     -42.966  58.742 -57.891  1.00  0.00     0.053 A 
HETATM   28  C   UNL     1     -42.520  59.491 -59.089  1.00  0.00     0.072 C 
HETATM   29  C   UNL     1     -44.114  58.961 -57.116  1.00  0.00     0.055 A 
HETATM   30  C   UNL     1     -44.057  58.034 -56.092  1.00  0.00     0.035 A 
HETATM   31  C   UNL     1     -44.985  57.924 -54.941  1.00  0.00     0.070 C 
ENDBRANCH  22  25
ENDBRANCH   2  19
TORSDOF 7
ENDMDL
MODEL 7
REMARK VINA RESULT:      -6.5     16.309     18.392
REMARK  7 active torsions:
REMARK  status: ('A' for Active; 'I' for Inactive)
REMARK    1  A    between atoms: C_2  and  C_3 
REMARK    2  A    between atoms: C_6  and  O_7 
REMARK    3  A    between atoms: O_7  and  C_8 
REMARK    4  A    between atoms: C_8  and  C_9 
REMARK       I    between atoms: C_9  and  N_10 
REMARK    5  A    between atoms: N_10  and  N_11 
REMARK       I    between atoms: N_11  and  C_12 
REMARK    6  A    between atoms: C_12  and  C_13 
REMARK    7  A    between atoms: C_16  and  N_17 
ROOT
HETATM    1  N   UNL     1     -32.573  39.080 -52.545  1.00  0.00    -0.263 N 
HETATM    2  C   UNL     1     -32.491  39.794 -53.727  1.00  0.00     0.270 C 
HETATM    3  O   UNL     1     -31.595  40.595 -53.972  1.00  0.00    -0.266 OA
HETATM    4  H   UNL     1     -33.445  38.649 -52.256  1.00  0.00     0.190 HD
ENDROOT
BRANCH   1   5
HETATM    5  N   UNL     1     -31.636  39.365 -51.544  1.00  0.00    -0.265 N 
HETATM    6  C   UNL     1     -32.011  39.631 -50.245  1.00  0.00     0.260 C 
HETATM    7  O   UNL     1     -31.163  39.674 -49.351  1.00  0.00    -0.269 OA
HETATM    8  H   UNL     1     -30.714  38.946 -51.656  1.00  0.00     0.190 HD
BRANCH   6   9
HETATM    9  C   UNL     1     -33.478  39.946 -49.981  1.00  0.00     0.280 C 
BRANCH   9  10
HETATM   10  O   UNL     1     -33.809  41.172 -50.618  1.00  0.00    -0.342 OA
BRANCH  10  11
HETATM   11  C   UNL     1     -34.986  41.233 -51.303  1.00  0.00     0.069 A 
HETATM   12  C   UNL     1     -35.948  40.317 -50.876  1.00  0.00     0.037 A 
HETATM   13  C   UNL     1     -37.202  40.262 -51.488  1.00  0.00     0.010 A 
HETATM   14  C   UNL     1     -37.507  41.123 -52.547  1.00  0.00    -0.058 A 
HETATM   15  C   UNL     1     -36.541  42.047 -52.969  1.00  0.00     0.010 A 
HETATM   16  C   UNL     1     -35.286  42.101 -52.350  1.00  0.00     0.037 A 
BRANCH  14  17
HETATM   17  C   UNL     1     -38.867  41.086 -53.194  1.00  0.00     0.034 C 
HETATM   18  C   UNL     1     -38.779  41.227 -54.705  1.00  0.00     0.010 C 
ENDBRANCH  14  17
ENDBRANCH  10  11
ENDBRANCH   9  10
ENDBRANCH   6   9
ENDBRANCH   1   5
BRANCH   2  19
HETATM   19  C   UNL     1     -33.627  39.609 -54.669  1.00  0.00     0.033 A 
HETATM   20  C   UNL     1     -33.477  40.062 -55.981  1.00  0.00     0.019 A 
HETATM   21  C   UNL     1     -34.547  39.979 -56.877  1.00  0.00     0.032 A 
HETATM   22  C   UNL     1     -35.787  39.441 -56.480  1.00  0.00     0.058 A 
HETATM   23  C   UNL     1     -35.906  38.933 -55.182  1.00  0.00     0.032 A 
HETATM   24  C   UNL     1     -34.833  39.016 -54.280  1.00  0.00     0.019 A 
BRANCH  22  25
HETATM   25  N   UNL     1     -36.860  39.432 -57.431  1.00  0.00    -0.238 N 
HETATM   26  N   UNL     1     -37.359  38.227 -57.830  1.00  0.00    -0.172 NA
HETATM   27  C   UNL     1     -38.361  38.499 -58.662  1.00  0.00     0.053 A 
HETATM   28  C   UNL     1     -39.146  37.406 -59.282  1.00  0.00     0.072 C 
HETATM   29  C   UNL     1     -38.504  39.881 -58.856  1.00  0.00     0.055 A 
HETATM   30  C   UNL     1     -37.514  40.471 -58.093  1.00  0.00     0.035 A 
HETATM   31  C   UNL     1     -37.175  41.913 -58.041  1.00  0.00     0.070 C 
ENDBRANCH  22  25
ENDBRANCH   2  19
TORSDOF 7
ENDMDL
MODEL 8
REMARK VINA RESULT:      -6.4     15.737     19.118
REMARK  7 active torsions:
REMARK  status: ('A' for Active; 'I' for Inactive)
REMARK    1  A    between atoms: C_2  and  C_3 
REMARK    2  A    between atoms: C_6  and  O_7 
REMARK    3  A    between atoms: O_7  and  C_8 
REMARK    4  A    between atoms: C_8  and  C_9 
REMARK       I    between atoms: C_9  and  N_10 
REMARK    5  A    between atoms: N_10  and  N_11 
REMARK       I    between atoms: N_11  and  C_12 
REMARK    6  A    between atoms: C_12  and  C_13 
REMARK    7  A    between atoms: C_16  and  N_17 
ROOT
HETATM    1  N   UNL     1     -36.849  42.031 -56.059  1.00  0.00    -0.263 N 
HETATM    2  C   UNL     1     -37.941  41.302 -56.494  1.00  0.00     0.270 C 
HETATM    3  O   UNL     1     -38.938  41.104 -55.808  1.00  0.00    -0.266 OA
HETATM    4  H   UNL     1     -35.949  41.947 -56.520  1.00  0.00     0.190 HD
ENDROOT
BRANCH   1   5
HETATM    5  N   UNL     1     -36.850  42.480 -54.732  1.00  0.00    -0.265 N 
HETATM    6  C   UNL     1     -35.855  42.137 -53.842  1.00  0.00     0.260 C 
HETATM    7  O   UNL     1     -35.774  42.707 -52.753  1.00  0.00    -0.269 OA
HETATM    8  H   UNL     1     -37.301  43.377 -54.560  1.00  0.00     0.190 HD
BRANCH   6   9
HETATM    9  C   UNL     1     -34.931  40.986 -54.222  1.00  0.00     0.280 C 
BRANCH   9  10
HETATM   10  O   UNL     1     -34.139  41.378 -55.335  1.00  0.00    -0.342 OA
BRANCH  10  11
HETATM   11  C   UNL     1     -33.546  40.393 -56.068  1.00  0.00     0.069 A 
HETATM   12  C   UNL     1     -34.438  39.574 -56.761  1.00  0.00     0.037 A 
HETATM   13  C   UNL     1     -33.974  38.521 -57.551  1.00  0.00     0.010 A 
HETATM   14  C   UNL     1     -32.602  38.268 -57.652  1.00  0.00    -0.058 A 
HETATM   15  C   UNL     1     -31.708  39.097 -56.961  1.00  0.00     0.010 A 
HETATM   16  C   UNL     1     -32.178  40.154 -56.172  1.00  0.00     0.037 A 
BRANCH  14  17
HETATM   17  C   UNL     1     -32.094  37.149 -58.524  1.00  0.00     0.034 C 
HETATM   18  C   UNL     1     -32.653  37.234 -59.936  1.00  0.00     0.010 C 
ENDBRANCH  14  17
ENDBRANCH  10  11
ENDBRANCH   9  10
ENDBRANCH   6   9
ENDBRANCH   1   5
BRANCH   2  19
HETATM   19  C   UNL     1     -37.799  40.671 -57.833  1.00  0.00     0.033 A 
HETATM   20  C   UNL     1     -37.987  39.291 -57.936  1.00  0.00     0.019 A 
HETATM   21  C   UNL     1     -37.787  38.647 -59.160  1.00  0.00     0.032 A 
HETATM   22  C   UNL     1     -37.396  39.368 -60.305  1.00  0.00     0.058 A 
HETATM   23  C   UNL     1     -37.272  40.758 -60.206  1.00  0.00     0.032 A 
HETATM   24  C   UNL     1     -37.472  41.407 -58.977  1.00  0.00     0.019 A 
BRANCH  22  25
HETATM   25  N   UNL     1     -37.156  38.641 -61.518  1.00  0.00    -0.238 N 
HETATM   26  N   UNL     1     -35.871  38.528 -61.960  1.00  0.00    -0.172 NA
HETATM   27  C   UNL     1     -35.923  37.778 -63.059  1.00  0.00     0.053 A 
HETATM   28  C   UNL     1     -34.686  37.439 -63.800  1.00  0.00     0.072 C 
HETATM   29  C   UNL     1     -37.243  37.430 -63.378  1.00  0.00     0.055 A 
HETATM   30  C   UNL     1     -38.031  38.018 -62.408  1.00  0.00     0.035 A 
HETATM   31  C   UNL     1     -39.513  38.037 -62.360  1.00  0.00     0.070 C 
ENDBRANCH  22  25
ENDBRANCH   2  19
TORSDOF 7
ENDMDL
MODEL 9
REMARK VINA RESULT:      -6.3     16.310     18.701
REMARK  7 active torsions:
REMARK  status: ('A' for Active; 'I' for Inactive)
REMARK    1  A    between atoms: C_2  and  C_3 
REMARK    2  A    between atoms: C_6  and  O_7 
REMARK    3  A    between atoms: O_7  and  C_8 
REMARK    4  A    between atoms: C_8  and  C_9 
REMARK       I    between atoms: C_9  and  N_10 
REMARK    5  A    between atoms: N_10  and  N_11 
REMARK       I    between atoms: N_11  and  C_12 
REMARK    6  A    between atoms: C_12  and  C_13 
REMARK    7  A    between atoms: C_16  and  N_17 
ROOT
HETATM    1  N   UNL     1     -35.779  39.062 -53.552  1.00  0.00    -0.263 N 
HETATM    2  C   UNL     1     -34.800  38.663 -54.446  1.00  0.00     0.270 C 
HETATM    3  O   UNL     1     -33.607  38.617 -54.165  1.00  0.00    -0.266 OA
HETATM    4  H   UNL     1     -36.694  39.354 -53.879  1.00  0.00     0.190 HD
ENDROOT
BRANCH   1   5
HETATM    5  N   UNL     1     -35.368  39.527 -52.298  1.00  0.00    -0.265 N 
HETATM    6  C   UNL     1     -35.326  40.869 -51.992  1.00  0.00     0.260 C 
HETATM    7  O   UNL     1     -35.160  41.235 -50.827  1.00  0.00    -0.269 OA
HETATM    8  H   UNL     1     -35.533  38.903 -51.509  1.00  0.00     0.190 HD
BRANCH   6   9
HETATM    9  C   UNL     1     -35.410  41.862 -53.146  1.00  0.00     0.280 C 
BRANCH   9  10
HETATM   10  O   UNL     1     -36.721  41.825 -53.692  1.00  0.00    -0.342 OA
BRANCH  10  11
HETATM   11  C   UNL     1     -36.840  41.760 -55.049  1.00  0.00     0.069 A 
HETATM   12  C   UNL     1     -37.989  41.107 -55.496  1.00  0.00     0.037 A 
HETATM   13  C   UNL     1     -38.243  40.963 -56.860  1.00  0.00     0.010 A 
HETATM   14  C   UNL     1     -37.339  41.467 -57.802  1.00  0.00    -0.058 A 
HETATM   15  C   UNL     1     -36.189  42.128 -57.350  1.00  0.00     0.010 A 
HETATM   16  C   UNL     1     -35.940  42.274 -55.980  1.00  0.00     0.037 A 
BRANCH  14  17
HETATM   17  C   UNL     1     -37.621  41.337 -59.276  1.00  0.00     0.034 C 
HETATM   18  C   UNL     1     -37.281  42.612 -60.032  1.00  0.00     0.010 C 
ENDBRANCH  14  17
ENDBRANCH  10  11
ENDBRANCH   9  10
ENDBRANCH   6   9
ENDBRANCH   1   5
BRANCH   2  19
HETATM   19  C   UNL     1     -35.269  38.381 -55.829  1.00  0.00     0.033 A 
HETATM   20  C   UNL     1     -34.506  38.859 -56.895  1.00  0.00     0.019 A 
HETATM   21  C   UNL     1     -34.951  38.684 -58.208  1.00  0.00     0.032 A 
HETATM   22  C   UNL     1     -36.167  38.028 -58.483  1.00  0.00     0.058 A 
HETATM   23  C   UNL     1     -36.893  37.498 -57.410  1.00  0.00     0.032 A 
HETATM   24  C   UNL     1     -36.448  37.674 -56.089  1.00  0.00     0.019 A 
BRANCH  22  25
HETATM   25  N   UNL     1     -36.593  37.927 -59.848  1.00  0.00    -0.238 N 
HETATM   26  N   UNL     1     -35.639  37.893 -60.822  1.00  0.00    -0.172 NA
HETATM   27  C   UNL     1     -36.292  37.750 -61.973  1.00  0.00     0.053 A 
HETATM   28  C   UNL     1     -35.552  37.662 -63.254  1.00  0.00     0.072 C 
HETATM   29  C   UNL     1     -37.680  37.734 -61.776  1.00  0.00     0.055 A 
HETATM   30  C   UNL     1     -37.867  37.886 -60.416  1.00  0.00     0.035 A 
HETATM   31  C   UNL     1     -39.162  38.040 -59.709  1.00  0.00     0.070 C 
ENDBRANCH  22  25
ENDBRANCH   2  19
TORSDOF 7
ENDMDL
MODEL 10
REMARK VINA RESULT:      -6.2     15.559     18.152
REMARK  7 active torsions:
REMARK  status: ('A' for Active; 'I' for Inactive)
REMARK    1  A    between atoms: C_2  and  C_3 
REMARK    2  A    between atoms: C_6  and  O_7 
REMARK    3  A    between atoms: O_7  and  C_8 
REMARK    4  A    between atoms: C_8  and  C_9 
REMARK       I    between atoms: C_9  and  N_10 
REMARK    5  A    between atoms: N_10  and  N_11 
REMARK       I    between atoms: N_11  and  C_12 
REMARK    6  A    between atoms: C_12  and  C_13 
REMARK    7  A    between atoms: C_16  and  N_17 
ROOT
HETATM    1  N   UNL     1     -37.331  41.840 -54.836  1.00  0.00    -0.263 N 
HETATM    2  C   UNL     1     -36.329  42.177 -53.942  1.00  0.00     0.270 C 
HETATM    3  O   UNL     1     -35.472  43.023 -54.174  1.00  0.00    -0.266 OA
HETATM    4  H   UNL     1     -37.841  40.969 -54.741  1.00  0.00     0.190 HD
ENDROOT
BRANCH   1   5
HETATM    5  N   UNL     1     -37.298  42.430 -56.105  1.00  0.00    -0.265 N 
HETATM    6  C   UNL     1     -37.143  41.687 -57.254  1.00  0.00     0.260 C 
HETATM    7  O   UNL     1     -37.324  42.205 -58.357  1.00  0.00    -0.269 OA
HETATM    8  H   UNL     1     -37.821  43.298 -56.213  1.00  0.00     0.190 HD
BRANCH   6   9
HETATM    9  C   UNL     1     -36.667  40.246 -57.108  1.00  0.00     0.280 C 
BRANCH   9  10
HETATM   10  O   UNL     1     -35.254  40.210 -57.255  1.00  0.00    -0.342 OA
BRANCH  10  11
HETATM   11  C   UNL     1     -34.506  40.000 -56.135  1.00  0.00     0.069 A 
HETATM   12  C   UNL     1     -34.972  38.972 -55.315  1.00  0.00     0.037 A 
HETATM   13  C   UNL     1     -34.308  38.646 -54.131  1.00  0.00     0.010 A 
HETATM   14  C   UNL     1     -33.166  39.356 -53.746  1.00  0.00    -0.058 A 
HETATM   15  C   UNL     1     -32.696  40.384 -54.575  1.00  0.00     0.010 A 
HETATM   16  C   UNL     1     -33.363  40.705 -55.763  1.00  0.00     0.037 A 
BRANCH  14  17
HETATM   17  C   UNL     1     -32.431  38.991 -52.483  1.00  0.00     0.034 C 
HETATM   18  C   UNL     1     -31.903  40.221 -51.760  1.00  0.00     0.010 C 
ENDBRANCH  14  17
ENDBRANCH  10  11
ENDBRANCH   9  10
ENDBRANCH   6   9
ENDBRANCH   1   5
BRANCH   2  19
HETATM   19  C   UNL     1     -36.285  41.370 -52.694  1.00  0.00     0.033 A 
HETATM   20  C   UNL     1     -35.314  41.680 -51.740  1.00  0.00     0.019 A 
HETATM   21  C   UNL     1     -35.187  40.899 -50.589  1.00  0.00     0.032 A 
HETATM   22  C   UNL     1     -36.028  39.791 -50.366  1.00  0.00     0.058 A 
HETATM   23  C   UNL     1     -37.039  39.527 -51.297  1.00  0.00     0.032 A 
HETATM   24  C   UNL     1     -37.167  40.311 -52.455  1.00  0.00     0.019 A 
BRANCH  22  25
HETATM   25  N   UNL     1     -35.814  38.998 -49.191  1.00  0.00    -0.238 N 
HETATM   26  N   UNL     1     -34.533  38.659 -48.866  1.00  0.00    -0.172 NA
HETATM   27  C   UNL     1     -34.611  37.976 -47.726  1.00  0.00     0.053 A 
HETATM   28  C   UNL     1     -33.386  37.459 -47.071  1.00  0.00     0.072 C 
HETATM   29  C   UNL     1     -35.942  37.818 -47.313  1.00  0.00     0.055 A 
HETATM   30  C   UNL     1     -36.710  38.443 -48.277  1.00  0.00     0.035 A 
HETATM   31  C   UNL     1     -38.190  38.463 -48.357  1.00  0.00     0.070 C 
ENDBRANCH  22  25
ENDBRANCH   2  19
TORSDOF 7
ENDMDL
