MODEL 1
REMARK VINA RESULT:      -7.7      0.000      0.000
REMARK  6 active torsions:
REMARK  status: ('A' for Active; 'I' for Inactive)
REMARK    1  A    between atoms: C_9  and  C_10 
REMARK    2  A    between atoms: C_12  and  O_13 
REMARK    3  A    between atoms: C_15  and  O_16 
REMARK    4  A    between atoms: O_16  and  C_17 
REMARK    5  A    between atoms: C_17  and  C_18 
REMARK    6  A    between atoms: C_18  and  N_19 
ROOT
HETATM    1  H   UNL     1     -39.894  53.365 -55.909  1.00  0.00     0.186 HD
HETATM    2  N   UNL     1     -40.467  54.216 -55.799  1.00  0.00    -0.304 NA
HETATM    3  C   UNL     1     -41.261  54.246 -54.776  1.00  0.00     0.062 C 
HETATM    4  C   UNL     1     -42.136  55.489 -54.528  1.00  0.00     0.186 C 
HETATM    5  C   UNL     1     -42.059  56.449 -55.646  1.00  0.00     0.091 C 
HETATM    6  N   UNL     1     -42.033  57.283 -56.454  1.00  0.00    -0.195 NA
HETATM    7  C   UNL     1     -43.522  55.040 -54.336  1.00  0.00     0.091 C 
HETATM    8  N   UNL     1     -44.579  54.651 -54.055  1.00  0.00    -0.195 NA
HETATM    9  C   UNL     1     -41.548  56.151 -53.226  1.00  0.00     0.071 C 
HETATM   10  C   UNL     1     -41.528  55.165 -52.004  1.00  0.00     0.053 C 
HETATM   11  C   UNL     1     -40.836  53.842 -52.387  1.00  0.00    -0.053 C 
HETATM   12  C   UNL     1     -39.867  53.334 -51.589  1.00  0.00     0.005 C 
HETATM   13  C   UNL     1     -41.317  53.162 -53.691  1.00  0.00     0.157 C 
HETATM   14  C   UNL     1     -40.457  51.962 -54.052  1.00  0.00    -0.005 C 
HETATM   15  N   UNL     1     -39.743  50.966 -54.351  1.00  0.00    -0.101 N 
HETATM   16  C   UNL     1     -40.861  55.862 -50.776  1.00  0.00     0.244 C 
HETATM   17  N   UNL     1     -40.413  54.884 -49.725  1.00  0.00    -0.071 N 
HETATM   18  H   UNL     1     -39.897  55.423 -49.016  1.00  0.00     0.279 HD
HETATM   19  C   UNL     1     -41.533  54.224 -48.968  1.00  0.00     0.270 C 
HETATM   20  C   UNL     1     -39.418  53.910 -50.284  1.00  0.00     0.262 C 
ENDROOT
BRANCH   9  21
HETATM   21  C   UNL     1     -42.127  57.531 -52.877  1.00  0.00    -0.047 A 
HETATM   22  C   UNL     1     -43.476  57.748 -52.566  1.00  0.00     0.047 A 
HETATM   23  C   UNL     1     -43.966  59.055 -52.387  1.00  0.00     0.102 A 
HETATM   24  C   UNL     1     -43.109  60.164 -52.417  1.00  0.00     0.102 A 
HETATM   25  C   UNL     1     -41.753  59.945 -52.650  1.00  0.00     0.040 A 
HETATM   26  C   UNL     1     -41.274  58.650 -52.900  1.00  0.00     0.010 A 
BRANCH  23  27
HETATM   27  O   UNL     1     -45.299  59.282 -52.136  1.00  0.00    -0.353 OA
HETATM   28  C   UNL     1     -45.718  58.724 -50.886  1.00  0.00     0.210 C 
ENDBRANCH  23  27
BRANCH  24  29
HETATM   29  O   UNL     1     -43.696  61.390 -52.236  1.00  0.00    -0.347 OA
BRANCH  29  30
HETATM   30  C   UNL     1     -43.264  62.180 -51.125  1.00  0.00     0.203 C 
BRANCH  30  31
HETATM   31  C   UNL     1     -43.603  61.423 -49.833  1.00  0.00     0.261 C 
BRANCH  31  32
HETATM   32  N   UNL     1     -44.713  62.099 -49.049  1.00  0.00    -0.065 N 
HETATM   33  H   UNL     1     -44.365  63.046 -48.824  1.00  0.00     0.280 HD
HETATM   34  C   UNL     1     -46.012  62.257 -49.829  1.00  0.00     0.261 C 
HETATM   35  C   UNL     1     -47.077  62.911 -48.940  1.00  0.00     0.195 C 
HETATM   36  O   UNL     1     -47.290  62.146 -47.751  1.00  0.00    -0.388 OA
HETATM   37  C   UNL     1     -46.101  62.062 -46.959  1.00  0.00     0.195 C 
HETATM   38  C   UNL     1     -44.978  61.366 -47.733  1.00  0.00     0.261 C 
ENDBRANCH  31  32
ENDBRANCH  30  31
ENDBRANCH  29  30
ENDBRANCH  24  29
ENDBRANCH   9  21
TORSDOF 6
ENDMDL
MODEL 2
REMARK VINA RESULT:      -7.7      3.227      8.248
REMARK  6 active torsions:
REMARK  status: ('A' for Active; 'I' for Inactive)
REMARK    1  A    between atoms: C_9  and  C_10 
REMARK    2  A    between atoms: C_12  and  O_13 
REMARK    3  A    between atoms: C_15  and  O_16 
REMARK    4  A    between atoms: O_16  and  C_17 
REMARK    5  A    between atoms: C_17  and  C_18 
REMARK    6  A    between atoms: C_18  and  N_19 
ROOT
HETATM    1  H   UNL     1     -46.655  59.083 -56.527  1.00  0.00     0.186 HD
HETATM    2  N   UNL     1     -45.911  58.561 -56.038  1.00  0.00    -0.304 NA
HETATM    3  C   UNL     1     -45.097  59.262 -55.315  1.00  0.00     0.062 C 
HETATM    4  C   UNL     1     -43.971  58.556 -54.537  1.00  0.00     0.186 C 
HETATM    5  C   UNL     1     -43.876  57.124 -54.881  1.00  0.00     0.091 C 
HETATM    6  N   UNL     1     -43.749  55.983 -55.053  1.00  0.00    -0.195 NA
HETATM    7  C   UNL     1     -42.706  59.239 -54.845  1.00  0.00     0.091 C 
HETATM    8  N   UNL     1     -41.748  59.876 -54.999  1.00  0.00    -0.195 NA
HETATM    9  C   UNL     1     -44.364  58.707 -53.019  1.00  0.00     0.071 C 
HETATM   10  C   UNL     1     -44.554  60.206 -52.591  1.00  0.00     0.053 C 
HETATM   11  C   UNL     1     -45.524  60.924 -53.551  1.00  0.00    -0.053 C 
HETATM   12  C   UNL     1     -46.553  61.647 -53.051  1.00  0.00     0.005 C 
HETATM   13  C   UNL     1     -45.239  60.769 -55.064  1.00  0.00     0.157 C 
HETATM   14  C   UNL     1     -46.345  61.377 -55.911  1.00  0.00    -0.005 C 
HETATM   15  N   UNL     1     -47.264  61.881 -56.613  1.00  0.00    -0.101 N 
HETATM   16  C   UNL     1     -45.019  60.272 -51.102  1.00  0.00     0.244 C 
HETATM   17  N   UNL     1     -45.633  61.599 -50.743  1.00  0.00    -0.071 N 
HETATM   18  H   UNL     1     -46.000  61.509 -49.786  1.00  0.00     0.279 HD
HETATM   19  C   UNL     1     -44.656  62.741 -50.677  1.00  0.00     0.270 C 
HETATM   20  C   UNL     1     -46.828  61.890 -51.601  1.00  0.00     0.262 C 
ENDROOT
BRANCH   9  21
HETATM   21  C   UNL     1     -43.494  57.907 -52.037  1.00  0.00    -0.047 A 
HETATM   22  C   UNL     1     -42.201  58.292 -51.657  1.00  0.00     0.047 A 
HETATM   23  C   UNL     1     -41.409  57.446 -50.860  1.00  0.00     0.102 A 
HETATM   24  C   UNL     1     -41.919  56.245 -50.344  1.00  0.00     0.102 A 
HETATM   25  C   UNL     1     -43.230  55.896 -50.657  1.00  0.00     0.040 A 
HETATM   26  C   UNL     1     -43.997  56.703 -51.511  1.00  0.00     0.010 A 
BRANCH  23  27
HETATM   27  O   UNL     1     -40.119  57.790 -50.527  1.00  0.00    -0.353 OA
HETATM   28  C   UNL     1     -39.835  59.165 -50.809  1.00  0.00     0.210 C 
ENDBRANCH  23  27
BRANCH  24  29
HETATM   29  O   UNL     1     -41.056  55.497 -49.584  1.00  0.00    -0.347 OA
BRANCH  29  30
HETATM   30  C   UNL     1     -41.106  54.075 -49.722  1.00  0.00     0.203 C 
BRANCH  30  31
HETATM   31  C   UNL     1     -39.938  53.635 -50.615  1.00  0.00     0.261 C 
BRANCH  31  32
HETATM   32  N   UNL     1     -40.405  52.829 -51.814  1.00  0.00    -0.065 N 
HETATM   33  H   UNL     1     -41.279  52.363 -51.519  1.00  0.00     0.280 HD
HETATM   34  C   UNL     1     -40.723  53.675 -53.040  1.00  0.00     0.261 C 
HETATM   35  C   UNL     1     -41.146  52.768 -54.203  1.00  0.00     0.195 C 
HETATM   36  O   UNL     1     -40.128  51.809 -54.499  1.00  0.00    -0.388 OA
HETATM   37  C   UNL     1     -39.877  50.946 -53.386  1.00  0.00     0.195 C 
HETATM   38  C   UNL     1     -39.388  51.745 -52.175  1.00  0.00     0.261 C 
ENDBRANCH  31  32
ENDBRANCH  30  31
ENDBRANCH  29  30
ENDBRANCH  24  29
ENDBRANCH   9  21
TORSDOF 6
ENDMDL
MODEL 3
REMARK VINA RESULT:      -7.6      3.867      7.557
REMARK  6 active torsions:
REMARK  status: ('A' for Active; 'I' for Inactive)
REMARK    1  A    between atoms: C_9  and  C_10 
REMARK    2  A    between atoms: C_12  and  O_13 
REMARK    3  A    between atoms: C_15  and  O_16 
REMARK    4  A    between atoms: O_16  and  C_17 
REMARK    5  A    between atoms: C_17  and  C_18 
REMARK    6  A    between atoms: C_18  and  N_19 
ROOT
HETATM    1  H   UNL     1     -43.335  56.921 -49.722  1.00  0.00     0.186 HD
HETATM    2  N   UNL     1     -43.445  57.560 -50.524  1.00  0.00    -0.304 NA
HETATM    3  C   UNL     1     -42.543  57.480 -51.451  1.00  0.00     0.062 C 
HETATM    4  C   UNL     1     -42.646  58.386 -52.692  1.00  0.00     0.186 C 
HETATM    5  C   UNL     1     -43.725  59.384 -52.559  1.00  0.00     0.091 C 
HETATM    6  N   UNL     1     -44.573  60.177 -52.566  1.00  0.00    -0.195 NA
HETATM    7  C   UNL     1     -41.351  59.056 -52.877  1.00  0.00     0.091 C 
HETATM    8  N   UNL     1     -40.284  59.466 -53.077  1.00  0.00    -0.195 NA
HETATM    9  C   UNL     1     -42.977  57.411 -53.884  1.00  0.00     0.071 C 
HETATM   10  C   UNL     1     -41.908  56.271 -54.047  1.00  0.00     0.053 C 
HETATM   11  C   UNL     1     -41.681  55.547 -52.705  1.00  0.00    -0.053 C 
HETATM   12  C   UNL     1     -41.718  54.195 -52.657  1.00  0.00     0.005 C 
HETATM   13  C   UNL     1     -41.413  56.443 -51.473  1.00  0.00     0.157 C 
HETATM   14  C   UNL     1     -41.369  55.633 -50.187  1.00  0.00    -0.005 C 
HETATM   15  N   UNL     1     -41.333  54.961 -49.119  1.00  0.00    -0.101 N 
HETATM   16  C   UNL     1     -42.343  55.303 -55.191  1.00  0.00     0.244 C 
HETATM   17  N   UNL     1     -41.634  53.977 -55.131  1.00  0.00    -0.071 N 
HETATM   18  H   UNL     1     -42.060  53.377 -55.851  1.00  0.00     0.279 HD
HETATM   19  C   UNL     1     -40.174  54.034 -55.490  1.00  0.00     0.270 C 
HETATM   20  C   UNL     1     -41.898  53.282 -53.829  1.00  0.00     0.262 C 
ENDROOT
BRANCH   9  21
HETATM   21  C   UNL     1     -43.329  58.100 -55.212  1.00  0.00    -0.047 A 
HETATM   22  C   UNL     1     -42.374  58.668 -56.067  1.00  0.00     0.047 A 
HETATM   23  C   UNL     1     -42.775  59.400 -57.199  1.00  0.00     0.102 A 
HETATM   24  C   UNL     1     -44.126  59.501 -57.559  1.00  0.00     0.102 A 
HETATM   25  C   UNL     1     -45.073  58.872 -56.754  1.00  0.00     0.040 A 
HETATM   26  C   UNL     1     -44.682  58.204 -55.585  1.00  0.00     0.010 A 
BRANCH  23  27
HETATM   27  O   UNL     1     -41.847  60.007 -58.013  1.00  0.00    -0.353 OA
HETATM   28  C   UNL     1     -41.572  61.353 -57.611  1.00  0.00     0.210 C 
ENDBRANCH  23  27
BRANCH  24  29
HETATM   29  O   UNL     1     -44.402  60.244 -58.679  1.00  0.00    -0.347 OA
BRANCH  29  30
HETATM   30  C   UNL     1     -45.140  59.616 -59.731  1.00  0.00     0.203 C 
BRANCH  30  31
HETATM   31  C   UNL     1     -44.143  58.937 -60.681  1.00  0.00     0.261 C 
BRANCH  31  32
HETATM   32  N   UNL     1     -44.304  57.428 -60.697  1.00  0.00    -0.065 N 
HETATM   33  H   UNL     1     -44.134  57.136 -61.674  1.00  0.00     0.280 HD
HETATM   34  C   UNL     1     -43.306  56.692 -59.813  1.00  0.00     0.261 C 
HETATM   35  C   UNL     1     -43.576  55.183 -59.868  1.00  0.00     0.195 C 
HETATM   36  O   UNL     1     -44.917  54.889 -59.470  1.00  0.00    -0.388 OA
HETATM   37  C   UNL     1     -45.871  55.501 -60.344  1.00  0.00     0.195 C 
HETATM   38  C   UNL     1     -45.732  57.025 -60.323  1.00  0.00     0.261 C 
ENDBRANCH  31  32
ENDBRANCH  30  31
ENDBRANCH  29  30
ENDBRANCH  24  29
ENDBRANCH   9  21
TORSDOF 6
ENDMDL
MODEL 4
REMARK VINA RESULT:      -7.3      2.248      4.087
REMARK  6 active torsions:
REMARK  status: ('A' for Active; 'I' for Inactive)
REMARK    1  A    between atoms: C_9  and  C_10 
REMARK    2  A    between atoms: C_12  and  O_13 
REMARK    3  A    between atoms: C_15  and  O_16 
REMARK    4  A    between atoms: O_16  and  C_17 
REMARK    5  A    between atoms: C_17  and  C_18 
REMARK    6  A    between atoms: C_18  and  N_19 
ROOT
HETATM    1  H   UNL     1     -39.682  53.202 -55.697  1.00  0.00     0.186 HD
HETATM    2  N   UNL     1     -40.283  54.040 -55.653  1.00  0.00    -0.304 NA
HETATM    3  C   UNL     1     -41.101  54.108 -54.651  1.00  0.00     0.062 C 
HETATM    4  C   UNL     1     -42.018  55.336 -54.501  1.00  0.00     0.186 C 
HETATM    5  C   UNL     1     -41.945  56.227 -55.676  1.00  0.00     0.091 C 
HETATM    6  N   UNL     1     -41.925  57.009 -56.533  1.00  0.00    -0.195 NA
HETATM    7  C   UNL     1     -43.395  54.857 -54.310  1.00  0.00     0.091 C 
HETATM    8  N   UNL     1     -44.446  54.453 -54.028  1.00  0.00    -0.195 NA
HETATM    9  C   UNL     1     -41.481  56.097 -53.231  1.00  0.00     0.071 C 
HETATM   10  C   UNL     1     -41.460  55.191 -51.948  1.00  0.00     0.053 C 
HETATM   11  C   UNL     1     -40.720  53.869 -52.232  1.00  0.00    -0.053 C 
HETATM   12  C   UNL     1     -39.755  53.443 -51.384  1.00  0.00     0.005 C 
HETATM   13  C   UNL     1     -41.150  53.094 -53.501  1.00  0.00     0.157 C 
HETATM   14  C   UNL     1     -40.246  51.901 -53.766  1.00  0.00    -0.005 C 
HETATM   15  N   UNL     1     -39.495  50.911 -53.986  1.00  0.00    -0.101 N 
HETATM   16  C   UNL     1     -40.843  55.984 -50.754  1.00  0.00     0.244 C 
HETATM   17  N   UNL     1     -40.390  55.089 -49.633  1.00  0.00    -0.071 N 
HETATM   18  H   UNL     1     -39.907  55.687 -48.949  1.00  0.00     0.279 HD
HETATM   19  C   UNL     1     -41.507  54.442 -48.860  1.00  0.00     0.270 C 
HETATM   20  C   UNL     1     -39.354  54.113 -50.108  1.00  0.00     0.262 C 
ENDROOT
BRANCH   9  21
HETATM   21  C   UNL     1     -42.109  57.477 -52.982  1.00  0.00    -0.047 A 
HETATM   22  C   UNL     1     -43.446  57.663 -52.606  1.00  0.00     0.047 A 
HETATM   23  C   UNL     1     -43.992  58.957 -52.525  1.00  0.00     0.102 A 
HETATM   24  C   UNL     1     -43.198  60.095 -52.722  1.00  0.00     0.102 A 
HETATM   25  C   UNL     1     -41.849  59.916 -53.020  1.00  0.00     0.040 A 
HETATM   26  C   UNL     1     -41.320  58.626 -53.173  1.00  0.00     0.010 A 
BRANCH  23  27
HETATM   27  O   UNL     1     -45.318  59.147 -52.210  1.00  0.00    -0.353 OA
HETATM   28  C   UNL     1     -45.596  58.852 -50.837  1.00  0.00     0.210 C 
ENDBRANCH  23  27
BRANCH  24  29
HETATM   29  O   UNL     1     -43.836  61.306 -52.624  1.00  0.00    -0.347 OA
BRANCH  29  30
HETATM   30  C   UNL     1     -43.713  62.216 -53.719  1.00  0.00     0.203 C 
BRANCH  30  31
HETATM   31  C   UNL     1     -44.681  61.774 -54.826  1.00  0.00     0.261 C 
BRANCH  31  32
HETATM   32  N   UNL     1     -44.014  60.865 -55.841  1.00  0.00    -0.065 N 
HETATM   33  H   UNL     1     -43.757  60.006 -55.327  1.00  0.00     0.280 HD
HETATM   34  C   UNL     1     -44.921  60.459 -56.996  1.00  0.00     0.261 C 
HETATM   35  C   UNL     1     -44.145  59.577 -57.982  1.00  0.00     0.195 C 
HETATM   36  O   UNL     1     -42.981  60.252 -58.465  1.00  0.00    -0.388 OA
HETATM   37  C   UNL     1     -42.074  60.563 -57.404  1.00  0.00     0.195 C 
HETATM   38  C   UNL     1     -42.729  61.495 -56.381  1.00  0.00     0.261 C 
ENDBRANCH  31  32
ENDBRANCH  30  31
ENDBRANCH  29  30
ENDBRANCH  24  29
ENDBRANCH   9  21
TORSDOF 6
ENDMDL
MODEL 5
REMARK VINA RESULT:      -7.2     17.956     20.700
REMARK  6 active torsions:
REMARK  status: ('A' for Active; 'I' for Inactive)
REMARK    1  A    between atoms: C_9  and  C_10 
REMARK    2  A    between atoms: C_12  and  O_13 
REMARK    3  A    between atoms: C_15  and  O_16 
REMARK    4  A    between atoms: O_16  and  C_17 
REMARK    5  A    between atoms: C_17  and  C_18 
REMARK    6  A    between atoms: C_18  and  N_19 
ROOT
HETATM    1  H   UNL     1     -31.449  39.886 -50.760  1.00  0.00     0.186 HD
HETATM    2  N   UNL     1     -31.862  39.967 -51.702  1.00  0.00    -0.304 NA
HETATM    3  C   UNL     1     -32.907  39.238 -51.937  1.00  0.00     0.062 C 
HETATM    4  C   UNL     1     -33.595  39.316 -53.312  1.00  0.00     0.186 C 
HETATM    5  C   UNL     1     -32.822  40.129 -54.271  1.00  0.00     0.091 C 
HETATM    6  N   UNL     1     -32.309  40.782 -55.082  1.00  0.00    -0.195 NA
HETATM    7  C   UNL     1     -33.756  37.946 -53.820  1.00  0.00     0.091 C 
HETATM    8  N   UNL     1     -33.991  36.853 -54.134  1.00  0.00    -0.195 NA
HETATM    9  C   UNL     1     -34.983  40.007 -53.038  1.00  0.00     0.071 C 
HETATM   10  C   UNL     1     -35.840  39.237 -51.970  1.00  0.00     0.053 C 
HETATM   11  C   UNL     1     -35.014  38.987 -50.692  1.00  0.00    -0.053 C 
HETATM   12  C   UNL     1     -35.535  39.302 -49.483  1.00  0.00     0.005 C 
HETATM   13  C   UNL     1     -33.609  38.368 -50.887  1.00  0.00     0.157 C 
HETATM   14  C   UNL     1     -32.829  38.321 -49.583  1.00  0.00    -0.005 C 
HETATM   15  N   UNL     1     -32.181  38.283 -48.501  1.00  0.00    -0.101 N 
HETATM   16  C   UNL     1     -37.161  40.020 -51.692  1.00  0.00     0.244 C 
HETATM   17  N   UNL     1     -37.823  39.607 -50.405  1.00  0.00    -0.071 N 
HETATM   18  H   UNL     1     -38.617  40.245 -50.259  1.00  0.00     0.279 HD
HETATM   19  C   UNL     1     -38.431  38.231 -50.430  1.00  0.00     0.270 C 
HETATM   20  C   UNL     1     -36.912  39.832 -49.235  1.00  0.00     0.262 C 
ENDROOT
BRANCH   9  21
HETATM   21  C   UNL     1     -35.785  40.382 -54.294  1.00  0.00    -0.047 A 
HETATM   22  C   UNL     1     -36.425  39.443 -55.114  1.00  0.00     0.047 A 
HETATM   23  C   UNL     1     -37.027  39.843 -56.321  1.00  0.00     0.102 A 
HETATM   24  C   UNL     1     -37.092  41.194 -56.690  1.00  0.00     0.102 A 
HETATM   25  C   UNL     1     -36.524  42.139 -55.839  1.00  0.00     0.040 A 
HETATM   26  C   UNL     1     -35.859  41.736 -54.672  1.00  0.00     0.010 A 
BRANCH  23  27
HETATM   27  O   UNL     1     -37.610  38.920 -57.159  1.00  0.00    -0.353 OA
HETATM   28  C   UNL     1     -37.087  37.602 -56.962  1.00  0.00     0.210 C 
ENDBRANCH  23  27
BRANCH  24  29
HETATM   29  O   UNL     1     -37.698  41.467 -57.890  1.00  0.00    -0.347 OA
BRANCH  29  30
HETATM   30  C   UNL     1     -36.860  41.771 -59.008  1.00  0.00     0.203 C 
BRANCH  30  31
HETATM   31  C   UNL     1     -37.401  41.025 -60.235  1.00  0.00     0.261 C 
BRANCH  31  32
HETATM   32  N   UNL     1     -37.382  39.520 -60.045  1.00  0.00    -0.065 N 
HETATM   33  H   UNL     1     -37.369  39.364 -59.023  1.00  0.00     0.280 HD
HETATM   34  C   UNL     1     -38.610  38.811 -60.604  1.00  0.00     0.261 C 
HETATM   35  C   UNL     1     -38.476  37.297 -60.398  1.00  0.00     0.195 C 
HETATM   36  O   UNL     1     -37.283  36.802 -61.009  1.00  0.00    -0.388 OA
HETATM   37  C   UNL     1     -36.113  37.391 -60.433  1.00  0.00     0.195 C 
HETATM   38  C   UNL     1     -36.110  38.909 -60.634  1.00  0.00     0.261 C 
ENDBRANCH  31  32
ENDBRANCH  30  31
ENDBRANCH  29  30
ENDBRANCH  24  29
ENDBRANCH   9  21
TORSDOF 6
ENDMDL
MODEL 6
REMARK VINA RESULT:      -7.2      3.450      6.942
REMARK  6 active torsions:
REMARK  status: ('A' for Active; 'I' for Inactive)
REMARK    1  A    between atoms: C_9  and  C_10 
REMARK    2  A    between atoms: C_12  and  O_13 
REMARK    3  A    between atoms: C_15  and  O_16 
REMARK    4  A    between atoms: O_16  and  C_17 
REMARK    5  A    between atoms: C_17  and  C_18 
REMARK    6  A    between atoms: C_18  and  N_19 
ROOT
HETATM    1  H   UNL     1     -43.162  53.991 -49.177  1.00  0.00     0.186 HD
HETATM    2  N   UNL     1     -43.475  54.823 -49.700  1.00  0.00    -0.304 NA
HETATM    3  C   UNL     1     -42.620  55.341 -50.523  1.00  0.00     0.062 C 
HETATM    4  C   UNL     1     -43.017  56.574 -51.356  1.00  0.00     0.186 C 
HETATM    5  C   UNL     1     -44.329  57.116 -50.951  1.00  0.00     0.091 C 
HETATM    6  N   UNL     1     -45.366  57.589 -50.732  1.00  0.00    -0.195 NA
HETATM    7  C   UNL     1     -41.971  57.593 -51.190  1.00  0.00     0.091 C 
HETATM    8  N   UNL     1     -41.070  58.324 -51.149  1.00  0.00    -0.195 NA
HETATM    9  C   UNL     1     -43.100  56.056 -52.841  1.00  0.00     0.071 C 
HETATM   10  C   UNL     1     -41.758  55.397 -53.327  1.00  0.00     0.053 C 
HETATM   11  C   UNL     1     -41.291  54.322 -52.325  1.00  0.00    -0.053 C 
HETATM   12  C   UNL     1     -40.942  53.094 -52.773  1.00  0.00     0.005 C 
HETATM   13  C   UNL     1     -41.244  54.738 -50.836  1.00  0.00     0.157 C 
HETATM   14  C   UNL     1     -40.930  53.558 -49.931  1.00  0.00    -0.005 C 
HETATM   15  N   UNL     1     -40.669  52.578 -49.180  1.00  0.00    -0.101 N 
HETATM   16  C   UNL     1     -41.940  54.838 -54.773  1.00  0.00     0.244 C 
HETATM   17  N   UNL     1     -40.884  53.834 -55.145  1.00  0.00    -0.071 N 
HETATM   18  H   UNL     1     -41.147  53.449 -56.062  1.00  0.00     0.279 HD
HETATM   19  C   UNL     1     -39.513  54.417 -55.350  1.00  0.00     0.270 C 
HETATM   20  C   UNL     1     -40.897  52.664 -54.205  1.00  0.00     0.262 C 
ENDROOT
BRANCH   9  21
HETATM   21  C   UNL     1     -43.676  57.060 -53.852  1.00  0.00    -0.047 A 
HETATM   22  C   UNL     1     -43.033  58.251 -54.213  1.00  0.00     0.047 A 
HETATM   23  C   UNL     1     -43.678  59.188 -55.041  1.00  0.00     0.102 A 
HETATM   24  C   UNL     1     -44.933  58.919 -55.604  1.00  0.00     0.102 A 
HETATM   25  C   UNL     1     -45.542  57.701 -55.309  1.00  0.00     0.040 A 
HETATM   26  C   UNL     1     -44.934  56.797 -54.426  1.00  0.00     0.010 A 
BRANCH  23  27
HETATM   27  O   UNL     1     -43.077  60.385 -55.356  1.00  0.00    -0.353 OA
HETATM   28  C   UNL     1     -42.092  60.242 -56.386  1.00  0.00     0.210 C 
ENDBRANCH  23  27
BRANCH  24  29
HETATM   29  O   UNL     1     -45.470  59.906 -56.391  1.00  0.00    -0.347 OA
BRANCH  29  30
HETATM   30  C   UNL     1     -46.053  59.522 -57.640  1.00  0.00     0.203 C 
BRANCH  30  31
HETATM   31  C   UNL     1     -44.969  59.603 -58.724  1.00  0.00     0.261 C 
BRANCH  31  32
HETATM   32  N   UNL     1     -44.335  58.253 -59.001  1.00  0.00    -0.065 N 
HETATM   33  H   UNL     1     -44.205  57.806 -58.079  1.00  0.00     0.280 HD
HETATM   34  C   UNL     1     -45.201  57.326 -59.845  1.00  0.00     0.261 C 
HETATM   35  C   UNL     1     -44.458  56.009 -60.102  1.00  0.00     0.195 C 
HETATM   36  O   UNL     1     -43.200  56.247 -60.739  1.00  0.00    -0.388 OA
HETATM   37  C   UNL     1     -42.338  57.043 -59.920  1.00  0.00     0.195 C 
HETATM   38  C   UNL     1     -42.958  58.416 -59.647  1.00  0.00     0.261 C 
ENDBRANCH  31  32
ENDBRANCH  30  31
ENDBRANCH  29  30
ENDBRANCH  24  29
ENDBRANCH   9  21
TORSDOF 6
ENDMDL
MODEL 7
REMARK VINA RESULT:      -7.1      4.401      7.447
REMARK  6 active torsions:
REMARK  status: ('A' for Active; 'I' for Inactive)
REMARK    1  A    between atoms: C_9  and  C_10 
REMARK    2  A    between atoms: C_12  and  O_13 
REMARK    3  A    between atoms: C_15  and  O_16 
REMARK    4  A    between atoms: O_16  and  C_17 
REMARK    5  A    between atoms: C_17  and  C_18 
REMARK    6  A    between atoms: C_18  and  N_19 
ROOT
HETATM    1  H   UNL     1     -43.444  57.043 -49.836  1.00  0.00     0.186 HD
HETATM    2  N   UNL     1     -43.617  57.577 -50.702  1.00  0.00    -0.304 NA
HETATM    3  C   UNL     1     -42.710  57.487 -51.623  1.00  0.00     0.062 C 
HETATM    4  C   UNL     1     -42.902  58.236 -52.954  1.00  0.00     0.186 C 
HETATM    5  C   UNL     1     -44.076  59.131 -52.920  1.00  0.00     0.091 C 
HETATM    6  N   UNL     1     -44.999  59.829 -53.005  1.00  0.00    -0.195 NA
HETATM    7  C   UNL     1     -41.680  59.008 -53.223  1.00  0.00     0.091 C 
HETATM    8  N   UNL     1     -40.659  59.499 -53.477  1.00  0.00    -0.195 NA
HETATM    9  C   UNL     1     -43.132  57.110 -54.030  1.00  0.00     0.071 C 
HETATM   10  C   UNL     1     -41.954  56.071 -54.078  1.00  0.00     0.053 C 
HETATM   11  C   UNL     1     -41.657  55.524 -52.668  1.00  0.00    -0.053 C 
HETATM   12  C   UNL     1     -41.557  54.189 -52.473  1.00  0.00     0.005 C 
HETATM   13  C   UNL     1     -41.482  56.571 -51.543  1.00  0.00     0.157 C 
HETATM   14  C   UNL     1     -41.358  55.915 -50.177  1.00  0.00    -0.005 C 
HETATM   15  N   UNL     1     -41.257  55.371 -49.043  1.00  0.00    -0.101 N 
HETATM   16  C   UNL     1     -42.287  54.945 -55.106  1.00  0.00     0.244 C 
HETATM   17  N   UNL     1     -41.449  53.711 -54.909  1.00  0.00    -0.071 N 
HETATM   18  H   UNL     1     -41.811  52.997 -55.556  1.00  0.00     0.279 HD
HETATM   19  C   UNL     1     -40.001  53.874 -55.286  1.00  0.00     0.270 C 
HETATM   20  C   UNL     1     -41.644  53.140 -53.536  1.00  0.00     0.262 C 
ENDROOT
BRANCH   9  21
HETATM   21  C   UNL     1     -43.549  57.611 -55.422  1.00  0.00    -0.047 A 
HETATM   22  C   UNL     1     -42.635  57.986 -56.416  1.00  0.00     0.047 A 
HETATM   23  C   UNL     1     -43.084  58.562 -57.618  1.00  0.00     0.102 A 
HETATM   24  C   UNL     1     -44.452  58.688 -57.898  1.00  0.00     0.102 A 
HETATM   25  C   UNL     1     -45.365  58.245 -56.944  1.00  0.00     0.040 A 
HETATM   26  C   UNL     1     -44.919  57.738 -55.714  1.00  0.00     0.010 A 
BRANCH  23  27
HETATM   27  O   UNL     1     -42.192  58.983 -58.577  1.00  0.00    -0.353 OA
HETATM   28  C   UNL     1     -41.857  57.942 -59.501  1.00  0.00     0.210 C 
ENDBRANCH  23  27
BRANCH  24  29
HETATM   29  O   UNL     1     -44.776  59.269 -59.098  1.00  0.00    -0.347 OA
BRANCH  29  30
HETATM   30  C   UNL     1     -45.626  60.418 -59.076  1.00  0.00     0.203 C 
BRANCH  30  31
HETATM   31  C   UNL     1     -44.751  61.671 -59.217  1.00  0.00     0.261 C 
BRANCH  31  32
HETATM   32  N   UNL     1     -43.432  61.373 -59.907  1.00  0.00    -0.065 N 
HETATM   33  H   UNL     1     -43.171  60.416 -59.617  1.00  0.00     0.280 HD
HETATM   34  C   UNL     1     -43.514  61.388 -61.428  1.00  0.00     0.261 C 
HETATM   35  C   UNL     1     -42.128  61.116 -62.027  1.00  0.00     0.195 C 
HETATM   36  O   UNL     1     -41.174  62.073 -61.561  1.00  0.00    -0.388 OA
HETATM   37  C   UNL     1     -41.017  62.011 -60.141  1.00  0.00     0.195 C 
HETATM   38  C   UNL     1     -42.337  62.328 -59.432  1.00  0.00     0.261 C 
ENDBRANCH  31  32
ENDBRANCH  30  31
ENDBRANCH  29  30
ENDBRANCH  24  29
ENDBRANCH   9  21
TORSDOF 6
ENDMDL
MODEL 8
REMARK VINA RESULT:      -7.1      3.216      6.173
REMARK  6 active torsions:
REMARK  status: ('A' for Active; 'I' for Inactive)
REMARK    1  A    between atoms: C_9  and  C_10 
REMARK    2  A    between atoms: C_12  and  O_13 
REMARK    3  A    between atoms: C_15  and  O_16 
REMARK    4  A    between atoms: O_16  and  C_17 
REMARK    5  A    between atoms: C_17  and  C_18 
REMARK    6  A    between atoms: C_18  and  N_19 
ROOT
HETATM    1  H   UNL     1     -41.606  56.003 -49.451  1.00  0.00     0.186 HD
HETATM    2  N   UNL     1     -41.747  56.944 -49.851  1.00  0.00    -0.304 NA
HETATM    3  C   UNL     1     -41.454  57.086 -51.105  1.00  0.00     0.062 C 
HETATM    4  C   UNL     1     -41.656  58.453 -51.783  1.00  0.00     0.186 C 
HETATM    5  C   UNL     1     -42.016  59.504 -50.811  1.00  0.00     0.091 C 
HETATM    6  N   UNL     1     -42.343  60.387 -50.132  1.00  0.00    -0.195 NA
HETATM    7  C   UNL     1     -40.409  58.807 -52.477  1.00  0.00     0.091 C 
HETATM    8  N   UNL     1     -39.464  58.999 -53.124  1.00  0.00    -0.195 NA
HETATM    9  C   UNL     1     -42.847  58.240 -52.791  1.00  0.00     0.071 C 
HETATM   10  C   UNL     1     -42.569  57.085 -53.818  1.00  0.00     0.053 C 
HETATM   11  C   UNL     1     -42.147  55.797 -53.083  1.00  0.00    -0.053 C 
HETATM   12  C   UNL     1     -42.752  54.624 -53.382  1.00  0.00     0.005 C 
HETATM   13  C   UNL     1     -41.023  55.939 -52.029  1.00  0.00     0.157 C 
HETATM   14  C   UNL     1     -40.807  54.647 -51.258  1.00  0.00    -0.005 C 
HETATM   15  N   UNL     1     -40.629  53.575 -50.617  1.00  0.00    -0.101 N 
HETATM   16  C   UNL     1     -43.820  56.878 -54.729  1.00  0.00     0.244 C 
HETATM   17  N   UNL     1     -43.816  55.547 -55.429  1.00  0.00    -0.071 N 
HETATM   18  H   UNL     1     -44.720  55.461 -55.914  1.00  0.00     0.279 HD
HETATM   19  C   UNL     1     -42.782  55.415 -56.513  1.00  0.00     0.270 C 
HETATM   20  C   UNL     1     -43.788  54.418 -54.441  1.00  0.00     0.262 C 
ENDROOT
BRANCH   9  21
HETATM   21  C   UNL     1     -43.378  59.520 -53.455  1.00  0.00    -0.047 A 
HETATM   22  C   UNL     1     -44.624  60.088 -53.157  1.00  0.00     0.047 A 
HETATM   23  C   UNL     1     -45.105  61.182 -53.898  1.00  0.00     0.102 A 
HETATM   24  C   UNL     1     -44.319  61.796 -54.883  1.00  0.00     0.102 A 
HETATM   25  C   UNL     1     -43.048  61.283 -55.129  1.00  0.00     0.040 A 
HETATM   26  C   UNL     1     -42.595  60.146 -54.442  1.00  0.00     0.010 A 
BRANCH  23  27
HETATM   27  O   UNL     1     -46.351  61.712 -53.650  1.00  0.00    -0.353 OA
HETATM   28  C   UNL     1     -46.487  62.167 -52.299  1.00  0.00     0.210 C 
ENDBRANCH  23  27
BRANCH  24  29
HETATM   29  O   UNL     1     -44.891  62.853 -55.546  1.00  0.00    -0.347 OA
BRANCH  29  30
HETATM   30  C   UNL     1     -44.934  62.801 -56.974  1.00  0.00     0.203 C 
BRANCH  30  31
HETATM   31  C   UNL     1     -46.111  61.907 -57.390  1.00  0.00     0.261 C 
BRANCH  31  32
HETATM   32  N   UNL     1     -45.649  60.636 -58.078  1.00  0.00    -0.065 N 
HETATM   33  H   UNL     1     -46.272  60.512 -58.893  1.00  0.00     0.280 HD
HETATM   34  C   UNL     1     -44.217  60.699 -58.595  1.00  0.00     0.261 C 
HETATM   35  C   UNL     1     -43.835  59.358 -59.236  1.00  0.00     0.195 C 
HETATM   36  O   UNL     1     -43.990  58.285 -58.304  1.00  0.00    -0.388 OA
HETATM   37  C   UNL     1     -45.349  58.153 -57.874  1.00  0.00     0.195 C 
HETATM   38  C   UNL     1     -45.822  59.423 -57.162  1.00  0.00     0.261 C 
ENDBRANCH  31  32
ENDBRANCH  30  31
ENDBRANCH  29  30
ENDBRANCH  24  29
ENDBRANCH   9  21
TORSDOF 6
ENDMDL
MODEL 9
REMARK VINA RESULT:      -7.0      4.053      8.402
REMARK  6 active torsions:
REMARK  status: ('A' for Active; 'I' for Inactive)
REMARK    1  A    between atoms: C_9  and  C_10 
REMARK    2  A    between atoms: C_12  and  O_13 
REMARK    3  A    between atoms: C_15  and  O_16 
REMARK    4  A    between atoms: O_16  and  C_17 
REMARK    5  A    between atoms: C_17  and  C_18 
REMARK    6  A    between atoms: C_18  and  N_19 
ROOT
HETATM    1  H   UNL     1     -42.768  62.307 -59.432  1.00  0.00     0.186 HD
HETATM    2  N   UNL     1     -42.968  61.994 -58.469  1.00  0.00    -0.304 NA
HETATM    3  C   UNL     1     -43.670  60.912 -58.349  1.00  0.00     0.062 C 
HETATM    4  C   UNL     1     -43.993  60.368 -56.945  1.00  0.00     0.186 C 
HETATM    5  C   UNL     1     -43.574  61.301 -55.881  1.00  0.00     0.091 C 
HETATM    6  N   UNL     1     -43.245  61.947 -54.975  1.00  0.00    -0.195 NA
HETATM    7  C   UNL     1     -45.442  60.128 -56.872  1.00  0.00     0.091 C 
HETATM    8  N   UNL     1     -46.561  59.822 -56.885  1.00  0.00    -0.195 NA
HETATM    9  C   UNL     1     -43.170  59.031 -56.824  1.00  0.00     0.071 C 
HETATM   10  C   UNL     1     -43.508  58.008 -57.968  1.00  0.00     0.053 C 
HETATM   11  C   UNL     1     -43.386  58.682 -59.349  1.00  0.00    -0.053 C 
HETATM   12  C   UNL     1     -42.673  58.082 -60.329  1.00  0.00     0.005 C 
HETATM   13  C   UNL     1     -44.117  60.035 -59.525  1.00  0.00     0.157 C 
HETATM   14  C   UNL     1     -43.793  60.681 -60.862  1.00  0.00    -0.005 C 
HETATM   15  N   UNL     1     -43.523  61.217 -61.972  1.00  0.00    -0.101 N 
HETATM   16  C   UNL     1     -42.600  56.746 -57.829  1.00  0.00     0.244 C 
HETATM   17  N   UNL     1     -42.543  55.930 -59.092  1.00  0.00    -0.071 N 
HETATM   18  H   UNL     1     -41.845  55.189 -58.938  1.00  0.00     0.279 HD
HETATM   19  C   UNL     1     -43.816  55.200 -59.423  1.00  0.00     0.270 C 
HETATM   20  C   UNL     1     -42.011  56.743 -60.236  1.00  0.00     0.262 C 
ENDROOT
BRANCH   9  21
HETATM   21  C   UNL     1     -43.167  58.390 -55.427  1.00  0.00    -0.047 A 
HETATM   22  C   UNL     1     -42.064  58.422 -54.562  1.00  0.00     0.047 A 
HETATM   23  C   UNL     1     -42.083  57.702 -53.355  1.00  0.00     0.102 A 
HETATM   24  C   UNL     1     -43.231  57.014 -52.935  1.00  0.00     0.102 A 
HETATM   25  C   UNL     1     -44.355  57.044 -53.756  1.00  0.00     0.040 A 
HETATM   26  C   UNL     1     -44.315  57.701 -54.994  1.00  0.00     0.010 A 
BRANCH  23  27
HETATM   27  O   UNL     1     -40.985  57.682 -52.526  1.00  0.00    -0.353 OA
HETATM   28  C   UNL     1     -40.640  58.989 -52.053  1.00  0.00     0.210 C 
ENDBRANCH  23  27
BRANCH  24  29
HETATM   29  O   UNL     1     -43.134  56.341 -51.743  1.00  0.00    -0.347 OA
BRANCH  29  30
HETATM   30  C   UNL     1     -42.915  54.929 -51.789  1.00  0.00     0.203 C 
BRANCH  30  31
HETATM   31  C   UNL     1     -41.608  54.618 -51.046  1.00  0.00     0.261 C 
BRANCH  31  32
HETATM   32  N   UNL     1     -40.657  53.784 -51.885  1.00  0.00    -0.065 N 
HETATM   33  H   UNL     1     -39.785  54.334 -51.957  1.00  0.00     0.280 HD
HETATM   34  C   UNL     1     -40.304  52.438 -51.263  1.00  0.00     0.261 C 
HETATM   35  C   UNL     1     -39.374  51.659 -52.201  1.00  0.00     0.195 C 
HETATM   36  O   UNL     1     -39.977  51.481 -53.485  1.00  0.00    -0.388 OA
HETATM   37  C   UNL     1     -40.234  52.734 -54.125  1.00  0.00     0.195 C 
HETATM   38  C   UNL     1     -41.207  53.580 -53.297  1.00  0.00     0.261 C 
ENDBRANCH  31  32
ENDBRANCH  30  31
ENDBRANCH  29  30
ENDBRANCH  24  29
ENDBRANCH   9  21
TORSDOF 6
ENDMDL
MODEL 10
REMARK VINA RESULT:      -6.8      4.065      8.961
REMARK  6 active torsions:
REMARK  status: ('A' for Active; 'I' for Inactive)
REMARK    1  A    between atoms: C_9  and  C_10 
REMARK    2  A    between atoms: C_12  and  O_13 
REMARK    3  A    between atoms: C_15  and  O_16 
REMARK    4  A    between atoms: O_16  and  C_17 
REMARK    5  A    between atoms: C_17  and  C_18 
REMARK    6  A    between atoms: C_18  and  N_19 
ROOT
HETATM    1  H   UNL     1     -45.771  58.751 -60.031  1.00  0.00     0.186 HD
HETATM    2  N   UNL     1     -45.148  58.244 -59.383  1.00  0.00    -0.304 NA
HETATM    3  C   UNL     1     -44.528  58.964 -58.501  1.00  0.00     0.062 C 
HETATM    4  C   UNL     1     -43.595  58.282 -57.484  1.00  0.00     0.186 C 
HETATM    5  C   UNL     1     -43.404  56.849 -57.783  1.00  0.00     0.091 C 
HETATM    6  N   UNL     1     -43.225  55.710 -57.912  1.00  0.00    -0.195 NA
HETATM    7  C   UNL     1     -42.303  58.984 -57.507  1.00  0.00     0.091 C 
HETATM    8  N   UNL     1     -41.345  59.636 -57.448  1.00  0.00    -0.195 NA
HETATM    9  C   UNL     1     -44.321  58.435 -56.095  1.00  0.00     0.071 C 
HETATM   10  C   UNL     1     -44.625  59.934 -55.735  1.00  0.00     0.053 C 
HETATM   11  C   UNL     1     -45.364  60.629 -56.896  1.00  0.00    -0.053 C 
HETATM   12  C   UNL     1     -46.490  61.338 -56.647  1.00  0.00     0.005 C 
HETATM   13  C   UNL     1     -44.744  60.470 -58.304  1.00  0.00     0.157 C 
HETATM   14  C   UNL     1     -45.641  61.054 -59.384  1.00  0.00    -0.005 C 
HETATM   15  N   UNL     1     -46.386  61.538 -60.280  1.00  0.00    -0.101 N 
HETATM   16  C   UNL     1     -45.414  60.002 -54.389  1.00  0.00     0.244 C 
HETATM   17  N   UNL     1     -46.112  61.320 -54.190  1.00  0.00    -0.071 N 
HETATM   18  H   UNL     1     -46.683  61.230 -53.339  1.00  0.00     0.279 HD
HETATM   19  C   UNL     1     -45.192  62.478 -53.918  1.00  0.00     0.270 C 
HETATM   20  C   UNL     1     -47.088  61.585 -55.298  1.00  0.00     0.262 C 
ENDROOT
BRANCH   9  21
HETATM   21  C   UNL     1     -43.682  57.656 -54.935  1.00  0.00    -0.047 A 
HETATM   22  C   UNL     1     -42.597  58.133 -54.185  1.00  0.00     0.047 A 
HETATM   23  C   UNL     1     -41.976  57.313 -53.227  1.00  0.00     0.102 A 
HETATM   24  C   UNL     1     -42.478  56.039 -52.923  1.00  0.00     0.102 A 
HETATM   25  C   UNL     1     -43.603  55.592 -53.612  1.00  0.00     0.040 A 
HETATM   26  C   UNL     1     -44.180  56.379 -54.619  1.00  0.00     0.010 A 
BRANCH  23  27
HETATM   27  O   UNL     1     -40.877  57.752 -52.525  1.00  0.00    -0.353 OA
HETATM   28  C   UNL     1     -40.229  58.854 -53.169  1.00  0.00     0.210 C 
ENDBRANCH  23  27
BRANCH  24  29
HETATM   29  O   UNL     1     -41.790  55.325 -51.975  1.00  0.00    -0.347 OA
BRANCH  29  30
HETATM   30  C   UNL     1     -41.850  53.898 -52.040  1.00  0.00     0.203 C 
BRANCH  30  31
HETATM   31  C   UNL     1     -40.478  53.376 -52.488  1.00  0.00     0.261 C 
BRANCH  31  32
HETATM   32  N   UNL     1     -40.505  51.892 -52.803  1.00  0.00    -0.065 N 
HETATM   33  H   UNL     1     -41.462  51.572 -52.579  1.00  0.00     0.280 HD
HETATM   34  C   UNL     1     -40.239  51.567 -54.268  1.00  0.00     0.261 C 
HETATM   35  C   UNL     1     -40.248  50.047 -54.474  1.00  0.00     0.195 C 
HETATM   36  O   UNL     1     -39.285  49.411 -53.631  1.00  0.00    -0.388 OA
HETATM   37  C   UNL     1     -39.569  49.631 -52.246  1.00  0.00     0.195 C 
HETATM   38  C   UNL     1     -39.528  51.124 -51.910  1.00  0.00     0.261 C 
ENDBRANCH  31  32
ENDBRANCH  30  31
ENDBRANCH  29  30
ENDBRANCH  24  29
ENDBRANCH   9  21
TORSDOF 6
ENDMDL
