MODEL 1
REMARK VINA RESULT:      -8.6      0.000      0.000
REMARK  6 active torsions:
REMARK  status: ('A' for Active; 'I' for Inactive)
REMARK    1  A    between atoms: O_2  and  C_3 
REMARK    2  A    between atoms: C_6  and  C_7 
REMARK    3  A    between atoms: C_12  and  C_13 
REMARK       I    between atoms: C_13  and  N_14 
REMARK    4  A    between atoms: N_14  and  C_15 
REMARK    5  A    between atoms: C_17  and  O_18 
REMARK    6  A    between atoms: C_24  and  C_25 
ROOT
HETATM    1  C   UNL     1     -43.112  60.220 -51.474  1.00  0.00     0.118 C 
HETATM    2  N   UNL     1     -42.475  59.098 -50.782  1.00  0.00    -0.366 N 
HETATM    3  C   UNL     1     -42.344  57.879 -51.341  1.00  0.00     0.123 C 
HETATM    4  N   UNL     1     -42.609  57.679 -52.666  1.00  0.00    -0.240 N 
HETATM    5  N   UNL     1     -42.629  56.387 -53.033  1.00  0.00    -0.165 NA
HETATM    6  C   UNL     1     -42.199  55.745 -51.921  1.00  0.00     0.148 C 
HETATM    7  C   UNL     1     -41.980  56.655 -50.848  1.00  0.00     0.089 C 
HETATM    8  C   UNL     1     -42.997  58.748 -53.564  1.00  0.00     0.221 C 
HETATM    9  C   UNL     1     -43.815  59.776 -52.776  1.00  0.00     0.066 C 
HETATM   10  H   UNL     1     -42.258  59.258 -49.798  1.00  0.00     0.161 HD
ENDROOT
BRANCH   6  11
HETATM   11  C   UNL     1     -42.059  54.277 -51.877  1.00  0.00     0.276 C 
HETATM   12  N   UNL     1     -40.888  53.861 -52.479  1.00  0.00    -0.322 N 
HETATM   13  H   UNL     1     -40.334  54.629 -52.851  1.00  0.00     0.169 HD
HETATM   14  O   UNL     1     -42.930  53.562 -51.394  1.00  0.00    -0.266 OA
BRANCH  12  15
HETATM   15  C   UNL     1     -40.430  52.551 -52.690  1.00  0.00     0.037 A 
HETATM   16  C   UNL     1     -39.927  51.733 -51.676  1.00  0.00     0.066 A 
HETATM   17  C   UNL     1     -39.496  50.442 -51.981  1.00  0.00     0.067 A 
HETATM   18  C   UNL     1     -39.567  49.948 -53.277  1.00  0.00     0.036 A 
HETATM   19  C   UNL     1     -40.066  50.757 -54.292  1.00  0.00     0.005 A 
HETATM   20  C   UNL     1     -40.490  52.057 -54.000  1.00  0.00     0.029 A 
BRANCH  17  21
HETATM   21  O   UNL     1     -38.988  49.621 -51.016  1.00  0.00    -0.361 OA
HETATM   22  H   UNL     1     -39.724  49.127 -50.615  1.00  0.00     0.217 HD
ENDBRANCH  17  21
ENDBRANCH  12  15
ENDBRANCH   6  11
BRANCH   8  23
HETATM   23  C   UNL     1     -41.774  59.350 -54.217  1.00  0.00     0.409 C 
HETATM   24  F   UNL     1     -40.643  59.088 -53.527  1.00  0.00    -0.169 F 
HETATM   25  F   UNL     1     -41.606  58.810 -55.453  1.00  0.00    -0.169 F 
HETATM   26  F   UNL     1     -41.852  60.685 -54.390  1.00  0.00    -0.169 F 
ENDBRANCH   8  23
BRANCH   1  27
HETATM   27  C   UNL     1     -44.128  60.877 -50.554  1.00  0.00    -0.035 A 
HETATM   28  C   UNL     1     -45.370  61.295 -51.048  1.00  0.00     0.012 A 
HETATM   29  C   UNL     1     -46.335  61.818 -50.182  1.00  0.00     0.037 A 
HETATM   30  C   UNL     1     -46.087  61.918 -48.812  1.00  0.00     0.068 A 
HETATM   31  C   UNL     1     -44.842  61.537 -48.314  1.00  0.00     0.037 A 
HETATM   32  C   UNL     1     -43.873  61.018 -49.178  1.00  0.00     0.012 A 
BRANCH  30  33
HETATM   33  O   UNL     1     -47.123  62.408 -48.066  1.00  0.00    -0.356 OA
HETATM   34  C   UNL     1     -47.091  62.100 -46.676  1.00  0.00     0.210 C 
ENDBRANCH  30  33
ENDBRANCH   1  27
TORSDOF 6
ENDMDL
MODEL 2
REMARK VINA RESULT:      -8.5      4.901      9.400
REMARK  6 active torsions:
REMARK  status: ('A' for Active; 'I' for Inactive)
REMARK    1  A    between atoms: O_2  and  C_3 
REMARK    2  A    between atoms: C_6  and  C_7 
REMARK    3  A    between atoms: C_12  and  C_13 
REMARK       I    between atoms: C_13  and  N_14 
REMARK    4  A    between atoms: N_14  and  C_15 
REMARK    5  A    between atoms: C_17  and  O_18 
REMARK    6  A    between atoms: C_24  and  C_25 
ROOT
HETATM    1  C   UNL     1     -41.480  55.270 -52.942  1.00  0.00     0.118 C 
HETATM    2  N   UNL     1     -41.166  55.933 -54.209  1.00  0.00    -0.366 N 
HETATM    3  C   UNL     1     -42.103  56.543 -54.961  1.00  0.00     0.123 C 
HETATM    4  N   UNL     1     -43.363  56.759 -54.479  1.00  0.00    -0.240 N 
HETATM    5  N   UNL     1     -44.237  57.192 -55.403  1.00  0.00    -0.165 NA
HETATM    6  C   UNL     1     -43.455  57.412 -56.487  1.00  0.00     0.148 C 
HETATM    7  C   UNL     1     -42.103  57.045 -56.234  1.00  0.00     0.089 C 
HETATM    8  C   UNL     1     -43.767  56.401 -53.135  1.00  0.00     0.221 C 
HETATM    9  C   UNL     1     -43.002  55.142 -52.715  1.00  0.00     0.066 C 
HETATM   10  H   UNL     1     -40.217  55.789 -54.555  1.00  0.00     0.161 HD
ENDROOT
BRANCH   6  11
HETATM   11  C   UNL     1     -44.013  57.910 -57.759  1.00  0.00     0.276 C 
HETATM   12  N   UNL     1     -45.314  57.483 -57.942  1.00  0.00    -0.322 N 
HETATM   13  H   UNL     1     -45.656  56.901 -57.181  1.00  0.00     0.169 HD
HETATM   14  O   UNL     1     -43.343  58.577 -58.539  1.00  0.00    -0.266 OA
BRANCH  12  15
HETATM   15  C   UNL     1     -46.157  57.694 -59.044  1.00  0.00     0.037 A 
HETATM   16  C   UNL     1     -46.367  56.750 -60.051  1.00  0.00     0.066 A 
HETATM   17  C   UNL     1     -47.226  57.048 -61.109  1.00  0.00     0.067 A 
HETATM   18  C   UNL     1     -47.889  58.267 -61.175  1.00  0.00     0.036 A 
HETATM   19  C   UNL     1     -47.684  59.212 -60.175  1.00  0.00     0.005 A 
HETATM   20  C   UNL     1     -46.816  58.929 -59.118  1.00  0.00     0.029 A 
BRANCH  17  21
HETATM   21  O   UNL     1     -47.444  56.152 -62.116  1.00  0.00    -0.361 OA
HETATM   22  H   UNL     1     -47.492  55.262 -61.729  1.00  0.00     0.217 HD
ENDBRANCH  17  21
ENDBRANCH  12  15
ENDBRANCH   6  11
BRANCH   8  23
HETATM   23  C   UNL     1     -43.543  57.563 -52.196  1.00  0.00     0.409 C 
HETATM   24  F   UNL     1     -42.563  58.389 -52.626  1.00  0.00    -0.169 F 
HETATM   25  F   UNL     1     -44.673  58.312 -52.120  1.00  0.00    -0.169 F 
HETATM   26  F   UNL     1     -43.244  57.192 -50.933  1.00  0.00    -0.169 F 
ENDBRANCH   8  23
BRANCH   1  27
HETATM   27  C   UNL     1     -40.851  53.885 -52.922  1.00  0.00    -0.035 A 
HETATM   28  C   UNL     1     -40.375  53.338 -51.724  1.00  0.00     0.012 A 
HETATM   29  C   UNL     1     -39.878  52.032 -51.692  1.00  0.00     0.037 A 
HETATM   30  C   UNL     1     -39.862  51.246 -52.846  1.00  0.00     0.068 A 
HETATM   31  C   UNL     1     -40.301  51.792 -54.051  1.00  0.00     0.037 A 
HETATM   32  C   UNL     1     -40.794  53.099 -54.086  1.00  0.00     0.012 A 
BRANCH  30  33
HETATM   33  O   UNL     1     -39.390  49.973 -52.678  1.00  0.00    -0.356 OA
HETATM   34  C   UNL     1     -39.502  49.434 -51.365  1.00  0.00     0.210 C 
ENDBRANCH  30  33
ENDBRANCH   1  27
TORSDOF 6
ENDMDL
MODEL 3
REMARK VINA RESULT:      -8.4      1.895      9.173
REMARK  6 active torsions:
REMARK  status: ('A' for Active; 'I' for Inactive)
REMARK    1  A    between atoms: O_2  and  C_3 
REMARK    2  A    between atoms: C_6  and  C_7 
REMARK    3  A    between atoms: C_12  and  C_13 
REMARK       I    between atoms: C_13  and  N_14 
REMARK    4  A    between atoms: N_14  and  C_15 
REMARK    5  A    between atoms: C_17  and  O_18 
REMARK    6  A    between atoms: C_24  and  C_25 
ROOT
HETATM    1  C   UNL     1     -41.985  55.362 -53.684  1.00  0.00     0.118 C 
HETATM    2  N   UNL     1     -43.250  55.569 -52.978  1.00  0.00    -0.366 N 
HETATM    3  C   UNL     1     -43.608  56.762 -52.463  1.00  0.00     0.123 C 
HETATM    4  N   UNL     1     -42.905  57.896 -52.756  1.00  0.00    -0.240 N 
HETATM    5  N   UNL     1     -43.253  58.964 -52.019  1.00  0.00    -0.165 NA
HETATM    6  C   UNL     1     -44.339  58.526 -51.338  1.00  0.00     0.148 C 
HETATM    7  C   UNL     1     -44.609  57.156 -51.616  1.00  0.00     0.089 C 
HETATM    8  C   UNL     1     -41.773  57.912 -53.661  1.00  0.00     0.221 C 
HETATM    9  C   UNL     1     -41.037  56.574 -53.546  1.00  0.00     0.066 C 
HETATM   10  H   UNL     1     -43.784  54.723 -52.780  1.00  0.00     0.161 HD
ENDROOT
BRANCH   6  11
HETATM   11  C   UNL     1     -45.063  59.395 -50.391  1.00  0.00     0.276 C 
HETATM   12  N   UNL     1     -44.244  60.385 -49.884  1.00  0.00    -0.322 N 
HETATM   13  H   UNL     1     -43.293  60.340 -50.241  1.00  0.00     0.169 HD
HETATM   14  O   UNL     1     -46.234  59.189 -50.094  1.00  0.00    -0.266 OA
BRANCH  12  15
HETATM   15  C   UNL     1     -44.544  61.360 -48.920  1.00  0.00     0.037 A 
HETATM   16  C   UNL     1     -44.825  61.069 -47.584  1.00  0.00     0.066 A 
HETATM   17  C   UNL     1     -45.110  62.106 -46.696  1.00  0.00     0.067 A 
HETATM   18  C   UNL     1     -45.110  63.431 -47.114  1.00  0.00     0.036 A 
HETATM   19  C   UNL     1     -44.830  63.729 -48.444  1.00  0.00     0.005 A 
HETATM   20  C   UNL     1     -44.556  62.696 -49.345  1.00  0.00     0.029 A 
BRANCH  17  21
HETATM   21  O   UNL     1     -45.401  61.855 -45.386  1.00  0.00    -0.361 OA
HETATM   22  H   UNL     1     -45.260  60.908 -45.217  1.00  0.00     0.217 HD
ENDBRANCH  17  21
ENDBRANCH  12  15
ENDBRANCH   6  11
BRANCH   8  23
HETATM   23  C   UNL     1     -42.236  58.206 -55.069  1.00  0.00     0.409 C 
HETATM   24  F   UNL     1     -43.582  58.270 -55.164  1.00  0.00    -0.169 F 
HETATM   25  F   UNL     1     -41.764  59.419 -55.459  1.00  0.00    -0.169 F 
HETATM   26  F   UNL     1     -41.800  57.314 -55.982  1.00  0.00    -0.169 F 
ENDBRANCH   8  23
BRANCH   1  27
HETATM   27  C   UNL     1     -41.295  54.120 -53.142  1.00  0.00    -0.035 A 
HETATM   28  C   UNL     1     -40.835  53.125 -54.012  1.00  0.00     0.012 A 
HETATM   29  C   UNL     1     -40.123  52.027 -53.518  1.00  0.00     0.037 A 
HETATM   30  C   UNL     1     -39.846  51.912 -52.154  1.00  0.00     0.068 A 
HETATM   31  C   UNL     1     -40.329  52.879 -51.275  1.00  0.00     0.037 A 
HETATM   32  C   UNL     1     -41.044  53.975 -51.766  1.00  0.00     0.012 A 
BRANCH  30  33
HETATM   33  O   UNL     1     -39.109  50.815 -51.800  1.00  0.00    -0.356 OA
HETATM   34  C   UNL     1     -39.764  49.868 -50.962  1.00  0.00     0.210 C 
ENDBRANCH  30  33
ENDBRANCH   1  27
TORSDOF 6
ENDMDL
MODEL 4
REMARK VINA RESULT:      -8.2      5.107      9.430
REMARK  6 active torsions:
REMARK  status: ('A' for Active; 'I' for Inactive)
REMARK    1  A    between atoms: O_2  and  C_3 
REMARK    2  A    between atoms: C_6  and  C_7 
REMARK    3  A    between atoms: C_12  and  C_13 
REMARK       I    between atoms: C_13  and  N_14 
REMARK    4  A    between atoms: N_14  and  C_15 
REMARK    5  A    between atoms: C_17  and  O_18 
REMARK    6  A    between atoms: C_24  and  C_25 
ROOT
HETATM    1  C   UNL     1     -40.907  55.923 -53.899  1.00  0.00     0.118 C 
HETATM    2  N   UNL     1     -41.359  56.095 -55.281  1.00  0.00    -0.366 N 
HETATM    3  C   UNL     1     -42.436  56.837 -55.606  1.00  0.00     0.123 C 
HETATM    4  N   UNL     1     -43.043  57.641 -54.683  1.00  0.00    -0.240 N 
HETATM    5  N   UNL     1     -44.213  58.161 -55.092  1.00  0.00    -0.165 NA
HETATM    6  C   UNL     1     -44.272  57.795 -56.395  1.00  0.00     0.148 C 
HETATM    7  C   UNL     1     -43.157  56.989 -56.760  1.00  0.00     0.089 C 
HETATM    8  C   UNL     1     -42.556  57.794 -53.327  1.00  0.00     0.221 C 
HETATM    9  C   UNL     1     -41.932  56.468 -52.880  1.00  0.00     0.066 C 
HETATM   10  H   UNL     1     -40.889  55.509 -55.971  1.00  0.00     0.161 HD
ENDROOT
BRANCH   6  11
HETATM   11  C   UNL     1     -45.413  58.166 -57.253  1.00  0.00     0.276 C 
HETATM   12  N   UNL     1     -45.423  57.437 -58.426  1.00  0.00    -0.322 N 
HETATM   13  H   UNL     1     -44.647  56.783 -58.498  1.00  0.00     0.169 HD
HETATM   14  O   UNL     1     -46.198  59.053 -56.934  1.00  0.00    -0.266 OA
BRANCH  12  15
HETATM   15  C   UNL     1     -46.303  57.541 -59.514  1.00  0.00     0.037 A 
HETATM   16  C   UNL     1     -46.783  58.755 -60.010  1.00  0.00     0.066 A 
HETATM   17  C   UNL     1     -47.654  58.761 -61.100  1.00  0.00     0.067 A 
HETATM   18  C   UNL     1     -48.048  57.577 -61.711  1.00  0.00     0.036 A 
HETATM   19  C   UNL     1     -47.575  56.364 -61.222  1.00  0.00     0.005 A 
HETATM   20  C   UNL     1     -46.711  56.346 -60.123  1.00  0.00     0.029 A 
BRANCH  17  21
HETATM   21  O   UNL     1     -48.151  59.930 -61.601  1.00  0.00    -0.361 OA
HETATM   22  H   UNL     1     -48.631  60.387 -60.890  1.00  0.00     0.217 HD
ENDBRANCH  17  21
ENDBRANCH  12  15
ENDBRANCH   6  11
BRANCH   8  23
HETATM   23  C   UNL     1     -41.590  58.952 -53.246  1.00  0.00     0.409 C 
HETATM   24  F   UNL     1     -41.094  59.292 -54.457  1.00  0.00    -0.169 F 
HETATM   25  F   UNL     1     -42.235  60.051 -52.772  1.00  0.00    -0.169 F 
HETATM   26  F   UNL     1     -40.547  58.733 -52.420  1.00  0.00    -0.169 F 
ENDBRANCH   8  23
BRANCH   1  27
HETATM   27  C   UNL     1     -40.661  54.448 -53.623  1.00  0.00    -0.035 A 
HETATM   28  C   UNL     1     -40.478  53.548 -54.680  1.00  0.00     0.012 A 
HETATM   29  C   UNL     1     -40.164  52.210 -54.422  1.00  0.00     0.037 A 
HETATM   30  C   UNL     1     -40.011  51.752 -53.111  1.00  0.00     0.068 A 
HETATM   31  C   UNL     1     -40.225  52.631 -52.052  1.00  0.00     0.037 A 
HETATM   32  C   UNL     1     -40.544  53.968 -52.307  1.00  0.00     0.012 A 
BRANCH  30  33
HETATM   33  O   UNL     1     -39.666  50.435 -52.991  1.00  0.00    -0.356 OA
HETATM   34  C   UNL     1     -39.619  49.688 -54.203  1.00  0.00     0.210 C 
ENDBRANCH  30  33
ENDBRANCH   1  27
TORSDOF 6
ENDMDL
MODEL 5
REMARK VINA RESULT:      -8.2      1.958      2.299
REMARK  6 active torsions:
REMARK  status: ('A' for Active; 'I' for Inactive)
REMARK    1  A    between atoms: O_2  and  C_3 
REMARK    2  A    between atoms: C_6  and  C_7 
REMARK    3  A    between atoms: C_12  and  C_13 
REMARK       I    between atoms: C_13  and  N_14 
REMARK    4  A    between atoms: N_14  and  C_15 
REMARK    5  A    between atoms: C_17  and  O_18 
REMARK    6  A    between atoms: C_24  and  C_25 
ROOT
HETATM    1  C   UNL     1     -43.164  59.938 -51.065  1.00  0.00     0.118 C 
HETATM    2  N   UNL     1     -43.493  58.538 -50.797  1.00  0.00    -0.366 N 
HETATM    3  C   UNL     1     -42.841  57.513 -51.381  1.00  0.00     0.123 C 
HETATM    4  N   UNL     1     -41.696  57.723 -52.096  1.00  0.00    -0.240 N 
HETATM    5  N   UNL     1     -41.273  56.647 -52.782  1.00  0.00    -0.165 NA
HETATM    6  C   UNL     1     -42.100  55.664 -52.354  1.00  0.00     0.148 C 
HETATM    7  C   UNL     1     -43.078  56.167 -51.449  1.00  0.00     0.089 C 
HETATM    8  C   UNL     1     -41.081  59.027 -52.239  1.00  0.00     0.221 C 
HETATM    9  C   UNL     1     -42.185  60.089 -52.251  1.00  0.00     0.066 C 
HETATM   10  H   UNL     1     -44.336  58.384 -50.243  1.00  0.00     0.161 HD
ENDROOT
BRANCH   6  11
HETATM   11  C   UNL     1     -41.987  54.282 -52.855  1.00  0.00     0.276 C 
HETATM   12  N   UNL     1     -40.870  53.648 -52.346  1.00  0.00    -0.322 N 
HETATM   13  H   UNL     1     -40.321  54.240 -51.727  1.00  0.00     0.169 HD
HETATM   14  O   UNL     1     -42.790  53.820 -53.659  1.00  0.00    -0.266 OA
BRANCH  12  15
HETATM   15  C   UNL     1     -40.389  52.361 -52.629  1.00  0.00     0.037 A 
HETATM   16  C   UNL     1     -39.937  51.470 -51.654  1.00  0.00     0.066 A 
HETATM   17  C   UNL     1     -39.478  50.208 -52.030  1.00  0.00     0.067 A 
HETATM   18  C   UNL     1     -39.471  49.813 -53.362  1.00  0.00     0.036 A 
HETATM   19  C   UNL     1     -39.920  50.696 -54.340  1.00  0.00     0.005 A 
HETATM   20  C   UNL     1     -40.371  51.967 -53.975  1.00  0.00     0.029 A 
BRANCH  17  21
HETATM   21  O   UNL     1     -39.017  49.318 -51.103  1.00  0.00    -0.361 OA
HETATM   22  H   UNL     1     -39.383  48.441 -51.312  1.00  0.00     0.217 HD
ENDBRANCH  17  21
ENDBRANCH  12  15
ENDBRANCH   6  11
BRANCH   8  23
HETATM   23  C   UNL     1     -40.068  59.248 -51.141  1.00  0.00     0.409 C 
HETATM   24  F   UNL     1     -40.021  58.216 -50.270  1.00  0.00    -0.169 F 
HETATM   25  F   UNL     1     -38.825  59.352 -51.681  1.00  0.00    -0.169 F 
HETATM   26  F   UNL     1     -40.273  60.377 -50.431  1.00  0.00    -0.169 F 
ENDBRANCH   8  23
BRANCH   1  27
HETATM   27  C   UNL     1     -44.438  60.713 -51.365  1.00  0.00    -0.035 A 
HETATM   28  C   UNL     1     -45.085  60.569 -52.598  1.00  0.00     0.012 A 
HETATM   29  C   UNL     1     -46.302  61.214 -52.837  1.00  0.00     0.037 A 
HETATM   30  C   UNL     1     -46.901  61.998 -51.849  1.00  0.00     0.068 A 
HETATM   31  C   UNL     1     -46.248  62.177 -50.630  1.00  0.00     0.037 A 
HETATM   32  C   UNL     1     -45.029  61.537 -50.391  1.00  0.00     0.012 A 
BRANCH  30  33
HETATM   33  O   UNL     1     -48.107  62.544 -52.189  1.00  0.00    -0.356 OA
HETATM   34  C   UNL     1     -48.526  63.664 -51.417  1.00  0.00     0.210 C 
ENDBRANCH  30  33
ENDBRANCH   1  27
TORSDOF 6
ENDMDL
MODEL 6
REMARK VINA RESULT:      -8.1      2.559      9.266
REMARK  6 active torsions:
REMARK  status: ('A' for Active; 'I' for Inactive)
REMARK    1  A    between atoms: O_2  and  C_3 
REMARK    2  A    between atoms: C_6  and  C_7 
REMARK    3  A    between atoms: C_12  and  C_13 
REMARK       I    between atoms: C_13  and  N_14 
REMARK    4  A    between atoms: N_14  and  C_15 
REMARK    5  A    between atoms: C_17  and  O_18 
REMARK    6  A    between atoms: C_24  and  C_25 
ROOT
HETATM    1  C   UNL     1     -42.134  54.339 -54.562  1.00  0.00     0.118 C 
HETATM    2  N   UNL     1     -43.139  54.943 -53.685  1.00  0.00    -0.366 N 
HETATM    3  C   UNL     1     -43.400  56.264 -53.681  1.00  0.00     0.123 C 
HETATM    4  N   UNL     1     -42.892  57.087 -54.646  1.00  0.00    -0.240 N 
HETATM    5  N   UNL     1     -43.069  58.396 -54.402  1.00  0.00    -0.165 NA
HETATM    6  C   UNL     1     -43.869  58.399 -53.308  1.00  0.00     0.148 C 
HETATM    7  C   UNL     1     -44.123  57.075 -52.848  1.00  0.00     0.089 C 
HETATM    8  C   UNL     1     -42.089  56.604 -55.752  1.00  0.00     0.221 C 
HETATM    9  C   UNL     1     -41.268  55.403 -55.272  1.00  0.00     0.066 C 
HETATM   10  H   UNL     1     -43.533  54.321 -52.979  1.00  0.00     0.161 HD
ENDROOT
BRANCH   6  11
HETATM   11  C   UNL     1     -44.329  59.655 -52.686  1.00  0.00     0.276 C 
HETATM   12  N   UNL     1     -43.505  60.035 -51.645  1.00  0.00    -0.322 N 
HETATM   13  H   UNL     1     -42.737  59.388 -51.484  1.00  0.00     0.169 HD
HETATM   14  O   UNL     1     -45.349  60.222 -53.059  1.00  0.00    -0.266 OA
BRANCH  12  15
HETATM   15  C   UNL     1     -43.641  61.129 -50.776  1.00  0.00     0.037 A 
HETATM   16  C   UNL     1     -43.009  62.358 -50.971  1.00  0.00     0.066 A 
HETATM   17  C   UNL     1     -43.206  63.390 -50.054  1.00  0.00     0.067 A 
HETATM   18  C   UNL     1     -44.031  63.221 -48.949  1.00  0.00     0.036 A 
HETATM   19  C   UNL     1     -44.665  61.999 -48.748  1.00  0.00     0.005 A 
HETATM   20  C   UNL     1     -44.465  60.955 -49.655  1.00  0.00     0.029 A 
BRANCH  17  21
HETATM   21  O   UNL     1     -42.593  64.600 -50.208  1.00  0.00    -0.361 OA
HETATM   22  H   UNL     1     -42.365  64.942 -49.327  1.00  0.00     0.217 HD
ENDBRANCH  17  21
ENDBRANCH  12  15
ENDBRANCH   6  11
BRANCH   8  23
HETATM   23  C   UNL     1     -42.972  56.276 -56.933  1.00  0.00     0.409 C 
HETATM   24  F   UNL     1     -43.204  54.950 -57.047  1.00  0.00    -0.169 F 
HETATM   25  F   UNL     1     -44.184  56.868 -56.773  1.00  0.00    -0.169 F 
HETATM   26  F   UNL     1     -42.485  56.712 -58.113  1.00  0.00    -0.169 F 
ENDBRANCH   8  23
BRANCH   1  27
HETATM   27  C   UNL     1     -41.236  53.419 -53.752  1.00  0.00    -0.035 A 
HETATM   28  C   UNL     1     -41.062  53.623 -52.378  1.00  0.00     0.012 A 
HETATM   29  C   UNL     1     -40.306  52.723 -51.620  1.00  0.00     0.037 A 
HETATM   30  C   UNL     1     -39.726  51.601 -52.214  1.00  0.00     0.068 A 
HETATM   31  C   UNL     1     -39.863  51.407 -53.587  1.00  0.00     0.037 A 
HETATM   32  C   UNL     1     -40.614  52.307 -54.348  1.00  0.00     0.012 A 
BRANCH  30  33
HETATM   33  O   UNL     1     -39.045  50.777 -51.361  1.00  0.00    -0.356 OA
HETATM   34  C   UNL     1     -39.781  49.678 -50.834  1.00  0.00     0.210 C 
ENDBRANCH  30  33
ENDBRANCH   1  27
TORSDOF 6
ENDMDL
MODEL 7
REMARK VINA RESULT:      -8.0      2.178      9.484
REMARK  6 active torsions:
REMARK  status: ('A' for Active; 'I' for Inactive)
REMARK    1  A    between atoms: O_2  and  C_3 
REMARK    2  A    between atoms: C_6  and  C_7 
REMARK    3  A    between atoms: C_12  and  C_13 
REMARK       I    between atoms: C_13  and  N_14 
REMARK    4  A    between atoms: N_14  and  C_15 
REMARK    5  A    between atoms: C_17  and  O_18 
REMARK    6  A    between atoms: C_24  and  C_25 
ROOT
HETATM    1  C   UNL     1     -43.351  55.694 -53.775  1.00  0.00     0.118 C 
HETATM    2  N   UNL     1     -43.911  56.129 -52.495  1.00  0.00    -0.366 N 
HETATM    3  C   UNL     1     -44.063  57.429 -52.173  1.00  0.00     0.123 C 
HETATM    4  N   UNL     1     -43.898  58.411 -53.108  1.00  0.00    -0.240 N 
HETATM    5  N   UNL     1     -43.883  59.655 -52.601  1.00  0.00    -0.165 NA
HETATM    6  C   UNL     1     -44.214  59.461 -51.302  1.00  0.00     0.148 C 
HETATM    7  C   UNL     1     -44.365  58.077 -51.006  1.00  0.00     0.089 C 
HETATM    8  C   UNL     1     -43.600  58.135 -54.499  1.00  0.00     0.221 C 
HETATM    9  C   UNL     1     -42.743  56.868 -54.573  1.00  0.00     0.066 C 
HETATM   10  H   UNL     1     -44.055  55.391 -51.806  1.00  0.00     0.161 HD
ENDROOT
BRANCH   6  11
HETATM   11  C   UNL     1     -44.322  60.585 -50.353  1.00  0.00     0.276 C 
HETATM   12  N   UNL     1     -45.141  60.270 -49.286  1.00  0.00    -0.322 N 
HETATM   13  H   UNL     1     -45.529  59.331 -49.342  1.00  0.00     0.169 HD
HETATM   14  O   UNL     1     -43.769  61.659 -50.561  1.00  0.00    -0.266 OA
BRANCH  12  15
HETATM   15  C   UNL     1     -45.537  61.087 -48.216  1.00  0.00     0.037 A 
HETATM   16  C   UNL     1     -46.636  61.948 -48.264  1.00  0.00     0.066 A 
HETATM   17  C   UNL     1     -46.957  62.721 -47.148  1.00  0.00     0.067 A 
HETATM   18  C   UNL     1     -46.207  62.645 -45.981  1.00  0.00     0.036 A 
HETATM   19  C   UNL     1     -45.111  61.790 -45.926  1.00  0.00     0.005 A 
HETATM   20  C   UNL     1     -44.774  61.019 -47.043  1.00  0.00     0.029 A 
BRANCH  17  21
HETATM   21  O   UNL     1     -48.016  63.582 -47.166  1.00  0.00    -0.361 OA
HETATM   22  H   UNL     1     -48.827  63.073 -46.993  1.00  0.00     0.217 HD
ENDBRANCH  17  21
ENDBRANCH  12  15
ENDBRANCH   6  11
BRANCH   8  23
HETATM   23  C   UNL     1     -44.880  58.023 -55.294  1.00  0.00     0.409 C 
HETATM   24  F   UNL     1     -45.508  59.212 -55.426  1.00  0.00    -0.169 F 
HETATM   25  F   UNL     1     -44.600  57.593 -56.552  1.00  0.00    -0.169 F 
HETATM   26  F   UNL     1     -45.765  57.145 -54.777  1.00  0.00    -0.169 F 
ENDBRANCH   8  23
BRANCH   1  27
HETATM   27  C   UNL     1     -42.279  54.643 -53.532  1.00  0.00    -0.035 A 
HETATM   28  C   UNL     1     -41.811  54.391 -52.236  1.00  0.00     0.012 A 
HETATM   29  C   UNL     1     -40.891  53.365 -52.005  1.00  0.00     0.037 A 
HETATM   30  C   UNL     1     -40.434  52.565 -53.054  1.00  0.00     0.068 A 
HETATM   31  C   UNL     1     -40.865  52.830 -54.353  1.00  0.00     0.037 A 
HETATM   32  C   UNL     1     -41.782  53.858 -54.587  1.00  0.00     0.012 A 
BRANCH  30  33
HETATM   33  O   UNL     1     -39.566  51.571 -52.694  1.00  0.00    -0.356 OA
HETATM   34  C   UNL     1     -39.652  50.365 -53.447  1.00  0.00     0.210 C 
ENDBRANCH  30  33
ENDBRANCH   1  27
TORSDOF 6
ENDMDL
MODEL 8
REMARK VINA RESULT:      -7.9      3.268      5.596
REMARK  6 active torsions:
REMARK  status: ('A' for Active; 'I' for Inactive)
REMARK    1  A    between atoms: O_2  and  C_3 
REMARK    2  A    between atoms: C_6  and  C_7 
REMARK    3  A    between atoms: C_12  and  C_13 
REMARK       I    between atoms: C_13  and  N_14 
REMARK    4  A    between atoms: N_14  and  C_15 
REMARK    5  A    between atoms: C_17  and  O_18 
REMARK    6  A    between atoms: C_24  and  C_25 
ROOT
HETATM    1  C   UNL     1     -42.716  59.435 -54.613  1.00  0.00     0.118 C 
HETATM    2  N   UNL     1     -43.224  58.066 -54.502  1.00  0.00    -0.366 N 
HETATM    3  C   UNL     1     -42.690  57.159 -53.661  1.00  0.00     0.123 C 
HETATM    4  N   UNL     1     -41.780  57.528 -52.711  1.00  0.00    -0.240 N 
HETATM    5  N   UNL     1     -41.191  56.495 -52.085  1.00  0.00    -0.165 NA
HETATM    6  C   UNL     1     -41.877  55.423 -52.548  1.00  0.00     0.148 C 
HETATM    7  C   UNL     1     -42.848  55.807 -53.517  1.00  0.00     0.089 C 
HETATM    8  C   UNL     1     -41.363  58.901 -52.507  1.00  0.00     0.221 C 
HETATM    9  C   UNL     1     -41.381  59.622 -53.859  1.00  0.00     0.066 C 
HETATM   10  H   UNL     1     -43.920  57.801 -55.199  1.00  0.00     0.161 HD
ENDROOT
BRANCH   6  11
HETATM   11  C   UNL     1     -41.560  54.051 -52.110  1.00  0.00     0.276 C 
HETATM   12  N   UNL     1     -40.748  53.403 -53.020  1.00  0.00    -0.322 N 
HETATM   13  H   UNL     1     -40.517  53.975 -53.830  1.00  0.00     0.169 HD
HETATM   14  O   UNL     1     -42.027  53.580 -51.079  1.00  0.00    -0.266 OA
BRANCH  12  15
HETATM   15  C   UNL     1     -40.283  52.079 -52.992  1.00  0.00     0.037 A 
HETATM   16  C   UNL     1     -39.842  51.437 -51.832  1.00  0.00     0.066 A 
HETATM   17  C   UNL     1     -39.399  50.117 -51.900  1.00  0.00     0.067 A 
HETATM   18  C   UNL     1     -39.397  49.420 -53.102  1.00  0.00     0.036 A 
HETATM   19  C   UNL     1     -39.835  50.053 -54.261  1.00  0.00     0.005 A 
HETATM   20  C   UNL     1     -40.269  51.380 -54.206  1.00  0.00     0.029 A 
BRANCH  17  21
HETATM   21  O   UNL     1     -38.950  49.464 -50.788  1.00  0.00    -0.361 OA
HETATM   22  H   UNL     1     -38.776  50.124 -50.096  1.00  0.00     0.217 HD
ENDBRANCH  17  21
ENDBRANCH  12  15
ENDBRANCH   6  11
BRANCH   8  23
HETATM   23  C   UNL     1     -42.245  59.566 -51.477  1.00  0.00     0.409 C 
HETATM   24  F   UNL     1     -43.414  58.910 -51.302  1.00  0.00    -0.169 F 
HETATM   25  F   UNL     1     -41.618  59.565 -50.272  1.00  0.00    -0.169 F 
HETATM   26  F   UNL     1     -42.533  60.854 -51.759  1.00  0.00    -0.169 F 
ENDBRANCH   8  23
BRANCH   1  27
HETATM   27  C   UNL     1     -42.519  59.789 -56.078  1.00  0.00    -0.035 A 
HETATM   28  C   UNL     1     -42.412  58.782 -57.045  1.00  0.00     0.012 A 
HETATM   29  C   UNL     1     -42.320  59.110 -58.401  1.00  0.00     0.037 A 
HETATM   30  C   UNL     1     -42.348  60.443 -58.816  1.00  0.00     0.068 A 
HETATM   31  C   UNL     1     -42.419  61.455 -57.860  1.00  0.00     0.037 A 
HETATM   32  C   UNL     1     -42.506  61.129 -56.504  1.00  0.00     0.012 A 
BRANCH  30  33
HETATM   33  O   UNL     1     -42.290  60.634 -60.169  1.00  0.00    -0.356 OA
HETATM   34  C   UNL     1     -41.860  59.516 -60.938  1.00  0.00     0.210 C 
ENDBRANCH  30  33
ENDBRANCH   1  27
TORSDOF 6
ENDMDL
MODEL 9
REMARK VINA RESULT:      -7.7      6.154      8.782
REMARK  6 active torsions:
REMARK  status: ('A' for Active; 'I' for Inactive)
REMARK    1  A    between atoms: O_2  and  C_3 
REMARK    2  A    between atoms: C_6  and  C_7 
REMARK    3  A    between atoms: C_12  and  C_13 
REMARK       I    between atoms: C_13  and  N_14 
REMARK    4  A    between atoms: N_14  and  C_15 
REMARK    5  A    between atoms: C_17  and  O_18 
REMARK    6  A    between atoms: C_24  and  C_25 
ROOT
HETATM    1  C   UNL     1     -42.343  56.438 -53.554  1.00  0.00     0.118 C 
HETATM    2  N   UNL     1     -43.421  57.227 -54.153  1.00  0.00    -0.366 N 
HETATM    3  C   UNL     1     -43.739  57.150 -55.460  1.00  0.00     0.123 C 
HETATM    4  N   UNL     1     -43.211  56.174 -56.257  1.00  0.00    -0.240 N 
HETATM    5  N   UNL     1     -43.458  56.342 -57.567  1.00  0.00    -0.165 NA
HETATM    6  C   UNL     1     -44.319  57.387 -57.586  1.00  0.00     0.148 C 
HETATM    7  C   UNL     1     -44.542  57.900 -56.277  1.00  0.00     0.089 C 
HETATM    8  C   UNL     1     -42.326  55.140 -55.759  1.00  0.00     0.221 C 
HETATM    9  C   UNL     1     -41.484  55.725 -54.621  1.00  0.00     0.066 C 
HETATM   10  H   UNL     1     -43.829  57.940 -53.548  1.00  0.00     0.161 HD
ENDROOT
BRANCH   6  11
HETATM   11  C   UNL     1     -44.866  57.919 -58.849  1.00  0.00     0.276 C 
HETATM   12  N   UNL     1     -46.169  57.506 -59.049  1.00  0.00    -0.322 N 
HETATM   13  H   UNL     1     -46.520  56.908 -58.304  1.00  0.00     0.169 HD
HETATM   14  O   UNL     1     -44.188  58.599 -59.609  1.00  0.00    -0.266 OA
BRANCH  12  15
HETATM   15  C   UNL     1     -47.005  57.749 -60.150  1.00  0.00     0.037 A 
HETATM   16  C   UNL     1     -47.404  56.761 -61.053  1.00  0.00     0.066 A 
HETATM   17  C   UNL     1     -48.240  57.097 -62.118  1.00  0.00     0.067 A 
HETATM   18  C   UNL     1     -48.693  58.398 -62.294  1.00  0.00     0.036 A 
HETATM   19  C   UNL     1     -48.299  59.387 -61.399  1.00  0.00     0.005 A 
HETATM   20  C   UNL     1     -47.453  59.064 -60.335  1.00  0.00     0.029 A 
BRANCH  17  21
HETATM   21  O   UNL     1     -48.639  56.158 -63.026  1.00  0.00    -0.361 OA
HETATM   22  H   UNL     1     -49.288  55.575 -62.597  1.00  0.00     0.217 HD
ENDBRANCH  17  21
ENDBRANCH  12  15
ENDBRANCH   6  11
BRANCH   8  23
HETATM   23  C   UNL     1     -43.124  53.930 -55.335  1.00  0.00     0.409 C 
HETATM   24  F   UNL     1     -43.733  53.325 -56.379  1.00  0.00    -0.169 F 
HETATM   25  F   UNL     1     -42.294  53.007 -54.784  1.00  0.00    -0.169 F 
HETATM   26  F   UNL     1     -44.067  54.199 -54.408  1.00  0.00    -0.169 F 
ENDBRANCH   8  23
BRANCH   1  27
HETATM   27  C   UNL     1     -41.454  57.342 -52.715  1.00  0.00    -0.035 A 
HETATM   28  C   UNL     1     -40.534  58.201 -53.328  1.00  0.00     0.012 A 
HETATM   29  C   UNL     1     -39.781  59.094 -52.559  1.00  0.00     0.037 A 
HETATM   30  C   UNL     1     -39.944  59.157 -51.174  1.00  0.00     0.068 A 
HETATM   31  C   UNL     1     -40.832  58.283 -50.550  1.00  0.00     0.037 A 
HETATM   32  C   UNL     1     -41.582  57.386 -51.316  1.00  0.00     0.012 A 
BRANCH  30  33
HETATM   33  O   UNL     1     -39.180  60.097 -50.539  1.00  0.00    -0.356 OA
HETATM   34  C   UNL     1     -37.897  59.664 -50.098  1.00  0.00     0.210 C 
ENDBRANCH  30  33
ENDBRANCH   1  27
TORSDOF 6
ENDMDL
MODEL 10
REMARK VINA RESULT:      -7.5      3.259      4.744
REMARK  6 active torsions:
REMARK  status: ('A' for Active; 'I' for Inactive)
REMARK    1  A    between atoms: O_2  and  C_3 
REMARK    2  A    between atoms: C_6  and  C_7 
REMARK    3  A    between atoms: C_12  and  C_13 
REMARK       I    between atoms: C_13  and  N_14 
REMARK    4  A    between atoms: N_14  and  C_15 
REMARK    5  A    between atoms: C_17  and  O_18 
REMARK    6  A    between atoms: C_24  and  C_25 
ROOT
HETATM    1  C   UNL     1     -44.313  59.204 -53.539  1.00  0.00     0.118 C 
HETATM    2  N   UNL     1     -44.382  57.837 -53.019  1.00  0.00    -0.366 N 
HETATM    3  C   UNL     1     -43.293  57.166 -52.596  1.00  0.00     0.123 C 
HETATM    4  N   UNL     1     -42.094  57.799 -52.430  1.00  0.00    -0.240 N 
HETATM    5  N   UNL     1     -41.063  56.969 -52.199  1.00  0.00    -0.165 NA
HETATM    6  C   UNL     1     -41.664  55.764 -52.052  1.00  0.00     0.148 C 
HETATM    7  C   UNL     1     -43.069  55.857 -52.263  1.00  0.00     0.089 C 
HETATM    8  C   UNL     1     -41.915  59.220 -52.647  1.00  0.00     0.221 C 
HETATM    9  C   UNL     1     -42.857  59.666 -53.770  1.00  0.00     0.066 C 
HETATM   10  H   UNL     1     -45.285  57.375 -53.123  1.00  0.00     0.161 HD
ENDROOT
BRANCH   6  11
HETATM   11  C   UNL     1     -40.891  54.540 -51.773  1.00  0.00     0.276 C 
HETATM   12  N   UNL     1     -40.991  53.631 -52.808  1.00  0.00    -0.322 N 
HETATM   13  H   UNL     1     -41.580  53.956 -53.572  1.00  0.00     0.169 HD
HETATM   14  O   UNL     1     -40.290  54.384 -50.716  1.00  0.00    -0.266 OA
BRANCH  12  15
HETATM   15  C   UNL     1     -40.454  52.337 -52.891  1.00  0.00     0.037 A 
HETATM   16  C   UNL     1     -39.985  51.620 -51.789  1.00  0.00     0.066 A 
HETATM   17  C   UNL     1     -39.470  50.336 -51.968  1.00  0.00     0.067 A 
HETATM   18  C   UNL     1     -39.422  49.750 -53.227  1.00  0.00     0.036 A 
HETATM   19  C   UNL     1     -39.887  50.459 -54.330  1.00  0.00     0.005 A 
HETATM   20  C   UNL     1     -40.395  51.750 -54.163  1.00  0.00     0.029 A 
BRANCH  17  21
HETATM   21  O   UNL     1     -38.992  49.612 -50.914  1.00  0.00    -0.361 OA
HETATM   22  H   UNL     1     -38.897  48.687 -51.196  1.00  0.00     0.217 HD
ENDBRANCH  17  21
ENDBRANCH  12  15
ENDBRANCH   6  11
BRANCH   8  23
HETATM   23  C   UNL     1     -42.140  59.976 -51.359  1.00  0.00     0.409 C 
HETATM   24  F   UNL     1     -41.017  60.068 -50.614  1.00  0.00    -0.169 F 
HETATM   25  F   UNL     1     -42.521  61.250 -51.639  1.00  0.00    -0.169 F 
HETATM   26  F   UNL     1     -43.109  59.449 -50.582  1.00  0.00    -0.169 F 
ENDBRANCH   8  23
BRANCH   1  27
HETATM   27  C   UNL     1     -45.081  59.291 -54.849  1.00  0.00    -0.035 A 
HETATM   28  C   UNL     1     -45.421  60.535 -55.393  1.00  0.00     0.012 A 
HETATM   29  C   UNL     1     -46.049  60.614 -56.639  1.00  0.00     0.037 A 
HETATM   30  C   UNL     1     -46.332  59.458 -57.370  1.00  0.00     0.068 A 
HETATM   31  C   UNL     1     -46.029  58.213 -56.823  1.00  0.00     0.037 A 
HETATM   32  C   UNL     1     -45.406  58.132 -55.575  1.00  0.00     0.012 A 
BRANCH  30  33
HETATM   33  O   UNL     1     -46.911  59.669 -58.591  1.00  0.00    -0.356 OA
HETATM   34  C   UNL     1     -46.214  59.136 -59.713  1.00  0.00     0.210 C 
ENDBRANCH  30  33
ENDBRANCH   1  27
TORSDOF 6
ENDMDL
