MODEL 1
REMARK VINA RESULT:      -8.1      0.000      0.000
REMARK  3 active torsions:
REMARK  status: ('A' for Active; 'I' for Inactive)
REMARK    1  A    between atoms: C_3  and  N_4 
REMARK       I    between atoms: N_4  and  C_5 
REMARK    2  A    between atoms: C_5  and  C_6 
REMARK    3  A    between atoms: C_6  and  C_7 
ROOT
HETATM    1  C   UNL     1     -42.094  55.082 -50.624  1.00  0.00     0.286 C 
HETATM    2  N   UNL     1     -41.308  55.667 -51.805  1.00  0.00    -0.056 N 
HETATM    3  H   UNL     1     -40.294  55.636 -51.596  1.00  0.00     0.278 HD
HETATM    4  H   UNL     1     -41.420  55.055 -52.626  1.00  0.00     0.278 HD
HETATM    5  C   UNL     1     -41.770  57.060 -52.109  1.00  0.00     0.209 C 
HETATM    6  C   UNL     1     -43.251  56.976 -52.540  1.00  0.00     0.115 C 
HETATM    7  N   UNL     1     -44.068  56.303 -51.530  1.00  0.00    -0.353 N 
HETATM    8  C   UNL     1     -43.622  55.211 -50.815  1.00  0.00     0.249 C 
HETATM    9  O   UNL     1     -44.424  54.447 -50.290  1.00  0.00    -0.271 OA
HETATM   10  C   UNL     1     -40.903  57.684 -53.192  1.00  0.00     0.035 C 
HETATM   11  C   UNL     1     -41.425  59.081 -53.527  1.00  0.00     0.002 C 
HETATM   12  C   UNL     1     -42.902  59.057 -53.927  1.00  0.00     0.002 C 
HETATM   13  C   UNL     1     -43.783  58.368 -52.881  1.00  0.00     0.027 C 
HETATM   14  H   UNL     1     -45.080  56.308 -51.650  1.00  0.00     0.163 HD
ENDROOT
BRANCH   1  15
HETATM   15  C   UNL     1     -41.675  53.634 -50.396  1.00  0.00     0.146 C 
BRANCH  15  16
HETATM   16  C   UNL     1     -40.177  53.604 -50.339  1.00  0.00     0.224 C 
HETATM   17  N   UNL     1     -39.402  52.813 -51.115  1.00  0.00    -0.325 N 
HETATM   18  H   UNL     1     -38.435  52.793 -50.785  1.00  0.00     0.169 HD
HETATM   19  O   UNL     1     -39.647  54.152 -49.362  1.00  0.00    -0.273 OA
BRANCH  17  20
HETATM   20  C   UNL     1     -39.642  51.930 -52.185  1.00  0.00     0.073 A 
HETATM   21  C   UNL     1     -39.979  52.286 -53.488  1.00  0.00     0.033 A 
HETATM   22  C   UNL     1     -40.216  51.293 -54.450  1.00  0.00     0.002 A 
HETATM   23  C   UNL     1     -40.108  49.941 -54.122  1.00  0.00     0.003 A 
HETATM   24  C   UNL     1     -39.741  49.572 -52.832  1.00  0.00     0.044 A 
HETATM   25  C   UNL     1     -39.501  50.563 -51.888  1.00  0.00     0.143 A 
HETATM   26  F   UNL     1     -39.170  50.201 -50.638  1.00  0.00    -0.204 F 
ENDBRANCH  17  20
ENDBRANCH  15  16
ENDBRANCH   1  15
TORSDOF 3
ENDMDL
MODEL 2
REMARK VINA RESULT:      -8.0      1.977      2.164
REMARK  3 active torsions:
REMARK  status: ('A' for Active; 'I' for Inactive)
REMARK    1  A    between atoms: C_3  and  N_4 
REMARK       I    between atoms: N_4  and  C_5 
REMARK    2  A    between atoms: C_5  and  C_6 
REMARK    3  A    between atoms: C_6  and  C_7 
ROOT
HETATM    1  C   UNL     1     -41.601  54.912 -52.140  1.00  0.00     0.286 C 
HETATM    2  N   UNL     1     -42.341  54.349 -53.361  1.00  0.00    -0.056 N 
HETATM    3  H   UNL     1     -41.935  53.433 -53.621  1.00  0.00     0.278 HD
HETATM    4  H   UNL     1     -43.315  54.133 -53.100  1.00  0.00     0.278 HD
HETATM    5  C   UNL     1     -42.296  55.321 -54.501  1.00  0.00     0.209 C 
HETATM    6  C   UNL     1     -43.046  56.596 -54.056  1.00  0.00     0.115 C 
HETATM    7  N   UNL     1     -42.498  57.137 -52.813  1.00  0.00    -0.353 N 
HETATM    8  C   UNL     1     -42.074  56.336 -51.772  1.00  0.00     0.249 C 
HETATM    9  O   UNL     1     -41.999  56.789 -50.636  1.00  0.00    -0.271 OA
HETATM   10  C   UNL     1     -42.917  54.708 -55.747  1.00  0.00     0.035 C 
HETATM   11  C   UNL     1     -42.912  55.734 -56.881  1.00  0.00     0.002 C 
HETATM   12  C   UNL     1     -43.614  57.033 -56.477  1.00  0.00     0.002 C 
HETATM   13  C   UNL     1     -43.051  57.628 -55.184  1.00  0.00     0.027 C 
HETATM   14  H   UNL     1     -42.830  58.048 -52.498  1.00  0.00     0.163 HD
ENDROOT
BRANCH   1  15
HETATM   15  C   UNL     1     -41.743  53.951 -50.966  1.00  0.00     0.146 C 
BRANCH  15  16
HETATM   16  C   UNL     1     -40.363  53.648 -50.464  1.00  0.00     0.224 C 
HETATM   17  N   UNL     1     -39.568  52.674 -50.963  1.00  0.00    -0.325 N 
HETATM   18  H   UNL     1     -38.763  52.499 -50.359  1.00  0.00     0.169 HD
HETATM   19  O   UNL     1     -40.042  54.158 -49.380  1.00  0.00    -0.273 OA
BRANCH  17  20
HETATM   20  C   UNL     1     -39.658  51.778 -52.044  1.00  0.00     0.073 A 
HETATM   21  C   UNL     1     -39.804  52.117 -53.386  1.00  0.00     0.033 A 
HETATM   22  C   UNL     1     -39.906  51.110 -54.359  1.00  0.00     0.002 A 
HETATM   23  C   UNL     1     -39.851  49.763 -54.001  1.00  0.00     0.003 A 
HETATM   24  C   UNL     1     -39.674  49.411 -52.668  1.00  0.00     0.044 A 
HETATM   25  C   UNL     1     -39.566  50.414 -51.712  1.00  0.00     0.143 A 
HETATM   26  F   UNL     1     -39.418  50.068 -50.423  1.00  0.00    -0.204 F 
ENDBRANCH  17  20
ENDBRANCH  15  16
ENDBRANCH   1  15
TORSDOF 3
ENDMDL
MODEL 3
REMARK VINA RESULT:      -7.7      2.372      6.042
REMARK  3 active torsions:
REMARK  status: ('A' for Active; 'I' for Inactive)
REMARK    1  A    between atoms: C_3  and  N_4 
REMARK       I    between atoms: N_4  and  C_5 
REMARK    2  A    between atoms: C_5  and  C_6 
REMARK    3  A    between atoms: C_6  and  C_7 
ROOT
HETATM    1  C   UNL     1     -42.274  54.837 -51.205  1.00  0.00     0.286 C 
HETATM    2  N   UNL     1     -41.567  54.653 -52.555  1.00  0.00    -0.056 N 
HETATM    3  H   UNL     1     -42.180  54.994 -53.317  1.00  0.00     0.278 HD
HETATM    4  H   UNL     1     -40.742  55.269 -52.595  1.00  0.00     0.278 HD
HETATM    5  C   UNL     1     -41.175  53.221 -52.756  1.00  0.00     0.209 C 
HETATM    6  C   UNL     1     -40.158  52.856 -51.652  1.00  0.00     0.115 C 
HETATM    7  N   UNL     1     -40.692  53.127 -50.317  1.00  0.00    -0.353 N 
HETATM    8  C   UNL     1     -41.466  54.234 -50.034  1.00  0.00     0.249 C 
HETATM    9  O   UNL     1     -41.562  54.641 -48.882  1.00  0.00    -0.271 OA
HETATM   10  C   UNL     1     -40.593  53.018 -54.147  1.00  0.00     0.035 C 
HETATM   11  C   UNL     1     -40.148  51.565 -54.311  1.00  0.00     0.002 C 
HETATM   12  C   UNL     1     -39.165  51.142 -53.218  1.00  0.00     0.002 C 
HETATM   13  C   UNL     1     -39.704  51.405 -51.809  1.00  0.00     0.027 C 
HETATM   14  H   UNL     1     -40.158  52.803 -49.512  1.00  0.00     0.163 HD
ENDROOT
BRANCH   1  15
HETATM   15  C   UNL     1     -42.575  56.314 -50.980  1.00  0.00     0.146 C 
BRANCH  15  16
HETATM   16  C   UNL     1     -43.993  56.552 -51.405  1.00  0.00     0.224 C 
HETATM   17  N   UNL     1     -44.363  56.908 -52.656  1.00  0.00    -0.325 N 
HETATM   18  H   UNL     1     -45.337  57.216 -52.687  1.00  0.00     0.169 HD
HETATM   19  O   UNL     1     -44.832  56.665 -50.500  1.00  0.00    -0.273 OA
BRANCH  17  20
HETATM   20  C   UNL     1     -43.691  57.064 -53.883  1.00  0.00     0.073 A 
HETATM   21  C   UNL     1     -43.055  58.216 -54.334  1.00  0.00     0.033 A 
HETATM   22  C   UNL     1     -42.444  58.234 -55.597  1.00  0.00     0.002 A 
HETATM   23  C   UNL     1     -42.455  57.101 -56.412  1.00  0.00     0.003 A 
HETATM   24  C   UNL     1     -43.060  55.934 -55.960  1.00  0.00     0.044 A 
HETATM   25  C   UNL     1     -43.656  55.923 -54.705  1.00  0.00     0.143 A 
HETATM   26  F   UNL     1     -44.258  54.800 -54.283  1.00  0.00    -0.204 F 
ENDBRANCH  17  20
ENDBRANCH  15  16
ENDBRANCH   1  15
TORSDOF 3
ENDMDL
MODEL 4
REMARK VINA RESULT:      -7.7      2.117      2.778
REMARK  3 active torsions:
REMARK  status: ('A' for Active; 'I' for Inactive)
REMARK    1  A    between atoms: C_3  and  N_4 
REMARK       I    between atoms: N_4  and  C_5 
REMARK    2  A    between atoms: C_5  and  C_6 
REMARK    3  A    between atoms: C_6  and  C_7 
ROOT
HETATM    1  C   UNL     1     -42.694  55.639 -52.534  1.00  0.00     0.286 C 
HETATM    2  N   UNL     1     -43.635  56.432 -53.451  1.00  0.00    -0.056 N 
HETATM    3  H   UNL     1     -43.192  56.554 -54.380  1.00  0.00     0.278 HD
HETATM    4  H   UNL     1     -44.478  55.871 -53.641  1.00  0.00     0.278 HD
HETATM    5  C   UNL     1     -43.995  57.747 -52.831  1.00  0.00     0.209 C 
HETATM    6  C   UNL     1     -44.768  57.451 -51.526  1.00  0.00     0.115 C 
HETATM    7  N   UNL     1     -44.003  56.581 -50.633  1.00  0.00    -0.353 N 
HETATM    8  C   UNL     1     -43.239  55.528 -51.092  1.00  0.00     0.249 C 
HETATM    9  O   UNL     1     -42.944  54.606 -50.340  1.00  0.00    -0.271 OA
HETATM   10  C   UNL     1     -44.821  58.583 -53.797  1.00  0.00     0.035 C 
HETATM   11  C   UNL     1     -45.225  59.896 -53.125  1.00  0.00     0.002 C 
HETATM   12  C   UNL     1     -45.964  59.657 -51.806  1.00  0.00     0.002 C 
HETATM   13  C   UNL     1     -45.181  58.757 -50.847  1.00  0.00     0.027 C 
HETATM   14  H   UNL     1     -44.361  56.427 -49.691  1.00  0.00     0.163 HD
ENDROOT
BRANCH   1  15
HETATM   15  C   UNL     1     -42.420  54.268 -53.140  1.00  0.00     0.146 C 
BRANCH  15  16
HETATM   16  C   UNL     1     -41.218  54.402 -54.025  1.00  0.00     0.224 C 
HETATM   17  N   UNL     1     -40.240  53.472 -54.127  1.00  0.00    -0.325 N 
HETATM   18  H   UNL     1     -39.423  53.837 -54.620  1.00  0.00     0.169 HD
HETATM   19  O   UNL     1     -40.996  55.527 -54.496  1.00  0.00    -0.273 OA
BRANCH  17  20
HETATM   20  C   UNL     1     -40.046  52.176 -53.613  1.00  0.00     0.073 A 
HETATM   21  C   UNL     1     -40.130  50.985 -54.328  1.00  0.00     0.033 A 
HETATM   22  C   UNL     1     -39.937  49.758 -53.675  1.00  0.00     0.002 A 
HETATM   23  C   UNL     1     -39.648  49.712 -52.311  1.00  0.00     0.003 A 
HETATM   24  C   UNL     1     -39.531  50.896 -51.592  1.00  0.00     0.044 A 
HETATM   25  C   UNL     1     -39.716  52.107 -52.248  1.00  0.00     0.143 A 
HETATM   26  F   UNL     1     -39.624  53.247 -51.544  1.00  0.00    -0.204 F 
ENDBRANCH  17  20
ENDBRANCH  15  16
ENDBRANCH   1  15
TORSDOF 3
ENDMDL
MODEL 5
REMARK VINA RESULT:      -7.6      4.138      7.075
REMARK  3 active torsions:
REMARK  status: ('A' for Active; 'I' for Inactive)
REMARK    1  A    between atoms: C_3  and  N_4 
REMARK       I    between atoms: N_4  and  C_5 
REMARK    2  A    between atoms: C_5  and  C_6 
REMARK    3  A    between atoms: C_6  and  C_7 
ROOT
HETATM    1  C   UNL     1     -42.181  55.266 -53.811  1.00  0.00     0.286 C 
HETATM    2  N   UNL     1     -41.204  54.275 -54.459  1.00  0.00    -0.056 N 
HETATM    3  H   UNL     1     -41.553  54.007 -55.396  1.00  0.00     0.278 HD
HETATM    4  H   UNL     1     -40.309  54.749 -54.643  1.00  0.00     0.278 HD
HETATM    5  C   UNL     1     -41.004  53.078 -53.579  1.00  0.00     0.209 C 
HETATM    6  C   UNL     1     -40.356  53.570 -52.265  1.00  0.00     0.115 C 
HETATM    7  N   UNL     1     -41.149  54.624 -51.635  1.00  0.00    -0.353 N 
HETATM    8  C   UNL     1     -41.786  55.612 -52.358  1.00  0.00     0.249 C 
HETATM    9  O   UNL     1     -42.094  56.669 -51.819  1.00  0.00    -0.271 OA
HETATM   10  C   UNL     1     -40.140  52.041 -54.280  1.00  0.00     0.035 C 
HETATM   11  C   UNL     1     -39.901  50.855 -53.344  1.00  0.00     0.002 C 
HETATM   12  C   UNL     1     -39.291  51.294 -52.011  1.00  0.00     0.002 C 
HETATM   13  C   UNL     1     -40.109  52.391 -51.324  1.00  0.00     0.027 C 
HETATM   14  H   UNL     1     -40.884  54.929 -50.699  1.00  0.00     0.163 HD
ENDROOT
BRANCH   1  15
HETATM   15  C   UNL     1     -42.293  56.515 -54.676  1.00  0.00     0.146 C 
BRANCH  15  16
HETATM   16  C   UNL     1     -43.701  56.583 -55.186  1.00  0.00     0.224 C 
HETATM   17  N   UNL     1     -44.036  56.883 -56.462  1.00  0.00    -0.325 N 
HETATM   18  H   UNL     1     -45.035  57.074 -56.554  1.00  0.00     0.169 HD
HETATM   19  O   UNL     1     -44.600  56.603 -54.333  1.00  0.00    -0.273 OA
BRANCH  17  20
HETATM   20  C   UNL     1     -43.314  57.108 -57.650  1.00  0.00     0.073 A 
HETATM   21  C   UNL     1     -42.719  58.304 -58.039  1.00  0.00     0.033 A 
HETATM   22  C   UNL     1     -42.049  58.389 -59.269  1.00  0.00     0.002 A 
HETATM   23  C   UNL     1     -41.961  57.281 -60.112  1.00  0.00     0.003 A 
HETATM   24  C   UNL     1     -42.524  56.071 -59.721  1.00  0.00     0.044 A 
HETATM   25  C   UNL     1     -43.178  55.994 -58.497  1.00  0.00     0.143 A 
HETATM   26  F   UNL     1     -43.740  54.830 -58.135  1.00  0.00    -0.204 F 
ENDBRANCH  17  20
ENDBRANCH  15  16
ENDBRANCH   1  15
TORSDOF 3
ENDMDL
MODEL 6
REMARK VINA RESULT:      -7.5      4.161      5.444
REMARK  3 active torsions:
REMARK  status: ('A' for Active; 'I' for Inactive)
REMARK    1  A    between atoms: C_3  and  N_4 
REMARK       I    between atoms: N_4  and  C_5 
REMARK    2  A    between atoms: C_5  and  C_6 
REMARK    3  A    between atoms: C_6  and  C_7 
ROOT
HETATM    1  C   UNL     1     -43.401  58.010 -55.107  1.00  0.00     0.286 C 
HETATM    2  N   UNL     1     -42.371  58.377 -56.184  1.00  0.00    -0.056 N 
HETATM    3  H   UNL     1     -42.226  59.402 -56.190  1.00  0.00     0.278 HD
HETATM    4  H   UNL     1     -41.452  57.990 -55.923  1.00  0.00     0.278 HD
HETATM    5  C   UNL     1     -42.804  57.868 -57.525  1.00  0.00     0.209 C 
HETATM    6  C   UNL     1     -42.855  56.326 -57.444  1.00  0.00     0.115 C 
HETATM    7  N   UNL     1     -43.713  55.873 -56.349  1.00  0.00    -0.353 N 
HETATM    8  C   UNL     1     -43.758  56.507 -55.125  1.00  0.00     0.249 C 
HETATM    9  O   UNL     1     -44.156  55.907 -54.133  1.00  0.00    -0.271 OA
HETATM   10  C   UNL     1     -41.848  58.344 -58.609  1.00  0.00     0.035 C 
HETATM   11  C   UNL     1     -42.276  57.768 -59.959  1.00  0.00     0.002 C 
HETATM   12  C   UNL     1     -42.376  56.242 -59.922  1.00  0.00     0.002 C 
HETATM   13  C   UNL     1     -43.278  55.740 -58.791  1.00  0.00     0.027 C 
HETATM   14  H   UNL     1     -43.922  54.877 -56.285  1.00  0.00     0.163 HD
ENDROOT
BRANCH   1  15
HETATM   15  C   UNL     1     -42.893  58.452 -53.739  1.00  0.00     0.146 C 
BRANCH  15  16
HETATM   16  C   UNL     1     -41.395  58.430 -53.788  1.00  0.00     0.224 C 
HETATM   17  N   UNL     1     -40.636  57.375 -53.410  1.00  0.00    -0.325 N 
HETATM   18  H   UNL     1     -39.650  57.631 -53.329  1.00  0.00     0.169 HD
HETATM   19  O   UNL     1     -40.828  59.519 -53.953  1.00  0.00    -0.273 OA
BRANCH  17  20
HETATM   20  C   UNL     1     -40.906  56.058 -52.993  1.00  0.00     0.073 A 
HETATM   21  C   UNL     1     -41.378  55.670 -51.743  1.00  0.00     0.033 A 
HETATM   22  C   UNL     1     -41.578  54.310 -51.458  1.00  0.00     0.002 A 
HETATM   23  C   UNL     1     -41.320  53.333 -52.420  1.00  0.00     0.003 A 
HETATM   24  C   UNL     1     -40.878  53.710 -53.683  1.00  0.00     0.044 A 
HETATM   25  C   UNL     1     -40.690  55.059 -53.959  1.00  0.00     0.143 A 
HETATM   26  F   UNL     1     -40.241  55.416 -55.173  1.00  0.00    -0.204 F 
ENDBRANCH  17  20
ENDBRANCH  15  16
ENDBRANCH   1  15
TORSDOF 3
ENDMDL
MODEL 7
REMARK VINA RESULT:      -7.4      4.032      5.010
REMARK  3 active torsions:
REMARK  status: ('A' for Active; 'I' for Inactive)
REMARK    1  A    between atoms: C_3  and  N_4 
REMARK       I    between atoms: N_4  and  C_5 
REMARK    2  A    between atoms: C_5  and  C_6 
REMARK    3  A    between atoms: C_6  and  C_7 
ROOT
HETATM    1  C   UNL     1     -43.760  56.860 -55.117  1.00  0.00     0.286 C 
HETATM    2  N   UNL     1     -42.855  57.799 -55.926  1.00  0.00    -0.056 N 
HETATM    3  H   UNL     1     -43.015  58.778 -55.627  1.00  0.00     0.278 HD
HETATM    4  H   UNL     1     -41.870  57.616 -55.684  1.00  0.00     0.278 HD
HETATM    5  C   UNL     1     -43.087  57.622 -57.395  1.00  0.00     0.209 C 
HETATM    6  C   UNL     1     -42.689  56.174 -57.758  1.00  0.00     0.115 C 
HETATM    7  N   UNL     1     -43.404  55.197 -56.937  1.00  0.00    -0.353 N 
HETATM    8  C   UNL     1     -43.662  55.395 -55.597  1.00  0.00     0.249 C 
HETATM    9  O   UNL     1     -43.892  54.439 -54.865  1.00  0.00    -0.271 OA
HETATM   10  C   UNL     1     -42.285  58.643 -58.188  1.00  0.00     0.035 C 
HETATM   11  C   UNL     1     -42.492  58.408 -59.685  1.00  0.00     0.002 C 
HETATM   12  C   UNL     1     -42.144  56.974 -60.091  1.00  0.00     0.002 C 
HETATM   13  C   UNL     1     -42.888  55.929 -59.254  1.00  0.00     0.027 C 
HETATM   14  H   UNL     1     -43.316  54.211 -57.180  1.00  0.00     0.163 HD
ENDROOT
BRANCH   1  15
HETATM   15  C   UNL     1     -43.437  56.989 -53.633  1.00  0.00     0.146 C 
BRANCH  15  16
HETATM   16  C   UNL     1     -42.030  57.494 -53.522  1.00  0.00     0.224 C 
HETATM   17  N   UNL     1     -40.935  56.701 -53.509  1.00  0.00    -0.325 N 
HETATM   18  H   UNL     1     -40.099  57.216 -53.225  1.00  0.00     0.169 HD
HETATM   19  O   UNL     1     -41.890  58.677 -53.180  1.00  0.00    -0.273 OA
BRANCH  17  20
HETATM   20  C   UNL     1     -40.707  55.322 -53.677  1.00  0.00     0.073 A 
HETATM   21  C   UNL     1     -40.326  54.687 -54.855  1.00  0.00     0.033 A 
HETATM   22  C   UNL     1     -40.159  53.294 -54.881  1.00  0.00     0.002 A 
HETATM   23  C   UNL     1     -40.358  52.529 -53.731  1.00  0.00     0.003 A 
HETATM   24  C   UNL     1     -40.708  53.154 -52.540  1.00  0.00     0.044 A 
HETATM   25  C   UNL     1     -40.864  54.535 -52.522  1.00  0.00     0.143 A 
HETATM   26  F   UNL     1     -41.223  55.131 -51.373  1.00  0.00    -0.204 F 
ENDBRANCH  17  20
ENDBRANCH  15  16
ENDBRANCH   1  15
TORSDOF 3
ENDMDL
MODEL 8
REMARK VINA RESULT:      -7.4      3.331      6.940
REMARK  3 active torsions:
REMARK  status: ('A' for Active; 'I' for Inactive)
REMARK    1  A    between atoms: C_3  and  N_4 
REMARK       I    between atoms: N_4  and  C_5 
REMARK    2  A    between atoms: C_5  and  C_6 
REMARK    3  A    between atoms: C_6  and  C_7 
ROOT
HETATM    1  C   UNL     1     -43.064  55.255 -53.257  1.00  0.00     0.286 C 
HETATM    2  N   UNL     1     -41.926  54.637 -54.081  1.00  0.00    -0.056 N 
HETATM    3  H   UNL     1     -42.248  54.480 -55.053  1.00  0.00     0.278 HD
HETATM    4  H   UNL     1     -41.160  55.321 -54.172  1.00  0.00     0.278 HD
HETATM    5  C   UNL     1     -41.440  53.371 -53.445  1.00  0.00     0.209 C 
HETATM    6  C   UNL     1     -40.859  53.738 -52.062  1.00  0.00     0.115 C 
HETATM    7  N   UNL     1     -41.832  54.459 -51.243  1.00  0.00    -0.353 N 
HETATM    8  C   UNL     1     -42.693  55.402 -51.764  1.00  0.00     0.249 C 
HETATM    9  O   UNL     1     -43.198  56.248 -51.035  1.00  0.00    -0.271 OA
HETATM   10  C   UNL     1     -40.404  52.694 -54.330  1.00  0.00     0.035 C 
HETATM   11  C   UNL     1     -39.881  51.435 -53.638  1.00  0.00     0.002 C 
HETATM   12  C   UNL     1     -39.324  51.740 -52.245  1.00  0.00     0.002 C 
HETATM   13  C   UNL     1     -40.328  52.486 -51.362  1.00  0.00     0.027 C 
HETATM   14  H   UNL     1     -41.600  54.635 -50.266  1.00  0.00     0.163 HD
ENDROOT
BRANCH   1  15
HETATM   15  C   UNL     1     -43.475  56.589 -53.869  1.00  0.00     0.146 C 
BRANCH  15  16
HETATM   16  C   UNL     1     -42.264  57.168 -54.538  1.00  0.00     0.224 C 
HETATM   17  N   UNL     1     -41.475  58.121 -53.991  1.00  0.00    -0.325 N 
HETATM   18  H   UNL     1     -40.833  58.519 -54.679  1.00  0.00     0.169 HD
HETATM   19  O   UNL     1     -42.131  56.932 -55.747  1.00  0.00    -0.273 OA
BRANCH  17  20
HETATM   20  C   UNL     1     -41.419  58.765 -52.740  1.00  0.00     0.073 A 
HETATM   21  C   UNL     1     -40.542  58.469 -51.700  1.00  0.00     0.033 A 
HETATM   22  C   UNL     1     -40.618  59.181 -50.493  1.00  0.00     0.002 A 
HETATM   23  C   UNL     1     -41.558  60.198 -50.321  1.00  0.00     0.003 A 
HETATM   24  C   UNL     1     -42.418  60.524 -51.363  1.00  0.00     0.044 A 
HETATM   25  C   UNL     1     -42.332  59.819 -52.558  1.00  0.00     0.143 A 
HETATM   26  F   UNL     1     -43.180  60.123 -53.553  1.00  0.00    -0.204 F 
ENDBRANCH  17  20
ENDBRANCH  15  16
ENDBRANCH   1  15
TORSDOF 3
ENDMDL
MODEL 9
REMARK VINA RESULT:      -7.4      2.262      2.786
REMARK  3 active torsions:
REMARK  status: ('A' for Active; 'I' for Inactive)
REMARK    1  A    between atoms: C_3  and  N_4 
REMARK       I    between atoms: N_4  and  C_5 
REMARK    2  A    between atoms: C_5  and  C_6 
REMARK    3  A    between atoms: C_6  and  C_7 
ROOT
HETATM    1  C   UNL     1     -41.334  55.993 -52.341  1.00  0.00     0.286 C 
HETATM    2  N   UNL     1     -42.183  56.970 -53.165  1.00  0.00    -0.056 N 
HETATM    3  H   UNL     1     -41.975  56.846 -54.172  1.00  0.00     0.278 HD
HETATM    4  H   UNL     1     -43.178  56.718 -53.076  1.00  0.00     0.278 HD
HETATM    5  C   UNL     1     -41.947  58.381 -52.719  1.00  0.00     0.209 C 
HETATM    6  C   UNL     1     -42.416  58.491 -51.251  1.00  0.00     0.115 C 
HETATM    7  N   UNL     1     -41.759  57.498 -50.401  1.00  0.00    -0.353 N 
HETATM    8  C   UNL     1     -41.502  56.209 -50.820  1.00  0.00     0.249 C 
HETATM    9  O   UNL     1     -41.328  55.317 -49.999  1.00  0.00    -0.271 OA
HETATM   10  C   UNL     1     -42.688  59.356 -53.622  1.00  0.00     0.035 C 
HETATM   11  C   UNL     1     -42.480  60.784 -53.117  1.00  0.00     0.002 C 
HETATM   12  C   UNL     1     -42.898  60.937 -51.652  1.00  0.00     0.002 C 
HETATM   13  C   UNL     1     -42.216  59.916 -50.737  1.00  0.00     0.027 C 
HETATM   14  H   UNL     1     -41.896  57.565 -49.393  1.00  0.00     0.163 HD
ENDROOT
BRANCH   1  15
HETATM   15  C   UNL     1     -41.663  54.561 -52.745  1.00  0.00     0.146 C 
BRANCH  15  16
HETATM   16  C   UNL     1     -40.683  54.158 -53.806  1.00  0.00     0.224 C 
HETATM   17  N   UNL     1     -39.930  53.035 -53.759  1.00  0.00    -0.325 N 
HETATM   18  H   UNL     1     -39.191  53.047 -54.465  1.00  0.00     0.169 HD
HETATM   19  O   UNL     1     -40.378  55.023 -54.639  1.00  0.00    -0.273 OA
BRANCH  17  20
HETATM   20  C   UNL     1     -39.856  51.925 -52.896  1.00  0.00     0.073 A 
HETATM   21  C   UNL     1     -39.903  51.958 -51.506  1.00  0.00     0.033 A 
HETATM   22  C   UNL     1     -39.792  50.768 -50.770  1.00  0.00     0.002 A 
HETATM   23  C   UNL     1     -39.644  49.540 -51.416  1.00  0.00     0.003 A 
HETATM   24  C   UNL     1     -39.627  49.490 -52.805  1.00  0.00     0.044 A 
HETATM   25  C   UNL     1     -39.746  50.673 -53.526  1.00  0.00     0.143 A 
HETATM   26  F   UNL     1     -39.706  50.621 -54.867  1.00  0.00    -0.204 F 
ENDBRANCH  17  20
ENDBRANCH  15  16
ENDBRANCH   1  15
TORSDOF 3
ENDMDL
MODEL 10
REMARK VINA RESULT:      -7.3      2.446      2.916
REMARK  3 active torsions:
REMARK  status: ('A' for Active; 'I' for Inactive)
REMARK    1  A    between atoms: C_3  and  N_4 
REMARK       I    between atoms: N_4  and  C_5 
REMARK    2  A    between atoms: C_5  and  C_6 
REMARK    3  A    between atoms: C_6  and  C_7 
ROOT
HETATM    1  C   UNL     1     -43.005  55.494 -52.819  1.00  0.00     0.286 C 
HETATM    2  N   UNL     1     -41.702  56.054 -52.234  1.00  0.00    -0.056 N 
HETATM    3  H   UNL     1     -41.237  55.325 -51.663  1.00  0.00     0.278 HD
HETATM    4  H   UNL     1     -41.038  56.243 -52.999  1.00  0.00     0.278 HD
HETATM    5  C   UNL     1     -41.969  57.296 -51.439  1.00  0.00     0.209 C 
HETATM    6  C   UNL     1     -42.530  58.358 -52.410  1.00  0.00     0.115 C 
HETATM    7  N   UNL     1     -43.707  57.865 -53.126  1.00  0.00    -0.353 N 
HETATM    8  C   UNL     1     -43.814  56.568 -53.581  1.00  0.00     0.249 C 
HETATM    9  O   UNL     1     -44.592  56.294 -54.488  1.00  0.00    -0.271 OA
HETATM   10  C   UNL     1     -40.697  57.774 -50.755  1.00  0.00     0.035 C 
HETATM   11  C   UNL     1     -40.979  59.072 -49.997  1.00  0.00     0.002 C 
HETATM   12  C   UNL     1     -41.571  60.148 -50.909  1.00  0.00     0.002 C 
HETATM   13  C   UNL     1     -42.812  59.662 -51.663  1.00  0.00     0.027 C 
HETATM   14  H   UNL     1     -44.235  58.527 -53.694  1.00  0.00     0.163 HD
ENDROOT
BRANCH   1  15
HETATM   15  C   UNL     1     -42.697  54.290 -53.701  1.00  0.00     0.146 C 
BRANCH  15  16
HETATM   16  C   UNL     1     -41.368  54.539 -54.350  1.00  0.00     0.224 C 
HETATM   17  N   UNL     1     -40.309  53.702 -54.261  1.00  0.00    -0.325 N 
HETATM   18  H   UNL     1     -39.451  54.143 -54.598  1.00  0.00     0.169 HD
HETATM   19  O   UNL     1     -41.166  55.683 -54.781  1.00  0.00    -0.273 OA
BRANCH  17  20
HETATM   20  C   UNL     1     -40.098  52.424 -53.709  1.00  0.00     0.073 A 
HETATM   21  C   UNL     1     -40.108  51.216 -54.399  1.00  0.00     0.033 A 
HETATM   22  C   UNL     1     -39.906  50.010 -53.710  1.00  0.00     0.002 A 
HETATM   23  C   UNL     1     -39.681  50.004 -52.333  1.00  0.00     0.003 A 
HETATM   24  C   UNL     1     -39.637  51.207 -51.637  1.00  0.00     0.044 A 
HETATM   25  C   UNL     1     -39.831  52.396 -52.329  1.00  0.00     0.143 A 
HETATM   26  F   UNL     1     -39.809  53.553 -51.647  1.00  0.00    -0.204 F 
ENDBRANCH  17  20
ENDBRANCH  15  16
ENDBRANCH   1  15
TORSDOF 3
ENDMDL
