MODEL 1
REMARK VINA RESULT:      -8.4      0.000      0.000
REMARK  5 active torsions:
REMARK  status: ('A' for Active; 'I' for Inactive)
REMARK    1  A    between atoms: C_8  and  C_9 
REMARK    2  A    between atoms: C_9  and  C_10 
REMARK       I    between atoms: C_10  and  N_11 
REMARK    3  A    between atoms: N_11  and  N_12 
REMARK    4  A    between atoms: C_13  and  C_14 
REMARK    5  A    between atoms: C_15  and  O_16 
ROOT
HETATM    1  C   UNL     1     -41.816  54.547 -55.521  1.00  0.00     0.241 C 
HETATM    2  N   UNL     1     -41.919  55.400 -56.614  1.00  0.00    -0.247 N 
HETATM    3  O   UNL     1     -42.759  53.934 -55.023  1.00  0.00    -0.271 OA
HETATM    4  H   UNL     1     -41.108  55.935 -56.910  1.00  0.00     0.192 HD
ENDROOT
BRANCH   1   5
HETATM    5  C   UNL     1     -40.390  54.376 -55.018  1.00  0.00     0.145 C 
BRANCH   5   6
HETATM    6  C   UNL     1     -40.339  53.611 -53.732  1.00  0.00    -0.021 A 
HETATM    7  C   UNL     1     -40.091  52.209 -53.566  1.00  0.00    -0.001 A 
HETATM    8  C   UNL     1     -39.869  51.137 -54.456  1.00  0.00     0.014 A 
HETATM    9  C   UNL     1     -40.057  51.952 -52.195  1.00  0.00     0.042 A 
HETATM   10  C   UNL     1     -39.610  49.859 -53.944  1.00  0.00     0.001 A 
HETATM   11  C   UNL     1     -39.572  49.639 -52.570  1.00  0.00     0.002 A 
HETATM   12  C   UNL     1     -39.798  50.682 -51.667  1.00  0.00     0.030 A 
HETATM   13  N   UNL     1     -40.315  53.139 -51.551  1.00  0.00    -0.365 N 
HETATM   14  H   UNL     1     -40.357  53.252 -50.547  1.00  0.00     0.165 HD
HETATM   15  C   UNL     1     -40.483  54.144 -52.465  1.00  0.00     0.097 A 
ENDBRANCH   5   6
ENDBRANCH   1   5
BRANCH   2  16
HETATM   16  N   UNL     1     -43.148  55.741 -57.091  1.00  0.00    -0.184 NA
HETATM   17  C   UNL     1     -43.246  55.787 -58.382  1.00  0.00     0.153 C 
BRANCH  17  18
HETATM   18  C   UNL     1     -44.500  56.214 -59.030  1.00  0.00     0.017 A 
HETATM   19  C   UNL     1     -45.132  55.436 -60.007  1.00  0.00     0.077 A 
HETATM   20  C   UNL     1     -46.338  55.856 -60.565  1.00  0.00     0.039 A 
HETATM   21  C   UNL     1     -46.912  57.061 -60.158  1.00  0.00     0.022 A 
HETATM   22  C   UNL     1     -46.274  57.839 -59.192  1.00  0.00     0.012 A 
HETATM   23 BR   UNL     1     -47.050  59.475 -58.645  1.00  0.00    -0.051 Br
HETATM   24  C   UNL     1     -45.071  57.423 -58.620  1.00  0.00     0.034 A 
BRANCH  19  25
HETATM   25  O   UNL     1     -44.638  54.243 -60.458  1.00  0.00    -0.360 OA
HETATM   26  H   UNL     1     -44.446  53.669 -59.680  1.00  0.00     0.217 HD
ENDBRANCH  19  25
ENDBRANCH  17  18
ENDBRANCH   2  16
TORSDOF 5
ENDMDL
MODEL 2
REMARK VINA RESULT:      -8.1      1.557      1.994
REMARK  5 active torsions:
REMARK  status: ('A' for Active; 'I' for Inactive)
REMARK    1  A    between atoms: C_8  and  C_9 
REMARK    2  A    between atoms: C_9  and  C_10 
REMARK       I    between atoms: C_10  and  N_11 
REMARK    3  A    between atoms: N_11  and  N_12 
REMARK    4  A    between atoms: C_13  and  C_14 
REMARK    5  A    between atoms: C_15  and  O_16 
ROOT
HETATM    1  C   UNL     1     -41.877  54.529 -55.544  1.00  0.00     0.241 C 
HETATM    2  N   UNL     1     -41.946  55.645 -56.372  1.00  0.00    -0.247 N 
HETATM    3  O   UNL     1     -42.854  53.893 -55.149  1.00  0.00    -0.271 OA
HETATM    4  H   UNL     1     -41.098  56.165 -56.581  1.00  0.00     0.192 HD
ENDROOT
BRANCH   1   5
HETATM    5  C   UNL     1     -40.454  54.106 -55.212  1.00  0.00     0.145 C 
BRANCH   5   6
HETATM    6  C   UNL     1     -40.360  53.476 -53.857  1.00  0.00    -0.021 A 
HETATM    7  C   UNL     1     -40.106  52.097 -53.559  1.00  0.00    -0.001 A 
HETATM    8  C   UNL     1     -39.911  50.939 -54.343  1.00  0.00     0.014 A 
HETATM    9  C   UNL     1     -40.026  51.980 -52.171  1.00  0.00     0.042 A 
HETATM   10  C   UNL     1     -39.635  49.720 -53.713  1.00  0.00     0.001 A 
HETATM   11  C   UNL     1     -39.552  49.640 -52.325  1.00  0.00     0.002 A 
HETATM   12  C   UNL     1     -39.749  50.769 -51.526  1.00  0.00     0.030 A 
HETATM   13  N   UNL     1     -40.264  53.227 -51.642  1.00  0.00    -0.365 N 
HETATM   14  H   UNL     1     -40.273  53.441 -50.654  1.00  0.00     0.165 HD
HETATM   15  C   UNL     1     -40.463  54.134 -52.647  1.00  0.00     0.097 A 
ENDBRANCH   5   6
ENDBRANCH   1   5
BRANCH   2  16
HETATM   16  N   UNL     1     -43.153  56.207 -56.650  1.00  0.00    -0.184 NA
HETATM   17  C   UNL     1     -43.326  56.563 -57.883  1.00  0.00     0.153 C 
BRANCH  17  18
HETATM   18  C   UNL     1     -44.560  57.250 -58.307  1.00  0.00     0.017 A 
HETATM   19  C   UNL     1     -44.985  58.445 -57.715  1.00  0.00     0.077 A 
HETATM   20  C   UNL     1     -46.135  59.085 -58.173  1.00  0.00     0.039 A 
HETATM   21  C   UNL     1     -46.873  58.526 -59.217  1.00  0.00     0.022 A 
HETATM   22  C   UNL     1     -46.453  57.330 -59.798  1.00  0.00     0.012 A 
HETATM   23 BR   UNL     1     -47.458  56.572 -61.211  1.00  0.00    -0.051 Br
HETATM   24  C   UNL     1     -45.298  56.687 -59.354  1.00  0.00     0.034 A 
BRANCH  19  25
HETATM   25  O   UNL     1     -44.317  59.058 -56.690  1.00  0.00    -0.360 OA
HETATM   26  H   UNL     1     -44.905  59.746 -56.300  1.00  0.00     0.217 HD
ENDBRANCH  19  25
ENDBRANCH  17  18
ENDBRANCH   2  16
TORSDOF 5
ENDMDL
MODEL 3
REMARK VINA RESULT:      -8.0      4.726      6.022
REMARK  5 active torsions:
REMARK  status: ('A' for Active; 'I' for Inactive)
REMARK    1  A    between atoms: C_8  and  C_9 
REMARK    2  A    between atoms: C_9  and  C_10 
REMARK       I    between atoms: C_10  and  N_11 
REMARK    3  A    between atoms: N_11  and  N_12 
REMARK    4  A    between atoms: C_13  and  C_14 
REMARK    5  A    between atoms: C_15  and  O_16 
ROOT
HETATM    1  C   UNL     1     -42.128  55.345 -53.696  1.00  0.00     0.241 C 
HETATM    2  N   UNL     1     -41.863  56.708 -53.632  1.00  0.00    -0.247 N 
HETATM    3  O   UNL     1     -43.234  54.839 -53.507  1.00  0.00    -0.271 OA
HETATM    4  H   UNL     1     -40.905  57.036 -53.716  1.00  0.00     0.192 HD
ENDROOT
BRANCH   1   5
HETATM    5  C   UNL     1     -40.920  54.510 -54.097  1.00  0.00     0.145 C 
BRANCH   5   6
HETATM    6  C   UNL     1     -40.547  53.522 -53.036  1.00  0.00    -0.021 A 
HETATM    7  C   UNL     1     -40.261  52.129 -53.210  1.00  0.00    -0.001 A 
HETATM    8  C   UNL     1     -40.263  51.254 -54.319  1.00  0.00     0.014 A 
HETATM    9  C   UNL     1     -39.884  51.622 -51.966  1.00  0.00     0.042 A 
HETATM   10  C   UNL     1     -39.881  49.919 -54.144  1.00  0.00     0.001 A 
HETATM   11  C   UNL     1     -39.500  49.448 -52.890  1.00  0.00     0.002 A 
HETATM   12  C   UNL     1     -39.497  50.291 -51.775  1.00  0.00     0.030 A 
HETATM   13  N   UNL     1     -39.977  52.653 -51.061  1.00  0.00    -0.365 N 
HETATM   14  H   UNL     1     -39.768  52.573 -50.075  1.00  0.00     0.165 HD
HETATM   15  C   UNL     1     -40.372  53.800 -51.693  1.00  0.00     0.097 A 
ENDBRANCH   5   6
ENDBRANCH   1   5
BRANCH   2  16
HETATM   16  N   UNL     1     -42.817  57.561 -53.168  1.00  0.00    -0.184 NA
HETATM   17  C   UNL     1     -42.590  58.056 -51.993  1.00  0.00     0.153 C 
BRANCH  17  18
HETATM   18  C   UNL     1     -43.576  58.937 -51.340  1.00  0.00     0.017 A 
HETATM   19  C   UNL     1     -44.842  58.479 -50.957  1.00  0.00     0.077 A 
HETATM   20  C   UNL     1     -45.729  59.333 -50.305  1.00  0.00     0.039 A 
HETATM   21  C   UNL     1     -45.360  60.653 -50.043  1.00  0.00     0.022 A 
HETATM   22  C   UNL     1     -44.102  61.110 -50.436  1.00  0.00     0.012 A 
HETATM   23 BR   UNL     1     -43.605  62.901 -50.085  1.00  0.00    -0.051 Br
HETATM   24  C   UNL     1     -43.203  60.260 -51.080  1.00  0.00     0.034 A 
BRANCH  19  25
HETATM   25  O   UNL     1     -45.279  57.201 -51.174  1.00  0.00    -0.360 OA
HETATM   26  H   UNL     1     -45.495  56.792 -50.304  1.00  0.00     0.217 HD
ENDBRANCH  19  25
ENDBRANCH  17  18
ENDBRANCH   2  16
TORSDOF 5
ENDMDL
MODEL 4
REMARK VINA RESULT:      -7.8      2.695      3.049
REMARK  5 active torsions:
REMARK  status: ('A' for Active; 'I' for Inactive)
REMARK    1  A    between atoms: C_8  and  C_9 
REMARK    2  A    between atoms: C_9  and  C_10 
REMARK       I    between atoms: C_10  and  N_11 
REMARK    3  A    between atoms: N_11  and  N_12 
REMARK    4  A    between atoms: C_13  and  C_14 
REMARK    5  A    between atoms: C_15  and  O_16 
ROOT
HETATM    1  C   UNL     1     -41.731  56.153 -53.890  1.00  0.00     0.241 C 
HETATM    2  N   UNL     1     -42.582  56.138 -54.989  1.00  0.00    -0.247 N 
HETATM    3  O   UNL     1     -40.625  56.692 -53.871  1.00  0.00    -0.271 OA
HETATM    4  H   UNL     1     -43.440  55.596 -54.950  1.00  0.00     0.192 HD
ENDROOT
BRANCH   1   5
HETATM    5  C   UNL     1     -42.323  55.488 -52.655  1.00  0.00     0.145 C 
BRANCH   5   6
HETATM    6  C   UNL     1     -41.401  54.459 -52.078  1.00  0.00    -0.021 A 
HETATM    7  C   UNL     1     -40.909  53.277 -52.722  1.00  0.00    -0.001 A 
HETATM    8  C   UNL     1     -41.120  52.685 -53.986  1.00  0.00     0.014 A 
HETATM    9  C   UNL     1     -40.021  52.662 -51.840  1.00  0.00     0.042 A 
HETATM   10  C   UNL     1     -40.429  51.514 -54.321  1.00  0.00     0.001 A 
HETATM   11  C   UNL     1     -39.540  50.932 -53.421  1.00  0.00     0.002 A 
HETATM   12  C   UNL     1     -39.321  51.493 -52.161  1.00  0.00     0.030 A 
HETATM   13  N   UNL     1     -40.002  53.414 -50.689  1.00  0.00    -0.365 N 
HETATM   14  H   UNL     1     -39.447  53.201 -49.872  1.00  0.00     0.165 HD
HETATM   15  C   UNL     1     -40.826  54.499 -50.822  1.00  0.00     0.097 A 
ENDBRANCH   5   6
ENDBRANCH   1   5
BRANCH   2  16
HETATM   16  N   UNL     1     -42.137  56.587 -56.195  1.00  0.00    -0.184 NA
HETATM   17  C   UNL     1     -42.817  57.563 -56.705  1.00  0.00     0.153 C 
BRANCH  17  18
HETATM   18  C   UNL     1     -42.488  58.097 -58.040  1.00  0.00     0.017 A 
HETATM   19  C   UNL     1     -42.350  57.268 -59.159  1.00  0.00     0.077 A 
HETATM   20  C   UNL     1     -42.079  57.817 -60.410  1.00  0.00     0.039 A 
HETATM   21  C   UNL     1     -41.933  59.198 -60.548  1.00  0.00     0.022 A 
HETATM   22  C   UNL     1     -42.060  60.021 -59.430  1.00  0.00     0.012 A 
HETATM   23 BR   UNL     1     -41.855  61.893 -59.617  1.00  0.00    -0.051 Br
HETATM   24  C   UNL     1     -42.340  59.482 -58.174  1.00  0.00     0.034 A 
BRANCH  19  25
HETATM   25  O   UNL     1     -42.482  55.907 -59.109  1.00  0.00    -0.360 OA
HETATM   26  H   UNL     1     -42.201  55.532 -59.976  1.00  0.00     0.217 HD
ENDBRANCH  19  25
ENDBRANCH  17  18
ENDBRANCH   2  16
TORSDOF 5
ENDMDL
MODEL 5
REMARK VINA RESULT:      -7.7      2.553      2.946
REMARK  5 active torsions:
REMARK  status: ('A' for Active; 'I' for Inactive)
REMARK    1  A    between atoms: C_8  and  C_9 
REMARK    2  A    between atoms: C_9  and  C_10 
REMARK       I    between atoms: C_10  and  N_11 
REMARK    3  A    between atoms: N_11  and  N_12 
REMARK    4  A    between atoms: C_13  and  C_14 
REMARK    5  A    between atoms: C_15  and  O_16 
ROOT
HETATM    1  C   UNL     1     -42.454  55.370 -55.772  1.00  0.00     0.241 C 
HETATM    2  N   UNL     1     -43.242  55.898 -56.788  1.00  0.00    -0.247 N 
HETATM    3  O   UNL     1     -41.369  55.832 -55.419  1.00  0.00    -0.271 OA
HETATM    4  H   UNL     1     -44.083  55.405 -57.076  1.00  0.00     0.192 HD
ENDROOT
BRANCH   1   5
HETATM    5  C   UNL     1     -43.089  54.180 -55.066  1.00  0.00     0.145 C 
BRANCH   5   6
HETATM    6  C   UNL     1     -42.480  53.939 -53.720  1.00  0.00    -0.021 A 
HETATM    7  C   UNL     1     -41.385  53.069 -53.407  1.00  0.00    -0.001 A 
HETATM    8  C   UNL     1     -40.586  52.182 -54.160  1.00  0.00     0.014 A 
HETATM    9  C   UNL     1     -41.108  53.222 -52.048  1.00  0.00     0.042 A 
HETATM   10  C   UNL     1     -39.540  51.495 -53.532  1.00  0.00     0.001 A 
HETATM   11  C   UNL     1     -39.284  51.679 -52.175  1.00  0.00     0.002 A 
HETATM   12  C   UNL     1     -40.065  52.545 -51.406  1.00  0.00     0.030 A 
HETATM   13  N   UNL     1     -42.022  54.116 -51.544  1.00  0.00    -0.365 N 
HETATM   14  H   UNL     1     -42.062  54.415 -50.578  1.00  0.00     0.165 HD
HETATM   15  C   UNL     1     -42.850  54.556 -52.540  1.00  0.00     0.097 A 
ENDBRANCH   5   6
ENDBRANCH   1   5
BRANCH   2  16
HETATM   16  N   UNL     1     -42.748  56.885 -57.584  1.00  0.00    -0.184 NA
HETATM   17  C   UNL     1     -43.591  57.387 -58.429  1.00  0.00     0.153 C 
BRANCH  17  18
HETATM   18  C   UNL     1     -43.168  58.413 -59.401  1.00  0.00     0.017 A 
HETATM   19  C   UNL     1     -42.127  58.190 -60.310  1.00  0.00     0.077 A 
HETATM   20  C   UNL     1     -41.786  59.170 -61.240  1.00  0.00     0.039 A 
HETATM   21  C   UNL     1     -42.476  60.384 -61.257  1.00  0.00     0.022 A 
HETATM   22  C   UNL     1     -43.504  60.607 -60.342  1.00  0.00     0.012 A 
HETATM   23 BR   UNL     1     -44.434  62.255 -60.363  1.00  0.00    -0.051 Br
HETATM   24  C   UNL     1     -43.860  59.629 -59.414  1.00  0.00     0.034 A 
BRANCH  19  25
HETATM   25  O   UNL     1     -41.406  57.029 -60.361  1.00  0.00    -0.360 OA
HETATM   26  H   UNL     1     -41.011  56.944 -61.260  1.00  0.00     0.217 HD
ENDBRANCH  19  25
ENDBRANCH  17  18
ENDBRANCH   2  16
TORSDOF 5
ENDMDL
MODEL 6
REMARK VINA RESULT:      -7.7      3.208      9.009
REMARK  5 active torsions:
REMARK  status: ('A' for Active; 'I' for Inactive)
REMARK    1  A    between atoms: C_8  and  C_9 
REMARK    2  A    between atoms: C_9  and  C_10 
REMARK       I    between atoms: C_10  and  N_11 
REMARK    3  A    between atoms: N_11  and  N_12 
REMARK    4  A    between atoms: C_13  and  C_14 
REMARK    5  A    between atoms: C_15  and  O_16 
ROOT
HETATM    1  C   UNL     1     -42.551  56.078 -56.766  1.00  0.00     0.241 C 
HETATM    2  N   UNL     1     -41.598  56.153 -55.756  1.00  0.00    -0.247 N 
HETATM    3  O   UNL     1     -43.121  55.044 -57.112  1.00  0.00    -0.271 OA
HETATM    4  H   UNL     1     -41.112  57.030 -55.591  1.00  0.00     0.192 HD
ENDROOT
BRANCH   1   5
HETATM    5  C   UNL     1     -42.890  57.428 -57.381  1.00  0.00     0.145 C 
BRANCH   5   6
HETATM    6  C   UNL     1     -44.307  57.482 -57.863  1.00  0.00    -0.021 A 
HETATM    7  C   UNL     1     -44.845  56.871 -59.043  1.00  0.00    -0.001 A 
HETATM    8  C   UNL     1     -44.295  56.110 -60.096  1.00  0.00     0.014 A 
HETATM    9  C   UNL     1     -46.219  57.117 -59.048  1.00  0.00     0.042 A 
HETATM   10  C   UNL     1     -45.135  55.616 -61.101  1.00  0.00     0.001 A 
HETATM   11  C   UNL     1     -46.504  55.871 -61.071  1.00  0.00     0.002 A 
HETATM   12  C   UNL     1     -47.072  56.629 -60.045  1.00  0.00     0.030 A 
HETATM   13  N   UNL     1     -46.500  57.882 -57.941  1.00  0.00    -0.365 N 
HETATM   14  H   UNL     1     -47.422  58.215 -57.692  1.00  0.00     0.165 HD
HETATM   15  C   UNL     1     -45.360  58.105 -57.220  1.00  0.00     0.097 A 
ENDBRANCH   5   6
ENDBRANCH   1   5
BRANCH   2  16
HETATM   16  N   UNL     1     -41.109  55.010 -55.202  1.00  0.00    -0.184 NA
HETATM   17  C   UNL     1     -41.227  54.927 -53.915  1.00  0.00     0.153 C 
BRANCH  17  18
HETATM   18  C   UNL     1     -40.674  53.775 -53.178  1.00  0.00     0.017 A 
HETATM   19  C   UNL     1     -40.453  53.814 -51.796  1.00  0.00     0.077 A 
HETATM   20  C   UNL     1     -39.969  52.689 -51.131  1.00  0.00     0.039 A 
HETATM   21  C   UNL     1     -39.692  51.523 -51.847  1.00  0.00     0.022 A 
HETATM   22  C   UNL     1     -39.903  51.491 -53.225  1.00  0.00     0.012 A 
HETATM   23 BR   UNL     1     -39.521  49.911 -54.194  1.00  0.00    -0.051 Br
HETATM   24  C   UNL     1     -40.397  52.608 -53.898  1.00  0.00     0.034 A 
BRANCH  19  25
HETATM   25  O   UNL     1     -40.703  54.914 -51.023  1.00  0.00    -0.360 OA
HETATM   26  H   UNL     1     -41.676  55.063 -50.993  1.00  0.00     0.217 HD
ENDBRANCH  19  25
ENDBRANCH  17  18
ENDBRANCH   2  16
TORSDOF 5
ENDMDL
MODEL 7
REMARK VINA RESULT:      -7.6      4.772      5.641
REMARK  5 active torsions:
REMARK  status: ('A' for Active; 'I' for Inactive)
REMARK    1  A    between atoms: C_8  and  C_9 
REMARK    2  A    between atoms: C_9  and  C_10 
REMARK       I    between atoms: C_10  and  N_11 
REMARK    3  A    between atoms: N_11  and  N_12 
REMARK    4  A    between atoms: C_13  and  C_14 
REMARK    5  A    between atoms: C_15  and  O_16 
ROOT
HETATM    1  C   UNL     1     -41.833  55.132 -50.860  1.00  0.00     0.241 C 
HETATM    2  N   UNL     1     -41.650  56.466 -51.208  1.00  0.00    -0.247 N 
HETATM    3  O   UNL     1     -42.923  54.620 -50.608  1.00  0.00    -0.271 OA
HETATM    4  H   UNL     1     -40.708  56.830 -51.315  1.00  0.00     0.192 HD
ENDROOT
BRANCH   1   5
HETATM    5  C   UNL     1     -40.547  54.317 -50.884  1.00  0.00     0.145 C 
BRANCH   5   6
HETATM    6  C   UNL     1     -40.397  53.547 -52.158  1.00  0.00    -0.021 A 
HETATM    7  C   UNL     1     -40.072  52.158 -52.299  1.00  0.00    -0.001 A 
HETATM    8  C   UNL     1     -39.765  51.122 -51.390  1.00  0.00     0.014 A 
HETATM    9  C   UNL     1     -40.119  51.855 -53.660  1.00  0.00     0.042 A 
HETATM   10  C   UNL     1     -39.529  49.829 -51.874  1.00  0.00     0.001 A 
HETATM   11  C   UNL     1     -39.595  49.559 -53.238  1.00  0.00     0.002 A 
HETATM   12  C   UNL     1     -39.889  50.568 -54.159  1.00  0.00     0.030 A 
HETATM   13  N   UNL     1     -40.419  53.019 -54.326  1.00  0.00    -0.365 N 
HETATM   14  H   UNL     1     -40.514  53.100 -55.330  1.00  0.00     0.165 HD
HETATM   15  C   UNL     1     -40.592  54.042 -53.434  1.00  0.00     0.097 A 
ENDBRANCH   5   6
ENDBRANCH   1   5
BRANCH   2  16
HETATM   16  N   UNL     1     -42.690  57.338 -51.110  1.00  0.00    -0.184 NA
HETATM   17  C   UNL     1     -43.266  57.638 -52.231  1.00  0.00     0.153 C 
BRANCH  17  18
HETATM   18  C   UNL     1     -44.360  58.626 -52.279  1.00  0.00     0.017 A 
HETATM   19  C   UNL     1     -45.246  58.806 -51.210  1.00  0.00     0.077 A 
HETATM   20  C   UNL     1     -46.239  59.780 -51.279  1.00  0.00     0.039 A 
HETATM   21  C   UNL     1     -46.360  60.572 -52.422  1.00  0.00     0.022 A 
HETATM   22  C   UNL     1     -45.483  60.383 -53.490  1.00  0.00     0.012 A 
HETATM   23 BR   UNL     1     -45.652  61.453 -55.041  1.00  0.00    -0.051 Br
HETATM   24  C   UNL     1     -44.478  59.417 -53.427  1.00  0.00     0.034 A 
BRANCH  19  25
HETATM   25  O   UNL     1     -45.192  58.075 -50.055  1.00  0.00    -0.360 OA
HETATM   26  H   UNL     1     -44.696  57.243 -50.234  1.00  0.00     0.217 HD
ENDBRANCH  19  25
ENDBRANCH  17  18
ENDBRANCH   2  16
TORSDOF 5
ENDMDL
MODEL 8
REMARK VINA RESULT:      -7.6      3.992      8.581
REMARK  5 active torsions:
REMARK  status: ('A' for Active; 'I' for Inactive)
REMARK    1  A    between atoms: C_8  and  C_9 
REMARK    2  A    between atoms: C_9  and  C_10 
REMARK       I    between atoms: C_10  and  N_11 
REMARK    3  A    between atoms: N_11  and  N_12 
REMARK    4  A    between atoms: C_13  and  C_14 
REMARK    5  A    between atoms: C_15  and  O_16 
ROOT
HETATM    1  C   UNL     1     -42.265  57.834 -54.315  1.00  0.00     0.241 C 
HETATM    2  N   UNL     1     -42.737  56.527 -54.306  1.00  0.00    -0.247 N 
HETATM    3  O   UNL     1     -41.237  58.208 -53.749  1.00  0.00    -0.271 OA
HETATM    4  H   UNL     1     -43.639  56.318 -54.724  1.00  0.00     0.192 HD
ENDROOT
BRANCH   1   5
HETATM    5  C   UNL     1     -43.107  58.779 -55.160  1.00  0.00     0.145 C 
BRANCH   5   6
HETATM    6  C   UNL     1     -42.554  58.936 -56.542  1.00  0.00    -0.021 A 
HETATM    7  C   UNL     1     -42.580  57.971 -57.601  1.00  0.00    -0.001 A 
HETATM    8  C   UNL     1     -43.049  56.644 -57.713  1.00  0.00     0.014 A 
HETATM    9  C   UNL     1     -42.024  58.576 -58.729  1.00  0.00     0.042 A 
HETATM   10  C   UNL     1     -42.954  55.982 -58.943  1.00  0.00     0.001 A 
HETATM   11  C   UNL     1     -42.403  56.619 -60.052  1.00  0.00     0.002 A 
HETATM   12  C   UNL     1     -41.925  57.928 -59.966  1.00  0.00     0.030 A 
HETATM   13  N   UNL     1     -41.636  59.843 -58.362  1.00  0.00    -0.365 N 
HETATM   14  H   UNL     1     -41.196  60.511 -58.980  1.00  0.00     0.165 HD
HETATM   15  C   UNL     1     -41.952  60.071 -57.051  1.00  0.00     0.097 A 
ENDBRANCH   5   6
ENDBRANCH   1   5
BRANCH   2  16
HETATM   16  N   UNL     1     -42.154  55.602 -53.494  1.00  0.00    -0.184 NA
HETATM   17  C   UNL     1     -41.371  54.761 -54.090  1.00  0.00     0.153 C 
BRANCH  17  18
HETATM   18  C   UNL     1     -40.731  53.663 -53.342  1.00  0.00     0.017 A 
HETATM   19  C   UNL     1     -40.439  53.766 -51.977  1.00  0.00     0.077 A 
HETATM   20  C   UNL     1     -39.872  52.689 -51.298  1.00  0.00     0.039 A 
HETATM   21  C   UNL     1     -39.584  51.508 -51.983  1.00  0.00     0.022 A 
HETATM   22  C   UNL     1     -39.866  51.412 -53.345  1.00  0.00     0.012 A 
HETATM   23 BR   UNL     1     -39.468  49.812 -54.273  1.00  0.00    -0.051 Br
HETATM   24  C   UNL     1     -40.442  52.480 -54.032  1.00  0.00     0.034 A 
BRANCH  19  25
HETATM   25  O   UNL     1     -40.694  54.885 -51.234  1.00  0.00    -0.360 OA
HETATM   26  H   UNL     1     -41.654  54.902 -51.011  1.00  0.00     0.217 HD
ENDBRANCH  19  25
ENDBRANCH  17  18
ENDBRANCH   2  16
TORSDOF 5
ENDMDL
MODEL 9
REMARK VINA RESULT:      -7.6      3.177      9.084
REMARK  5 active torsions:
REMARK  status: ('A' for Active; 'I' for Inactive)
REMARK    1  A    between atoms: C_8  and  C_9 
REMARK    2  A    between atoms: C_9  and  C_10 
REMARK       I    between atoms: C_10  and  N_11 
REMARK    3  A    between atoms: N_11  and  N_12 
REMARK    4  A    between atoms: C_13  and  C_14 
REMARK    5  A    between atoms: C_15  and  O_16 
ROOT
HETATM    1  C   UNL     1     -42.848  56.021 -56.584  1.00  0.00     0.241 C 
HETATM    2  N   UNL     1     -41.844  55.081 -56.374  1.00  0.00    -0.247 N 
HETATM    3  O   UNL     1     -43.649  56.389 -55.726  1.00  0.00    -0.271 OA
HETATM    4  H   UNL     1     -41.280  54.769 -57.158  1.00  0.00     0.192 HD
ENDROOT
BRANCH   1   5
HETATM    5  C   UNL     1     -42.832  56.623 -57.981  1.00  0.00     0.145 C 
BRANCH   5   6
HETATM    6  C   UNL     1     -43.919  56.061 -58.844  1.00  0.00    -0.021 A 
HETATM    7  C   UNL     1     -45.044  56.763 -59.388  1.00  0.00    -0.001 A 
HETATM    8  C   UNL     1     -45.518  58.089 -59.291  1.00  0.00     0.014 A 
HETATM    9  C   UNL     1     -45.746  55.864 -60.192  1.00  0.00     0.042 A 
HETATM   10  C   UNL     1     -46.662  58.465 -60.005  1.00  0.00     0.001 A 
HETATM   11  C   UNL     1     -47.333  57.546 -60.807  1.00  0.00     0.002 A 
HETATM   12  C   UNL     1     -46.890  56.225 -60.914  1.00  0.00     0.030 A 
HETATM   13  N   UNL     1     -45.101  54.653 -60.108  1.00  0.00    -0.365 N 
HETATM   14  H   UNL     1     -45.393  53.811 -60.587  1.00  0.00     0.165 HD
HETATM   15  C   UNL     1     -44.000  54.760 -59.304  1.00  0.00     0.097 A 
ENDBRANCH   5   6
ENDBRANCH   1   5
BRANCH   2  16
HETATM   16  N   UNL     1     -41.814  54.373 -55.212  1.00  0.00    -0.184 NA
HETATM   17  C   UNL     1     -40.822  54.645 -54.425  1.00  0.00     0.153 C 
BRANCH  17  18
HETATM   18  C   UNL     1     -40.627  53.900 -53.167  1.00  0.00     0.017 A 
HETATM   19  C   UNL     1     -40.151  52.584 -53.150  1.00  0.00     0.077 A 
HETATM   20  C   UNL     1     -39.942  51.929 -51.938  1.00  0.00     0.039 A 
HETATM   21  C   UNL     1     -40.220  52.584 -50.736  1.00  0.00     0.022 A 
HETATM   22  C   UNL     1     -40.704  53.891 -50.757  1.00  0.00     0.012 A 
HETATM   23 BR   UNL     1     -41.086  54.775 -49.128  1.00  0.00    -0.051 Br
HETATM   24  C   UNL     1     -40.908  54.559 -51.965  1.00  0.00     0.034 A 
BRANCH  19  25
HETATM   25  O   UNL     1     -39.852  51.875 -54.281  1.00  0.00    -0.360 OA
HETATM   26  H   UNL     1     -39.261  52.423 -54.848  1.00  0.00     0.217 HD
ENDBRANCH  19  25
ENDBRANCH  17  18
ENDBRANCH   2  16
TORSDOF 5
ENDMDL
MODEL 10
REMARK VINA RESULT:      -7.5     14.591     17.773
REMARK  5 active torsions:
REMARK  status: ('A' for Active; 'I' for Inactive)
REMARK    1  A    between atoms: C_8  and  C_9 
REMARK    2  A    between atoms: C_9  and  C_10 
REMARK       I    between atoms: C_10  and  N_11 
REMARK    3  A    between atoms: N_11  and  N_12 
REMARK    4  A    between atoms: C_13  and  C_14 
REMARK    5  A    between atoms: C_15  and  O_16 
ROOT
HETATM    1  C   UNL     1     -36.160  42.135 -55.891  1.00  0.00     0.241 C 
HETATM    2  N   UNL     1     -36.314  41.499 -54.664  1.00  0.00    -0.247 N 
HETATM    3  O   UNL     1     -35.080  42.492 -56.360  1.00  0.00    -0.271 OA
HETATM    4  H   UNL     1     -37.249  41.316 -54.310  1.00  0.00     0.192 HD
ENDROOT
BRANCH   1   5
HETATM    5  C   UNL     1     -37.464  42.299 -56.658  1.00  0.00     0.145 C 
BRANCH   5   6
HETATM    6  C   UNL     1     -37.380  41.713 -58.033  1.00  0.00    -0.021 A 
HETATM    7  C   UNL     1     -37.628  40.353 -58.413  1.00  0.00    -0.001 A 
HETATM    8  C   UNL     1     -37.966  39.179 -57.705  1.00  0.00     0.014 A 
HETATM    9  C   UNL     1     -37.511  40.281 -59.801  1.00  0.00     0.042 A 
HETATM   10  C   UNL     1     -38.183  37.989 -58.410  1.00  0.00     0.001 A 
HETATM   11  C   UNL     1     -38.068  37.954 -59.798  1.00  0.00     0.002 A 
HETATM   12  C   UNL     1     -37.727  39.100 -60.521  1.00  0.00     0.030 A 
HETATM   13  N   UNL     1     -37.165  41.535 -60.247  1.00  0.00    -0.365 N 
HETATM   14  H   UNL     1     -37.008  41.778 -61.216  1.00  0.00     0.165 HD
HETATM   15  C   UNL     1     -37.087  42.404 -59.193  1.00  0.00     0.097 A 
ENDBRANCH   5   6
ENDBRANCH   1   5
BRANCH   2  16
HETATM   16  N   UNL     1     -35.253  41.396 -53.818  1.00  0.00    -0.184 NA
HETATM   17  C   UNL     1     -35.095  40.233 -53.271  1.00  0.00     0.153 C 
BRANCH  17  18
HETATM   18  C   UNL     1     -34.028  40.003 -52.278  1.00  0.00     0.017 A 
HETATM   19  C   UNL     1     -32.705  40.398 -52.506  1.00  0.00     0.077 A 
HETATM   20  C   UNL     1     -31.735  40.200 -51.525  1.00  0.00     0.039 A 
HETATM   21  C   UNL     1     -32.081  39.595 -50.316  1.00  0.00     0.022 A 
HETATM   22  C   UNL     1     -33.399  39.193 -50.096  1.00  0.00     0.012 A 
HETATM   23 BR   UNL     1     -33.865  38.368 -48.459  1.00  0.00    -0.051 Br
HETATM   24  C   UNL     1     -34.379  39.396 -51.068  1.00  0.00     0.034 A 
BRANCH  19  25
HETATM   25  O   UNL     1     -32.285  41.000 -53.660  1.00  0.00    -0.360 OA
HETATM   26  H   UNL     1     -31.433  41.461 -53.482  1.00  0.00     0.217 HD
ENDBRANCH  19  25
ENDBRANCH  17  18
ENDBRANCH   2  16
TORSDOF 5
ENDMDL
