MODEL 1
REMARK VINA RESULT:      -7.8      0.000      0.000
REMARK  10 active torsions:
REMARK  status: ('A' for Active; 'I' for Inactive)
REMARK    1  A    between atoms: C_2  and  C_3 
REMARK    2  A    between atoms: C_3  and  C_4 
REMARK    3  A    between atoms: C_4  and  O_5 
REMARK    4  A    between atoms: O_5  and  C_6 
REMARK    5  A    between atoms: C_8  and  C_9 
REMARK       I    between atoms: C_9  and  N_10 
REMARK    6  A    between atoms: N_10  and  C_11 
REMARK    7  A    between atoms: C_11  and  N_12 
REMARK    8  A    between atoms: N_12  and  C_13 
REMARK    9  A    between atoms: C_15  and  O_16 
REMARK   10  A    between atoms: C_17  and  C_18 
ROOT
HETATM    1  N   UNL     1     -44.203  56.857 -55.305  1.00  0.00    -0.333 N 
HETATM    2  H   UNL     1     -45.017  56.605 -55.862  1.00  0.00     0.168 HD
ENDROOT
BRANCH   1   3
HETATM    3  C   UNL     1     -43.039  56.684 -56.005  1.00  0.00     0.179 C 
HETATM    4  S   UNL     1     -42.802  57.680 -57.330  1.00  0.00    -0.040 SA
BRANCH   3   5
HETATM    5  N   UNL     1     -42.215  55.660 -55.610  1.00  0.00    -0.299 N 
HETATM    6  C   UNL     1     -42.624  54.416 -55.147  1.00  0.00     0.257 C 
HETATM    7  O   UNL     1     -43.493  53.738 -55.684  1.00  0.00    -0.267 OA
HETATM    8  H   UNL     1     -41.304  55.983 -55.317  1.00  0.00     0.171 HD
BRANCH   6   9
HETATM    9  C   UNL     1     -41.791  53.813 -54.075  1.00  0.00     0.035 A 
HETATM   10  C   UNL     1     -42.039  54.074 -52.723  1.00  0.00     0.053 A 
HETATM   11  C   UNL     1     -41.248  53.478 -51.735  1.00  0.00     0.069 A 
HETATM   12  C   UNL     1     -40.214  52.619 -52.106  1.00  0.00     0.037 A 
HETATM   13  C   UNL     1     -39.979  52.340 -53.455  1.00  0.00     0.004 A 
HETATM   14  C   UNL     1     -40.769  52.931 -54.439  1.00  0.00     0.017 A 
BRANCH  11  15
HETATM   15  O   UNL     1     -41.617  53.794 -50.458  1.00  0.00    -0.351 OA
BRANCH  15  16
HETATM   16  C   UNL     1     -42.092  55.109 -50.178  1.00  0.00     0.175 C 
BRANCH  16  17
HETATM   17  C   UNL     1     -40.983  56.164 -50.124  1.00  0.00     0.026 C 
BRANCH  17  18
HETATM   18  C   UNL     1     -41.090  57.257 -51.190  1.00  0.00    -0.002 C 
HETATM   19  C   UNL     1     -41.269  58.656 -50.617  1.00  0.00     0.005 C 
ENDBRANCH  17  18
ENDBRANCH  16  17
ENDBRANCH  15  16
ENDBRANCH  11  15
ENDBRANCH   6   9
ENDBRANCH   3   5
ENDBRANCH   1   3
BRANCH   1  20
HETATM   20  C   UNL     1     -44.495  57.546 -54.107  1.00  0.00     0.036 A 
HETATM   21  C   UNL     1     -44.530  56.969 -52.836  1.00  0.00     0.067 A 
HETATM   22  C   UNL     1     -44.723  57.765 -51.693  1.00  0.00     0.082 A 
HETATM   23  C   UNL     1     -44.866  59.158 -51.786  1.00  0.00     0.050 A 
HETATM   24  C   UNL     1     -44.848  59.721 -53.073  1.00  0.00     0.021 A 
HETATM   25  C   UNL     1     -44.668  58.930 -54.213  1.00  0.00     0.030 A 
BRANCH  22  26
HETATM   26  O   UNL     1     -44.741  57.147 -50.470  1.00  0.00    -0.360 OA
HETATM   27  H   UNL     1     -43.863  56.794 -50.257  1.00  0.00     0.217 HD
ENDBRANCH  22  26
BRANCH  23  28
HETATM   28  C   UNL     1     -44.955  60.075 -50.643  1.00  0.00     0.183 A 
HETATM   29  O   UNL     1     -44.217  61.231 -50.682  1.00  0.00    -0.289 OA
HETATM   30  C   UNL     1     -44.581  61.900 -49.553  1.00  0.00     0.106 A 
HETATM   31  C   UNL     1     -45.503  61.121 -48.877  1.00  0.00     0.093 A 
HETATM   32  C   UNL     1     -44.139  63.148 -49.132  1.00  0.00     0.040 A 
HETATM   33  N   UNL     1     -45.720  59.956 -49.568  1.00  0.00    -0.221 NA
HETATM   34  C   UNL     1     -46.054  61.603 -47.682  1.00  0.00     0.034 A 
HETATM   35  C   UNL     1     -45.641  62.865 -47.227  1.00  0.00     0.002 A 
HETATM   36  C   UNL     1     -44.701  63.621 -47.940  1.00  0.00     0.003 A 
ENDBRANCH  23  28
ENDBRANCH   1  20
TORSDOF 10
ENDMDL
MODEL 2
REMARK VINA RESULT:      -7.8      2.788      7.662
REMARK  10 active torsions:
REMARK  status: ('A' for Active; 'I' for Inactive)
REMARK    1  A    between atoms: C_2  and  C_3 
REMARK    2  A    between atoms: C_3  and  C_4 
REMARK    3  A    between atoms: C_4  and  O_5 
REMARK    4  A    between atoms: O_5  and  C_6 
REMARK    5  A    between atoms: C_8  and  C_9 
REMARK       I    between atoms: C_9  and  N_10 
REMARK    6  A    between atoms: N_10  and  C_11 
REMARK    7  A    between atoms: C_11  and  N_12 
REMARK    8  A    between atoms: N_12  and  C_13 
REMARK    9  A    between atoms: C_15  and  O_16 
REMARK   10  A    between atoms: C_17  and  C_18 
ROOT
HETATM    1  N   UNL     1     -44.451  57.733 -56.001  1.00  0.00    -0.333 N 
HETATM    2  H   UNL     1     -45.392  57.450 -56.266  1.00  0.00     0.168 HD
ENDROOT
BRANCH   1   3
HETATM    3  C   UNL     1     -44.272  59.083 -56.137  1.00  0.00     0.179 C 
HETATM    4  S   UNL     1     -44.546  59.729 -57.657  1.00  0.00    -0.040 SA
BRANCH   3   5
HETATM    5  N   UNL     1     -43.807  59.769 -55.043  1.00  0.00    -0.299 N 
HETATM    6  C   UNL     1     -42.491  59.801 -54.599  1.00  0.00     0.257 C 
HETATM    7  O   UNL     1     -41.525  59.976 -55.335  1.00  0.00    -0.267 OA
HETATM    8  H   UNL     1     -44.528  59.947 -54.358  1.00  0.00     0.171 HD
BRANCH   6   9
HETATM    9  C   UNL     1     -42.300  59.841 -53.128  1.00  0.00     0.035 A 
HETATM   10  C   UNL     1     -41.634  58.814 -52.449  1.00  0.00     0.053 A 
HETATM   11  C   UNL     1     -41.454  58.887 -51.063  1.00  0.00     0.069 A 
HETATM   12  C   UNL     1     -41.938  59.993 -50.364  1.00  0.00     0.037 A 
HETATM   13  C   UNL     1     -42.583  61.030 -51.043  1.00  0.00     0.004 A 
HETATM   14  C   UNL     1     -42.759  60.958 -52.423  1.00  0.00     0.017 A 
BRANCH  11  15
HETATM   15  O   UNL     1     -40.764  57.835 -50.532  1.00  0.00    -0.351 OA
BRANCH  15  16
HETATM   16  C   UNL     1     -41.132  56.508 -50.900  1.00  0.00     0.175 C 
BRANCH  16  17
HETATM   17  C   UNL     1     -41.375  55.584 -49.704  1.00  0.00     0.026 C 
BRANCH  17  18
HETATM   18  C   UNL     1     -40.224  54.622 -49.396  1.00  0.00    -0.002 C 
HETATM   19  C   UNL     1     -40.343  53.938 -48.042  1.00  0.00     0.005 C 
ENDBRANCH  17  18
ENDBRANCH  16  17
ENDBRANCH  15  16
ENDBRANCH  11  15
ENDBRANCH   6   9
ENDBRANCH   3   5
ENDBRANCH   1   3
BRANCH   1  20
HETATM   20  C   UNL     1     -43.700  56.739 -55.334  1.00  0.00     0.036 A 
HETATM   21  C   UNL     1     -44.054  56.143 -54.122  1.00  0.00     0.067 A 
HETATM   22  C   UNL     1     -43.292  55.084 -53.596  1.00  0.00     0.082 A 
HETATM   23  C   UNL     1     -42.172  54.579 -54.274  1.00  0.00     0.050 A 
HETATM   24  C   UNL     1     -41.818  55.203 -55.482  1.00  0.00     0.021 A 
HETATM   25  C   UNL     1     -42.567  56.265 -56.002  1.00  0.00     0.030 A 
BRANCH  22  26
HETATM   26  O   UNL     1     -43.689  54.531 -52.407  1.00  0.00    -0.360 OA
HETATM   27  H   UNL     1     -42.993  53.954 -52.054  1.00  0.00     0.217 HD
ENDBRANCH  22  26
BRANCH  23  28
HETATM   28  C   UNL     1     -41.392  53.408 -53.859  1.00  0.00     0.183 A 
HETATM   29  O   UNL     1     -40.990  53.330 -52.549  1.00  0.00    -0.289 OA
HETATM   30  C   UNL     1     -40.388  52.111 -52.455  1.00  0.00     0.106 A 
HETATM   31  C   UNL     1     -40.435  51.517 -53.703  1.00  0.00     0.093 A 
HETATM   32  C   UNL     1     -39.830  51.531 -51.322  1.00  0.00     0.040 A 
HETATM   33  N   UNL     1     -41.057  52.356 -54.592  1.00  0.00    -0.221 NA
HETATM   34  C   UNL     1     -39.895  50.235 -53.866  1.00  0.00     0.034 A 
HETATM   35  C   UNL     1     -39.330  49.609 -52.744  1.00  0.00     0.002 A 
HETATM   36  C   UNL     1     -39.299  50.247 -51.497  1.00  0.00     0.003 A 
ENDBRANCH  23  28
ENDBRANCH   1  20
TORSDOF 10
ENDMDL
MODEL 3
REMARK VINA RESULT:      -7.8      3.305      7.490
REMARK  10 active torsions:
REMARK  status: ('A' for Active; 'I' for Inactive)
REMARK    1  A    between atoms: C_2  and  C_3 
REMARK    2  A    between atoms: C_3  and  C_4 
REMARK    3  A    between atoms: C_4  and  O_5 
REMARK    4  A    between atoms: O_5  and  C_6 
REMARK    5  A    between atoms: C_8  and  C_9 
REMARK       I    between atoms: C_9  and  N_10 
REMARK    6  A    between atoms: N_10  and  C_11 
REMARK    7  A    between atoms: C_11  and  N_12 
REMARK    8  A    between atoms: N_12  and  C_13 
REMARK    9  A    between atoms: C_15  and  O_16 
REMARK   10  A    between atoms: C_17  and  C_18 
ROOT
HETATM    1  N   UNL     1     -42.188  60.092 -52.350  1.00  0.00    -0.333 N 
HETATM    2  H   UNL     1     -41.550  60.886 -52.337  1.00  0.00     0.168 HD
ENDROOT
BRANCH   1   3
HETATM    3  C   UNL     1     -42.645  59.792 -51.095  1.00  0.00     0.179 C 
HETATM    4  S   UNL     1     -43.465  61.005 -50.282  1.00  0.00    -0.040 SA
BRANCH   3   5
HETATM    5  N   UNL     1     -42.320  58.559 -50.586  1.00  0.00    -0.299 N 
HETATM    6  C   UNL     1     -41.139  57.866 -50.819  1.00  0.00     0.257 C 
HETATM    7  O   UNL     1     -40.024  58.373 -50.762  1.00  0.00    -0.267 OA
HETATM    8  H   UNL     1     -43.133  58.014 -50.336  1.00  0.00     0.171 HD
BRANCH   6   9
HETATM    9  C   UNL     1     -41.260  56.390 -50.925  1.00  0.00     0.035 A 
HETATM   10  C   UNL     1     -41.744  55.777 -52.086  1.00  0.00     0.053 A 
HETATM   11  C   UNL     1     -41.831  54.383 -52.162  1.00  0.00     0.069 A 
HETATM   12  C   UNL     1     -41.427  53.607 -51.075  1.00  0.00     0.037 A 
HETATM   13  C   UNL     1     -40.922  54.216 -49.924  1.00  0.00     0.004 A 
HETATM   14  C   UNL     1     -40.833  55.605 -49.849  1.00  0.00     0.017 A 
BRANCH  11  15
HETATM   15  O   UNL     1     -42.292  53.916 -53.360  1.00  0.00    -0.351 OA
BRANCH  15  16
HETATM   16  C   UNL     1     -41.531  54.162 -54.540  1.00  0.00     0.175 C 
BRANCH  16  17
HETATM   17  C   UNL     1     -40.284  53.282 -54.661  1.00  0.00     0.026 C 
BRANCH  17  18
HETATM   18  C   UNL     1     -40.507  51.808 -54.312  1.00  0.00    -0.002 C 
HETATM   19  C   UNL     1     -39.522  51.264 -53.288  1.00  0.00     0.005 C 
ENDBRANCH  17  18
ENDBRANCH  16  17
ENDBRANCH  15  16
ENDBRANCH  11  15
ENDBRANCH   6   9
ENDBRANCH   3   5
ENDBRANCH   1   3
BRANCH   1  20
HETATM   20  C   UNL     1     -42.622  59.702 -53.637  1.00  0.00     0.036 A 
HETATM   21  C   UNL     1     -41.893  59.868 -54.815  1.00  0.00     0.067 A 
HETATM   22  C   UNL     1     -42.369  59.346 -56.032  1.00  0.00     0.082 A 
HETATM   23  C   UNL     1     -43.573  58.627 -56.099  1.00  0.00     0.050 A 
HETATM   24  C   UNL     1     -44.304  58.486 -54.907  1.00  0.00     0.021 A 
HETATM   25  C   UNL     1     -43.839  59.016 -53.698  1.00  0.00     0.030 A 
BRANCH  22  26
HETATM   26  O   UNL     1     -41.610  59.531 -57.157  1.00  0.00    -0.360 OA
HETATM   27  H   UNL     1     -41.511  58.695 -57.638  1.00  0.00     0.217 HD
ENDBRANCH  22  26
BRANCH  23  28
HETATM   28  C   UNL     1     -44.086  57.951 -57.296  1.00  0.00     0.183 A 
HETATM   29  O   UNL     1     -43.287  57.012 -57.901  1.00  0.00    -0.289 OA
HETATM   30  C   UNL     1     -44.062  56.505 -58.899  1.00  0.00     0.106 A 
HETATM   31  C   UNL     1     -45.278  57.163 -58.867  1.00  0.00     0.093 A 
HETATM   32  C   UNL     1     -43.729  55.498 -59.797  1.00  0.00     0.040 A 
HETATM   33  N   UNL     1     -45.277  58.091 -57.858  1.00  0.00    -0.221 NA
HETATM   34  C   UNL     1     -46.269  56.803 -59.791  1.00  0.00     0.034 A 
HETATM   35  C   UNL     1     -45.977  55.783 -60.709  1.00  0.00     0.002 A 
HETATM   36  C   UNL     1     -44.730  55.145 -60.711  1.00  0.00     0.003 A 
ENDBRANCH  23  28
ENDBRANCH   1  20
TORSDOF 10
ENDMDL
MODEL 4
REMARK VINA RESULT:      -7.7      2.662      7.872
REMARK  10 active torsions:
REMARK  status: ('A' for Active; 'I' for Inactive)
REMARK    1  A    between atoms: C_2  and  C_3 
REMARK    2  A    between atoms: C_3  and  C_4 
REMARK    3  A    between atoms: C_4  and  O_5 
REMARK    4  A    between atoms: O_5  and  C_6 
REMARK    5  A    between atoms: C_8  and  C_9 
REMARK       I    between atoms: C_9  and  N_10 
REMARK    6  A    between atoms: N_10  and  C_11 
REMARK    7  A    between atoms: C_11  and  N_12 
REMARK    8  A    between atoms: N_12  and  C_13 
REMARK    9  A    between atoms: C_15  and  O_16 
REMARK   10  A    between atoms: C_17  and  C_18 
ROOT
HETATM    1  N   UNL     1     -43.616  58.036 -56.838  1.00  0.00    -0.333 N 
HETATM    2  H   UNL     1     -43.120  58.491 -57.602  1.00  0.00     0.168 HD
ENDROOT
BRANCH   1   3
HETATM    3  C   UNL     1     -44.953  58.330 -56.859  1.00  0.00     0.179 C 
HETATM    4  S   UNL     1     -45.752  58.096 -58.312  1.00  0.00    -0.040 SA
BRANCH   3   5
HETATM    5  N   UNL     1     -45.497  58.864 -55.719  1.00  0.00    -0.299 N 
HETATM    6  C   UNL     1     -44.834  59.665 -54.796  1.00  0.00     0.257 C 
HETATM    7  O   UNL     1     -44.116  60.611 -55.102  1.00  0.00    -0.267 OA
HETATM    8  H   UNL     1     -46.296  58.343 -55.386  1.00  0.00     0.171 HD
BRANCH   6   9
HETATM    9  C   UNL     1     -45.214  59.472 -53.374  1.00  0.00     0.035 A 
HETATM   10  C   UNL     1     -44.835  58.328 -52.665  1.00  0.00     0.053 A 
HETATM   11  C   UNL     1     -45.193  58.181 -51.320  1.00  0.00     0.069 A 
HETATM   12  C   UNL     1     -45.927  59.187 -50.690  1.00  0.00     0.037 A 
HETATM   13  C   UNL     1     -46.287  60.340 -51.391  1.00  0.00     0.004 A 
HETATM   14  C   UNL     1     -45.928  60.487 -52.729  1.00  0.00     0.017 A 
BRANCH  11  15
HETATM   15  O   UNL     1     -44.734  57.033 -50.741  1.00  0.00    -0.351 OA
BRANCH  15  16
HETATM   16  C   UNL     1     -43.670  56.319 -51.365  1.00  0.00     0.175 C 
BRANCH  16  17
HETATM   17  C   UNL     1     -43.517  54.881 -50.860  1.00  0.00     0.026 C 
BRANCH  17  18
HETATM   18  C   UNL     1     -42.327  54.656 -49.924  1.00  0.00    -0.002 C 
HETATM   19  C   UNL     1     -41.334  55.809 -49.906  1.00  0.00     0.005 C 
ENDBRANCH  17  18
ENDBRANCH  16  17
ENDBRANCH  15  16
ENDBRANCH  11  15
ENDBRANCH   6   9
ENDBRANCH   3   5
ENDBRANCH   1   3
BRANCH   1  20
HETATM   20  C   UNL     1     -42.872  57.049 -56.153  1.00  0.00     0.036 A 
HETATM   21  C   UNL     1     -42.071  57.281 -55.034  1.00  0.00     0.067 A 
HETATM   22  C   UNL     1     -41.457  56.210 -54.358  1.00  0.00     0.082 A 
HETATM   23  C   UNL     1     -41.645  54.881 -54.769  1.00  0.00     0.050 A 
HETATM   24  C   UNL     1     -42.438  54.667 -55.908  1.00  0.00     0.021 A 
HETATM   25  C   UNL     1     -43.040  55.732 -56.590  1.00  0.00     0.030 A 
BRANCH  22  26
HETATM   26  O   UNL     1     -40.687  56.494 -53.261  1.00  0.00    -0.360 OA
HETATM   27  H   UNL     1     -40.221  57.336 -53.384  1.00  0.00     0.217 HD
ENDBRANCH  22  26
BRANCH  23  28
HETATM   28  C   UNL     1     -41.141  53.700 -54.059  1.00  0.00     0.183 A 
HETATM   29  O   UNL     1     -41.053  52.518 -54.751  1.00  0.00    -0.289 OA
HETATM   30  C   UNL     1     -40.471  51.656 -53.871  1.00  0.00     0.106 A 
HETATM   31  C   UNL     1     -40.250  52.342 -52.690  1.00  0.00     0.093 A 
HETATM   32  C   UNL     1     -40.132  50.327 -54.090  1.00  0.00     0.040 A 
HETATM   33  N   UNL     1     -40.696  53.633 -52.812  1.00  0.00    -0.221 NA
HETATM   34  C   UNL     1     -39.636  51.674 -51.622  1.00  0.00     0.034 A 
HETATM   35  C   UNL     1     -39.269  50.332 -51.805  1.00  0.00     0.002 A 
HETATM   36  C   UNL     1     -39.514  49.673 -53.017  1.00  0.00     0.003 A 
ENDBRANCH  23  28
ENDBRANCH   1  20
TORSDOF 10
ENDMDL
MODEL 5
REMARK VINA RESULT:      -7.5      4.001      8.737
REMARK  10 active torsions:
REMARK  status: ('A' for Active; 'I' for Inactive)
REMARK    1  A    between atoms: C_2  and  C_3 
REMARK    2  A    between atoms: C_3  and  C_4 
REMARK    3  A    between atoms: C_4  and  O_5 
REMARK    4  A    between atoms: O_5  and  C_6 
REMARK    5  A    between atoms: C_8  and  C_9 
REMARK       I    between atoms: C_9  and  N_10 
REMARK    6  A    between atoms: N_10  and  C_11 
REMARK    7  A    between atoms: C_11  and  N_12 
REMARK    8  A    between atoms: N_12  and  C_13 
REMARK    9  A    between atoms: C_15  and  O_16 
REMARK   10  A    between atoms: C_17  and  C_18 
ROOT
HETATM    1  N   UNL     1     -43.859  59.102 -54.033  1.00  0.00    -0.333 N 
HETATM    2  H   UNL     1     -44.610  59.370 -53.400  1.00  0.00     0.168 HD
ENDROOT
BRANCH   1   3
HETATM    3  C   UNL     1     -43.318  60.190 -54.664  1.00  0.00     0.179 C 
HETATM    4  S   UNL     1     -42.960  61.514 -53.704  1.00  0.00    -0.040 SA
BRANCH   3   5
HETATM    5  N   UNL     1     -43.196  60.129 -56.029  1.00  0.00    -0.299 N 
HETATM    6  C   UNL     1     -44.032  59.431 -56.893  1.00  0.00     0.257 C 
HETATM    7  O   UNL     1     -45.256  59.460 -56.831  1.00  0.00    -0.267 OA
HETATM    8  H   UNL     1     -42.253  60.307 -56.345  1.00  0.00     0.171 HD
BRANCH   6   9
HETATM    9  C   UNL     1     -43.377  58.807 -58.070  1.00  0.00     0.035 A 
HETATM   10  C   UNL     1     -43.434  57.427 -58.292  1.00  0.00     0.053 A 
HETATM   11  C   UNL     1     -42.823  56.869 -59.420  1.00  0.00     0.069 A 
HETATM   12  C   UNL     1     -42.160  57.700 -60.325  1.00  0.00     0.037 A 
HETATM   13  C   UNL     1     -42.122  59.080 -60.117  1.00  0.00     0.004 A 
HETATM   14  C   UNL     1     -42.733  59.635 -58.995  1.00  0.00     0.017 A 
BRANCH  11  15
HETATM   15  O   UNL     1     -42.979  55.517 -59.530  1.00  0.00    -0.351 OA
BRANCH  15  16
HETATM   16  C   UNL     1     -44.296  54.972 -59.565  1.00  0.00     0.175 C 
BRANCH  16  17
HETATM   17  C   UNL     1     -44.940  55.011 -60.954  1.00  0.00     0.026 C 
BRANCH  17  18
HETATM   18  C   UNL     1     -46.148  55.944 -61.071  1.00  0.00    -0.002 C 
HETATM   19  C   UNL     1     -46.609  56.520 -59.740  1.00  0.00     0.005 C 
ENDBRANCH  17  18
ENDBRANCH  16  17
ENDBRANCH  15  16
ENDBRANCH  11  15
ENDBRANCH   6   9
ENDBRANCH   3   5
ENDBRANCH   1   3
BRANCH   1  20
HETATM   20  C   UNL     1     -43.414  57.768 -53.894  1.00  0.00     0.036 A 
HETATM   21  C   UNL     1     -43.980  56.662 -54.531  1.00  0.00     0.067 A 
HETATM   22  C   UNL     1     -43.393  55.389 -54.411  1.00  0.00     0.082 A 
HETATM   23  C   UNL     1     -42.217  55.191 -53.671  1.00  0.00     0.050 A 
HETATM   24  C   UNL     1     -41.672  56.310 -53.020  1.00  0.00     0.021 A 
HETATM   25  C   UNL     1     -42.261  57.576 -53.128  1.00  0.00     0.030 A 
BRANCH  22  26
HETATM   26  O   UNL     1     -43.985  54.340 -55.064  1.00  0.00    -0.360 OA
HETATM   27  H   UNL     1     -44.579  53.861 -54.464  1.00  0.00     0.217 HD
ENDBRANCH  22  26
BRANCH  23  28
HETATM   28  C   UNL     1     -41.476  53.928 -53.588  1.00  0.00     0.183 A 
HETATM   29  O   UNL     1     -40.885  53.602 -52.392  1.00  0.00    -0.289 OA
HETATM   30  C   UNL     1     -40.372  52.357 -52.600  1.00  0.00     0.106 A 
HETATM   31  C   UNL     1     -40.657  51.993 -53.903  1.00  0.00     0.093 A 
HETATM   32  C   UNL     1     -39.694  51.561 -51.685  1.00  0.00     0.040 A 
HETATM   33  N   UNL     1     -41.341  53.004 -54.528  1.00  0.00    -0.221 NA
HETATM   34  C   UNL     1     -40.249  50.733 -54.361  1.00  0.00     0.034 A 
HETATM   35  C   UNL     1     -39.570  49.893 -53.465  1.00  0.00     0.002 A 
HETATM   36  C   UNL     1     -39.297  50.302 -52.153  1.00  0.00     0.003 A 
ENDBRANCH  23  28
ENDBRANCH   1  20
TORSDOF 10
ENDMDL
MODEL 6
REMARK VINA RESULT:      -7.3      2.683      9.901
REMARK  10 active torsions:
REMARK  status: ('A' for Active; 'I' for Inactive)
REMARK    1  A    between atoms: C_2  and  C_3 
REMARK    2  A    between atoms: C_3  and  C_4 
REMARK    3  A    between atoms: C_4  and  O_5 
REMARK    4  A    between atoms: O_5  and  C_6 
REMARK    5  A    between atoms: C_8  and  C_9 
REMARK       I    between atoms: C_9  and  N_10 
REMARK    6  A    between atoms: N_10  and  C_11 
REMARK    7  A    between atoms: C_11  and  N_12 
REMARK    8  A    between atoms: N_12  and  C_13 
REMARK    9  A    between atoms: C_15  and  O_16 
REMARK   10  A    between atoms: C_17  and  C_18 
ROOT
HETATM    1  N   UNL     1     -42.606  59.265 -51.802  1.00  0.00    -0.333 N 
HETATM    2  H   UNL     1     -42.171  59.972 -52.391  1.00  0.00     0.168 HD
ENDROOT
BRANCH   1   3
HETATM    3  C   UNL     1     -43.799  59.699 -51.290  1.00  0.00     0.179 C 
HETATM    4  S   UNL     1     -45.169  59.378 -52.198  1.00  0.00    -0.040 SA
BRANCH   3   5
HETATM    5  N   UNL     1     -43.757  60.427 -50.127  1.00  0.00    -0.299 N 
HETATM    6  C   UNL     1     -44.855  60.870 -49.401  1.00  0.00     0.257 C 
HETATM    7  O   UNL     1     -45.823  60.168 -49.129  1.00  0.00    -0.267 OA
HETATM    8  H   UNL     1     -42.897  60.946 -50.022  1.00  0.00     0.171 HD
BRANCH   6   9
HETATM    9  C   UNL     1     -44.716  62.198 -48.753  1.00  0.00     0.035 A 
HETATM   10  C   UNL     1     -45.329  62.482 -47.528  1.00  0.00     0.053 A 
HETATM   11  C   UNL     1     -45.166  63.738 -46.933  1.00  0.00     0.069 A 
HETATM   12  C   UNL     1     -44.383  64.703 -47.567  1.00  0.00     0.037 A 
HETATM   13  C   UNL     1     -43.751  64.414 -48.779  1.00  0.00     0.004 A 
HETATM   14  C   UNL     1     -43.912  63.162 -49.370  1.00  0.00     0.017 A 
BRANCH  11  15
HETATM   15  O   UNL     1     -45.793  63.871 -45.727  1.00  0.00    -0.351 OA
BRANCH  15  16
HETATM   16  C   UNL     1     -45.111  63.466 -44.543  1.00  0.00     0.175 C 
BRANCH  16  17
HETATM   17  C   UNL     1     -44.510  64.632 -43.752  1.00  0.00     0.026 C 
BRANCH  17  18
HETATM   18  C   UNL     1     -43.233  64.288 -42.980  1.00  0.00    -0.002 C 
HETATM   19  C   UNL     1     -43.107  62.812 -42.631  1.00  0.00     0.005 C 
ENDBRANCH  17  18
ENDBRANCH  16  17
ENDBRANCH  15  16
ENDBRANCH  11  15
ENDBRANCH   6   9
ENDBRANCH   3   5
ENDBRANCH   1   3
BRANCH   1  20
HETATM   20  C   UNL     1     -42.020  57.982 -51.886  1.00  0.00     0.036 A 
HETATM   21  C   UNL     1     -41.860  57.101 -50.816  1.00  0.00     0.067 A 
HETATM   22  C   UNL     1     -41.364  55.801 -51.026  1.00  0.00     0.082 A 
HETATM   23  C   UNL     1     -41.036  55.341 -52.311  1.00  0.00     0.050 A 
HETATM   24  C   UNL     1     -41.185  56.247 -53.374  1.00  0.00     0.021 A 
HETATM   25  C   UNL     1     -41.666  57.545 -53.166  1.00  0.00     0.030 A 
BRANCH  22  26
HETATM   26  O   UNL     1     -41.234  54.975 -49.941  1.00  0.00    -0.360 OA
HETATM   27  H   UNL     1     -40.331  54.622 -49.892  1.00  0.00     0.217 HD
ENDBRANCH  22  26
BRANCH  23  28
HETATM   28  C   UNL     1     -40.624  53.971 -52.637  1.00  0.00     0.183 A 
HETATM   29  O   UNL     1     -40.192  53.166 -51.613  1.00  0.00    -0.289 OA
HETATM   30  C   UNL     1     -39.981  51.956 -52.203  1.00  0.00     0.106 A 
HETATM   31  C   UNL     1     -40.276  52.084 -53.549  1.00  0.00     0.093 A 
HETATM   32  C   UNL     1     -39.562  50.781 -51.593  1.00  0.00     0.040 A 
HETATM   33  N   UNL     1     -40.665  53.372 -53.818  1.00  0.00    -0.221 NA
HETATM   34  C   UNL     1     -40.159  50.962 -54.380  1.00  0.00     0.034 A 
HETATM   35  C   UNL     1     -39.747  49.752 -53.801  1.00  0.00     0.002 A 
HETATM   36  C   UNL     1     -39.454  49.666 -52.433  1.00  0.00     0.003 A 
ENDBRANCH  23  28
ENDBRANCH   1  20
TORSDOF 10
ENDMDL
MODEL 7
REMARK VINA RESULT:      -7.3      3.193      8.314
REMARK  10 active torsions:
REMARK  status: ('A' for Active; 'I' for Inactive)
REMARK    1  A    between atoms: C_2  and  C_3 
REMARK    2  A    between atoms: C_3  and  C_4 
REMARK    3  A    between atoms: C_4  and  O_5 
REMARK    4  A    between atoms: O_5  and  C_6 
REMARK    5  A    between atoms: C_8  and  C_9 
REMARK       I    between atoms: C_9  and  N_10 
REMARK    6  A    between atoms: N_10  and  C_11 
REMARK    7  A    between atoms: C_11  and  N_12 
REMARK    8  A    between atoms: N_12  and  C_13 
REMARK    9  A    between atoms: C_15  and  O_16 
REMARK   10  A    between atoms: C_17  and  C_18 
ROOT
HETATM    1  N   UNL     1     -43.249  59.043 -51.476  1.00  0.00    -0.333 N 
HETATM    2  H   UNL     1     -43.245  59.489 -50.562  1.00  0.00     0.168 HD
ENDROOT
BRANCH   1   3
HETATM    3  C   UNL     1     -43.413  59.956 -52.483  1.00  0.00     0.179 C 
HETATM    4  S   UNL     1     -43.853  61.506 -52.028  1.00  0.00    -0.040 SA
BRANCH   3   5
HETATM    5  N   UNL     1     -43.286  59.501 -53.771  1.00  0.00    -0.299 N 
HETATM    6  C   UNL     1     -44.244  58.793 -54.485  1.00  0.00     0.257 C 
HETATM    7  O   UNL     1     -45.431  59.101 -54.530  1.00  0.00    -0.267 OA
HETATM    8  H   UNL     1     -42.322  59.378 -54.049  1.00  0.00     0.171 HD
BRANCH   6   9
HETATM    9  C   UNL     1     -43.731  57.746 -55.404  1.00  0.00     0.035 A 
HETATM   10  C   UNL     1     -43.387  58.040 -56.728  1.00  0.00     0.053 A 
HETATM   11  C   UNL     1     -42.890  57.036 -57.566  1.00  0.00     0.069 A 
HETATM   12  C   UNL     1     -42.734  55.741 -57.071  1.00  0.00     0.037 A 
HETATM   13  C   UNL     1     -43.056  55.451 -55.743  1.00  0.00     0.004 A 
HETATM   14  C   UNL     1     -43.548  56.451 -54.908  1.00  0.00     0.017 A 
BRANCH  11  15
HETATM   15  O   UNL     1     -42.566  57.465 -58.822  1.00  0.00    -0.351 OA
BRANCH  15  16
HETATM   16  C   UNL     1     -43.155  56.819 -59.948  1.00  0.00     0.175 C 
BRANCH  16  17
HETATM   17  C   UNL     1     -44.669  57.029 -60.054  1.00  0.00     0.026 C 
BRANCH  17  18
HETATM   18  C   UNL     1     -45.493  55.740 -60.071  1.00  0.00    -0.002 C 
HETATM   19  C   UNL     1     -44.657  54.476 -59.926  1.00  0.00     0.005 C 
ENDBRANCH  17  18
ENDBRANCH  16  17
ENDBRANCH  15  16
ENDBRANCH  11  15
ENDBRANCH   6   9
ENDBRANCH   3   5
ENDBRANCH   1   3
BRANCH   1  20
HETATM   20  C   UNL     1     -42.831  57.693 -51.479  1.00  0.00     0.036 A 
HETATM   21  C   UNL     1     -43.659  56.595 -51.242  1.00  0.00     0.067 A 
HETATM   22  C   UNL     1     -43.167  55.284 -51.376  1.00  0.00     0.082 A 
HETATM   23  C   UNL     1     -41.843  55.036 -51.770  1.00  0.00     0.050 A 
HETATM   24  C   UNL     1     -41.017  56.152 -51.985  1.00  0.00     0.021 A 
HETATM   25  C   UNL     1     -41.501  57.457 -51.840  1.00  0.00     0.030 A 
BRANCH  22  26
HETATM   26  O   UNL     1     -44.026  54.243 -51.139  1.00  0.00    -0.360 OA
HETATM   27  H   UNL     1     -43.924  53.922 -50.229  1.00  0.00     0.217 HD
ENDBRANCH  22  26
BRANCH  23  28
HETATM   28  C   UNL     1     -41.280  53.709 -52.045  1.00  0.00     0.183 A 
HETATM   29  O   UNL     1     -41.288  53.260 -53.342  1.00  0.00    -0.289 OA
HETATM   30  C   UNL     1     -40.625  52.071 -53.290  1.00  0.00     0.106 A 
HETATM   31  C   UNL     1     -40.261  51.846 -51.975  1.00  0.00     0.093 A 
HETATM   32  C   UNL     1     -40.333  51.220 -54.349  1.00  0.00     0.040 A 
HETATM   33  N   UNL     1     -40.698  52.882 -51.189  1.00  0.00    -0.221 NA
HETATM   34  C   UNL     1     -39.540  50.687 -51.658  1.00  0.00     0.034 A 
HETATM   35  C   UNL     1     -39.217  49.805 -52.701  1.00  0.00     0.002 A 
HETATM   36  C   UNL     1     -39.608  50.068 -54.020  1.00  0.00     0.003 A 
ENDBRANCH  23  28
ENDBRANCH   1  20
TORSDOF 10
ENDMDL
MODEL 8
REMARK VINA RESULT:      -7.3      3.114      7.426
REMARK  10 active torsions:
REMARK  status: ('A' for Active; 'I' for Inactive)
REMARK    1  A    between atoms: C_2  and  C_3 
REMARK    2  A    between atoms: C_3  and  C_4 
REMARK    3  A    between atoms: C_4  and  O_5 
REMARK    4  A    between atoms: O_5  and  C_6 
REMARK    5  A    between atoms: C_8  and  C_9 
REMARK       I    between atoms: C_9  and  N_10 
REMARK    6  A    between atoms: N_10  and  C_11 
REMARK    7  A    between atoms: C_11  and  N_12 
REMARK    8  A    between atoms: N_12  and  C_13 
REMARK    9  A    between atoms: C_15  and  O_16 
REMARK   10  A    between atoms: C_17  and  C_18 
ROOT
HETATM    1  N   UNL     1     -43.632  61.390 -51.959  1.00  0.00    -0.333 N 
HETATM    2  H   UNL     1     -43.789  62.394 -52.015  1.00  0.00     0.168 HD
ENDROOT
BRANCH   1   3
HETATM    3  C   UNL     1     -43.690  60.940 -50.667  1.00  0.00     0.179 C 
HETATM    4  S   UNL     1     -44.304  62.003 -49.528  1.00  0.00    -0.040 SA
BRANCH   3   5
HETATM    5  N   UNL     1     -43.166  59.699 -50.409  1.00  0.00    -0.299 N 
HETATM    6  C   UNL     1     -41.926  59.233 -50.828  1.00  0.00     0.257 C 
HETATM    7  O   UNL     1     -40.887  59.879 -50.739  1.00  0.00    -0.267 OA
HETATM    8  H   UNL     1     -43.877  59.006 -50.220  1.00  0.00     0.171 HD
BRANCH   6   9
HETATM    9  C   UNL     1     -41.858  57.796 -51.194  1.00  0.00     0.035 A 
HETATM   10  C   UNL     1     -42.461  57.309 -52.358  1.00  0.00     0.053 A 
HETATM   11  C   UNL     1     -42.367  55.952 -52.686  1.00  0.00     0.069 A 
HETATM   12  C   UNL     1     -41.662  55.089 -51.847  1.00  0.00     0.037 A 
HETATM   13  C   UNL     1     -41.040  55.578 -50.695  1.00  0.00     0.004 A 
HETATM   14  C   UNL     1     -41.133  56.929 -50.371  1.00  0.00     0.017 A 
BRANCH  11  15
HETATM   15  O   UNL     1     -42.974  55.617 -53.863  1.00  0.00    -0.351 OA
BRANCH  15  16
HETATM   16  C   UNL     1     -42.602  54.405 -54.515  1.00  0.00     0.175 C 
BRANCH  16  17
HETATM   17  C   UNL     1     -41.443  54.571 -55.503  1.00  0.00     0.026 C 
BRANCH  17  18
HETATM   18  C   UNL     1     -40.123  53.943 -55.049  1.00  0.00    -0.002 C 
HETATM   19  C   UNL     1     -40.292  52.612 -54.331  1.00  0.00     0.005 C 
ENDBRANCH  17  18
ENDBRANCH  16  17
ENDBRANCH  15  16
ENDBRANCH  11  15
ENDBRANCH   6   9
ENDBRANCH   3   5
ENDBRANCH   1   3
BRANCH   1  20
HETATM   20  C   UNL     1     -43.664  60.715 -53.200  1.00  0.00     0.036 A 
HETATM   21  C   UNL     1     -42.606  60.653 -54.108  1.00  0.00     0.067 A 
HETATM   22  C   UNL     1     -42.703  59.863 -55.268  1.00  0.00     0.082 A 
HETATM   23  C   UNL     1     -43.849  59.099 -55.540  1.00  0.00     0.050 A 
HETATM   24  C   UNL     1     -44.912  59.188 -54.626  1.00  0.00     0.021 A 
HETATM   25  C   UNL     1     -44.822  59.983 -53.478  1.00  0.00     0.030 A 
BRANCH  22  26
HETATM   26  O   UNL     1     -41.632  59.832 -56.121  1.00  0.00    -0.360 OA
HETATM   27  H   UNL     1     -40.801  59.841 -55.621  1.00  0.00     0.217 HD
ENDBRANCH  22  26
BRANCH  23  28
HETATM   28  C   UNL     1     -43.990  58.161 -56.660  1.00  0.00     0.183 A 
HETATM   29  O   UNL     1     -45.128  58.234 -57.425  1.00  0.00    -0.289 OA
HETATM   30  C   UNL     1     -44.923  57.326 -58.419  1.00  0.00     0.106 A 
HETATM   31  C   UNL     1     -43.690  56.736 -58.206  1.00  0.00     0.093 A 
HETATM   32  C   UNL     1     -45.769  57.031 -59.480  1.00  0.00     0.040 A 
HETATM   33  N   UNL     1     -43.114  57.259 -57.077  1.00  0.00    -0.221 NA
HETATM   34  C   UNL     1     -43.233  55.771 -59.114  1.00  0.00     0.034 A 
HETATM   35  C   UNL     1     -44.054  55.451 -60.206  1.00  0.00     0.002 A 
HETATM   36  C   UNL     1     -45.299  56.070 -60.383  1.00  0.00     0.003 A 
ENDBRANCH  23  28
ENDBRANCH   1  20
TORSDOF 10
ENDMDL
MODEL 9
REMARK VINA RESULT:      -7.3      4.387      7.747
REMARK  10 active torsions:
REMARK  status: ('A' for Active; 'I' for Inactive)
REMARK    1  A    between atoms: C_2  and  C_3 
REMARK    2  A    between atoms: C_3  and  C_4 
REMARK    3  A    between atoms: C_4  and  O_5 
REMARK    4  A    between atoms: O_5  and  C_6 
REMARK    5  A    between atoms: C_8  and  C_9 
REMARK       I    between atoms: C_9  and  N_10 
REMARK    6  A    between atoms: N_10  and  C_11 
REMARK    7  A    between atoms: C_11  and  N_12 
REMARK    8  A    between atoms: N_12  and  C_13 
REMARK    9  A    between atoms: C_15  and  O_16 
REMARK   10  A    between atoms: C_17  and  C_18 
ROOT
HETATM    1  N   UNL     1     -41.867  56.373 -55.944  1.00  0.00    -0.333 N 
HETATM    2  H   UNL     1     -40.924  56.732 -56.073  1.00  0.00     0.168 HD
ENDROOT
BRANCH   1   3
HETATM    3  C   UNL     1     -42.088  55.989 -54.649  1.00  0.00     0.179 C 
HETATM    4  S   UNL     1     -43.470  56.584 -53.913  1.00  0.00    -0.040 SA
BRANCH   3   5
HETATM    5  N   UNL     1     -41.122  55.224 -54.046  1.00  0.00    -0.299 N 
HETATM    6  C   UNL     1     -40.623  54.016 -54.520  1.00  0.00     0.257 C 
HETATM    7  O   UNL     1     -40.293  53.823 -55.685  1.00  0.00    -0.267 OA
HETATM    8  H   UNL     1     -41.056  55.390 -53.052  1.00  0.00     0.171 HD
BRANCH   6   9
HETATM    9  C   UNL     1     -40.283  53.003 -53.490  1.00  0.00     0.035 A 
HETATM   10  C   UNL     1     -40.363  53.293 -52.124  1.00  0.00     0.053 A 
HETATM   11  C   UNL     1     -40.052  52.312 -51.175  1.00  0.00     0.069 A 
HETATM   12  C   UNL     1     -39.666  51.041 -51.602  1.00  0.00     0.037 A 
HETATM   13  C   UNL     1     -39.607  50.743 -52.965  1.00  0.00     0.004 A 
HETATM   14  C   UNL     1     -39.920  51.719 -53.909  1.00  0.00     0.017 A 
BRANCH  11  15
HETATM   15  O   UNL     1     -40.200  52.719 -49.880  1.00  0.00    -0.351 OA
BRANCH  15  16
HETATM   16  C   UNL     1     -39.890  54.067 -49.537  1.00  0.00     0.175 C 
BRANCH  16  17
HETATM   17  C   UNL     1     -41.093  54.862 -49.021  1.00  0.00     0.026 C 
BRANCH  17  18
HETATM   18  C   UNL     1     -41.946  55.510 -50.115  1.00  0.00    -0.002 C 
HETATM   19  C   UNL     1     -41.566  56.952 -50.415  1.00  0.00     0.005 C 
ENDBRANCH  17  18
ENDBRANCH  16  17
ENDBRANCH  15  16
ENDBRANCH  11  15
ENDBRANCH   6   9
ENDBRANCH   3   5
ENDBRANCH   1   3
BRANCH   1  20
HETATM   20  C   UNL     1     -42.744  56.609 -57.026  1.00  0.00     0.036 A 
HETATM   21  C   UNL     1     -43.096  55.667 -57.995  1.00  0.00     0.067 A 
HETATM   22  C   UNL     1     -44.064  55.970 -58.970  1.00  0.00     0.082 A 
HETATM   23  C   UNL     1     -44.720  57.211 -58.990  1.00  0.00     0.050 A 
HETATM   24  C   UNL     1     -44.340  58.153 -58.021  1.00  0.00     0.021 A 
HETATM   25  C   UNL     1     -43.368  57.859 -57.057  1.00  0.00     0.030 A 
BRANCH  22  26
HETATM   26  O   UNL     1     -44.377  55.006 -59.892  1.00  0.00    -0.360 OA
HETATM   27  H   UNL     1     -43.903  55.166 -60.723  1.00  0.00     0.217 HD
ENDBRANCH  22  26
BRANCH  23  28
HETATM   28  C   UNL     1     -45.819  57.568 -59.894  1.00  0.00     0.183 A 
HETATM   29  O   UNL     1     -46.476  56.555 -60.546  1.00  0.00    -0.289 OA
HETATM   30  C   UNL     1     -47.483  57.183 -61.215  1.00  0.00     0.106 A 
HETATM   31  C   UNL     1     -47.383  58.538 -60.956  1.00  0.00     0.093 A 
HETATM   32  C   UNL     1     -48.460  56.599 -62.011  1.00  0.00     0.040 A 
HETATM   33  N   UNL     1     -46.312  58.775 -60.132  1.00  0.00    -0.221 NA
HETATM   34  C   UNL     1     -48.326  59.409 -61.519  1.00  0.00     0.034 A 
HETATM   35  C   UNL     1     -49.337  58.858 -62.321  1.00  0.00     0.002 A 
HETATM   36  C   UNL     1     -49.400  57.479 -62.562  1.00  0.00     0.003 A 
ENDBRANCH  23  28
ENDBRANCH   1  20
TORSDOF 10
ENDMDL
MODEL 10
REMARK VINA RESULT:      -7.2      2.411      9.326
REMARK  10 active torsions:
REMARK  status: ('A' for Active; 'I' for Inactive)
REMARK    1  A    between atoms: C_2  and  C_3 
REMARK    2  A    between atoms: C_3  and  C_4 
REMARK    3  A    between atoms: C_4  and  O_5 
REMARK    4  A    between atoms: O_5  and  C_6 
REMARK    5  A    between atoms: C_8  and  C_9 
REMARK       I    between atoms: C_9  and  N_10 
REMARK    6  A    between atoms: N_10  and  C_11 
REMARK    7  A    between atoms: C_11  and  N_12 
REMARK    8  A    between atoms: N_12  and  C_13 
REMARK    9  A    between atoms: C_15  and  O_16 
REMARK   10  A    between atoms: C_17  and  C_18 
ROOT
HETATM    1  N   UNL     1     -42.280  59.220 -53.458  1.00  0.00    -0.333 N 
HETATM    2  H   UNL     1     -41.699  59.803 -54.058  1.00  0.00     0.168 HD
ENDROOT
BRANCH   1   3
HETATM    3  C   UNL     1     -43.346  59.918 -52.956  1.00  0.00     0.179 C 
HETATM    4  S   UNL     1     -44.870  59.387 -53.403  1.00  0.00    -0.040 SA
BRANCH   3   5
HETATM    5  N   UNL     1     -43.070  61.032 -52.205  1.00  0.00    -0.299 N 
HETATM    6  C   UNL     1     -42.681  61.041 -50.871  1.00  0.00     0.257 C 
HETATM    7  O   UNL     1     -41.819  60.304 -50.405  1.00  0.00    -0.267 OA
HETATM    8  H   UNL     1     -43.525  61.863 -52.557  1.00  0.00     0.171 HD
BRANCH   6   9
HETATM    9  C   UNL     1     -43.199  62.163 -50.048  1.00  0.00     0.035 A 
HETATM   10  C   UNL     1     -44.157  61.956 -49.050  1.00  0.00     0.053 A 
HETATM   11  C   UNL     1     -44.614  63.030 -48.279  1.00  0.00     0.069 A 
HETATM   12  C   UNL     1     -44.104  64.308 -48.508  1.00  0.00     0.037 A 
HETATM   13  C   UNL     1     -43.131  64.513 -49.489  1.00  0.00     0.004 A 
HETATM   14  C   UNL     1     -42.674  63.443 -50.255  1.00  0.00     0.017 A 
BRANCH  11  15
HETATM   15  O   UNL     1     -45.526  62.684 -47.322  1.00  0.00    -0.351 OA
BRANCH  15  16
HETATM   16  C   UNL     1     -46.154  61.406 -47.393  1.00  0.00     0.175 C 
BRANCH  16  17
HETATM   17  C   UNL     1     -45.927  60.541 -46.149  1.00  0.00     0.026 C 
BRANCH  17  18
HETATM   18  C   UNL     1     -46.474  59.116 -46.255  1.00  0.00    -0.002 C 
HETATM   19  C   UNL     1     -47.691  58.860 -45.378  1.00  0.00     0.005 C 
ENDBRANCH  17  18
ENDBRANCH  16  17
ENDBRANCH  15  16
ENDBRANCH  11  15
ENDBRANCH   6   9
ENDBRANCH   3   5
ENDBRANCH   1   3
BRANCH   1  20
HETATM   20  C   UNL     1     -41.996  57.838 -53.520  1.00  0.00     0.036 A 
HETATM   21  C   UNL     1     -41.794  57.111 -54.695  1.00  0.00     0.067 A 
HETATM   22  C   UNL     1     -41.408  55.759 -54.644  1.00  0.00     0.082 A 
HETATM   23  C   UNL     1     -41.193  55.105 -53.420  1.00  0.00     0.050 A 
HETATM   24  C   UNL     1     -41.419  55.845 -52.248  1.00  0.00     0.021 A 
HETATM   25  C   UNL     1     -41.816  57.186 -52.296  1.00  0.00     0.030 A 
BRANCH  22  26
HETATM   26  O   UNL     1     -41.216  55.096 -55.827  1.00  0.00    -0.360 OA
HETATM   27  H   UNL     1     -40.423  54.540 -55.778  1.00  0.00     0.217 HD
ENDBRANCH  22  26
BRANCH  23  28
HETATM   28  C   UNL     1     -40.680  53.738 -53.275  1.00  0.00     0.183 A 
HETATM   29  O   UNL     1     -40.416  53.278 -52.008  1.00  0.00    -0.289 OA
HETATM   30  C   UNL     1     -40.057  51.977 -52.192  1.00  0.00     0.106 A 
HETATM   31  C   UNL     1     -40.103  51.712 -53.549  1.00  0.00     0.093 A 
HETATM   32  C   UNL     1     -39.717  51.049 -51.215  1.00  0.00     0.040 A 
HETATM   33  N   UNL     1     -40.481  52.841 -54.229  1.00  0.00    -0.221 NA
HETATM   34  C   UNL     1     -39.795  50.421 -54.000  1.00  0.00     0.034 A 
HETATM   35  C   UNL     1     -39.454  49.452 -53.044  1.00  0.00     0.002 A 
HETATM   36  C   UNL     1     -39.416  49.763 -51.678  1.00  0.00     0.003 A 
ENDBRANCH  23  28
ENDBRANCH   1  20
TORSDOF 10
ENDMDL
