MODEL 1
REMARK VINA RESULT:      -8.3      0.000      0.000
REMARK  6 active torsions:
REMARK  status: ('A' for Active; 'I' for Inactive)
REMARK    1  A    between atoms: C_3  and  C_4 
REMARK    2  A    between atoms: C_4  and  N_5 
REMARK       I    between atoms: N_5  and  C_6 
REMARK    3  A    between atoms: C_6  and  C_7 
REMARK    4  A    between atoms: C_10  and  C_11 
REMARK    5  A    between atoms: C_11  and  N_12 
REMARK    6  A    between atoms: N_12  and  C_13 
ROOT
HETATM    1  C   UNL     1     -43.010  55.796 -54.922  1.00  0.00     0.032 A 
HETATM    2  C   UNL     1     -42.774  56.820 -55.847  1.00  0.00     0.017 A 
HETATM    3  C   UNL     1     -43.367  58.073 -55.667  1.00  0.00     0.010 A 
HETATM    4  C   UNL     1     -44.196  58.319 -54.561  1.00  0.00    -0.041 A 
HETATM    5  C   UNL     1     -44.449  57.280 -53.655  1.00  0.00     0.010 A 
HETATM    6  C   UNL     1     -43.862  56.026 -53.836  1.00  0.00     0.017 A 
ENDROOT
BRANCH   4   7
HETATM    7  C   UNL     1     -44.838  59.674 -54.378  1.00  0.00     0.160 C 
BRANCH   7   8
HETATM    8  N   UNL     1     -43.880  60.587 -53.780  1.00  0.00    -0.370 N 
HETATM    9  H   UNL     1     -43.886  61.505 -54.207  1.00  0.00     0.161 HD
BRANCH   8  10
HETATM   10  C   UNL     1     -43.578  60.519 -52.434  1.00  0.00     0.139 A 
HETATM   11  N   UNL     1     -44.452  60.945 -51.565  1.00  0.00    -0.202 NA
HETATM   12  C   UNL     1     -44.193  60.927 -50.220  1.00  0.00     0.200 A 
HETATM   13  S   UNL     1     -45.294  61.457 -49.067  1.00  0.00    -0.039 SA
HETATM   14  N   UNL     1     -42.982  60.474 -49.770  1.00  0.00    -0.331 N 
HETATM   15  C   UNL     1     -42.005  59.985 -50.633  1.00  0.00     0.048 A 
HETATM   16  H   UNL     1     -42.834  60.484 -48.770  1.00  0.00     0.168 HD
HETATM   17  C   UNL     1     -42.261  59.969 -52.002  1.00  0.00     0.036 A 
HETATM   18  C   UNL     1     -40.798  59.506 -50.126  1.00  0.00     0.030 A 
HETATM   19  C   UNL     1     -41.308  59.442 -52.879  1.00  0.00     0.017 A 
HETATM   20  C   UNL     1     -40.097  58.958 -52.375  1.00  0.00     0.001 A 
HETATM   21  C   UNL     1     -39.842  58.995 -51.003  1.00  0.00     0.002 A 
ENDBRANCH   8  10
ENDBRANCH   7   8
ENDBRANCH   4   7
BRANCH   1  22
HETATM   22  C   UNL     1     -42.406  54.445 -55.071  1.00  0.00     0.251 C 
HETATM   23  N   UNL     1     -41.096  54.314 -54.665  1.00  0.00    -0.353 N 
HETATM   24  H   UNL     1     -40.640  55.071 -54.176  1.00  0.00     0.163 HD
HETATM   25  O   UNL     1     -43.084  53.519 -55.500  1.00  0.00    -0.268 OA
BRANCH  23  26
HETATM   26  C   UNL     1     -40.401  53.043 -54.722  1.00  0.00     0.163 C 
BRANCH  26  27
HETATM   27  C   UNL     1     -40.176  52.384 -53.377  1.00  0.00    -0.019 A 
HETATM   28  C   UNL     1     -40.354  53.079 -52.168  1.00  0.00     0.010 A 
HETATM   29  C   UNL     1     -40.165  52.448 -50.934  1.00  0.00     0.001 A 
HETATM   30  C   UNL     1     -39.807  51.104 -50.885  1.00  0.00     0.002 A 
HETATM   31  C   UNL     1     -39.641  50.390 -52.069  1.00  0.00     0.024 A 
HETATM   32  C   UNL     1     -39.828  51.022 -53.304  1.00  0.00     0.042 A 
HETATM   33 CL   UNL     1     -39.619  50.058 -54.725  1.00  0.00    -0.084 Cl
ENDBRANCH  26  27
ENDBRANCH  23  26
ENDBRANCH   1  22
TORSDOF 6
ENDMDL
MODEL 2
REMARK VINA RESULT:      -8.3      4.910      8.964
REMARK  6 active torsions:
REMARK  status: ('A' for Active; 'I' for Inactive)
REMARK    1  A    between atoms: C_3  and  C_4 
REMARK    2  A    between atoms: C_4  and  N_5 
REMARK       I    between atoms: N_5  and  C_6 
REMARK    3  A    between atoms: C_6  and  C_7 
REMARK    4  A    between atoms: C_10  and  C_11 
REMARK    5  A    between atoms: C_11  and  N_12 
REMARK    6  A    between atoms: N_12  and  C_13 
ROOT
HETATM    1  C   UNL     1     -42.837  57.210 -57.915  1.00  0.00     0.032 A 
HETATM    2  C   UNL     1     -43.006  55.821 -57.948  1.00  0.00     0.017 A 
HETATM    3  C   UNL     1     -42.889  55.076 -56.771  1.00  0.00     0.010 A 
HETATM    4  C   UNL     1     -42.608  55.708 -55.549  1.00  0.00    -0.041 A 
HETATM    5  C   UNL     1     -42.413  57.096 -55.530  1.00  0.00     0.010 A 
HETATM    6  C   UNL     1     -42.524  57.842 -56.706  1.00  0.00     0.017 A 
ENDROOT
BRANCH   4   7
HETATM    7  C   UNL     1     -42.477  54.895 -54.283  1.00  0.00     0.160 C 
BRANCH   7   8
HETATM    8  N   UNL     1     -41.086  54.527 -54.086  1.00  0.00    -0.370 N 
HETATM    9  H   UNL     1     -40.438  55.229 -54.422  1.00  0.00     0.161 HD
BRANCH   8  10
HETATM   10  C   UNL     1     -40.696  53.781 -52.991  1.00  0.00     0.139 A 
HETATM   11  N   UNL     1     -40.649  54.350 -51.819  1.00  0.00    -0.202 NA
HETATM   12  C   UNL     1     -40.242  53.666 -50.705  1.00  0.00     0.200 A 
HETATM   13  S   UNL     1     -40.176  54.359 -49.177  1.00  0.00    -0.039 SA
HETATM   14  N   UNL     1     -39.852  52.358 -50.820  1.00  0.00    -0.331 N 
HETATM   15  C   UNL     1     -39.892  51.675 -52.031  1.00  0.00     0.048 A 
HETATM   16  H   UNL     1     -39.555  51.895 -49.972  1.00  0.00     0.168 HD
HETATM   17  C   UNL     1     -40.330  52.347 -53.170  1.00  0.00     0.036 A 
HETATM   18  C   UNL     1     -39.514  50.335 -52.093  1.00  0.00     0.030 A 
HETATM   19  C   UNL     1     -40.418  51.664 -54.388  1.00  0.00     0.017 A 
HETATM   20  C   UNL     1     -40.042  50.319 -54.454  1.00  0.00     0.001 A 
HETATM   21  C   UNL     1     -39.587  49.659 -53.311  1.00  0.00     0.002 A 
ENDBRANCH   8  10
ENDBRANCH   7   8
ENDBRANCH   4   7
BRANCH   1  22
HETATM   22  C   UNL     1     -42.947  58.046 -59.140  1.00  0.00     0.251 C 
HETATM   23  N   UNL     1     -42.814  59.406 -58.965  1.00  0.00    -0.353 N 
HETATM   24  H   UNL     1     -42.526  59.774 -58.070  1.00  0.00     0.163 HD
HETATM   25  O   UNL     1     -43.110  57.511 -60.231  1.00  0.00    -0.268 OA
BRANCH  23  26
HETATM   26  C   UNL     1     -42.864  60.329 -60.082  1.00  0.00     0.163 C 
BRANCH  26  27
HETATM   27  C   UNL     1     -41.719  61.319 -60.136  1.00  0.00    -0.019 A 
HETATM   28  C   UNL     1     -40.998  61.689 -58.986  1.00  0.00     0.010 A 
HETATM   29  C   UNL     1     -39.928  62.586 -59.060  1.00  0.00     0.001 A 
HETATM   30  C   UNL     1     -39.547  63.121 -60.286  1.00  0.00     0.002 A 
HETATM   31  C   UNL     1     -40.235  62.758 -61.441  1.00  0.00     0.024 A 
HETATM   32  C   UNL     1     -41.308  61.862 -61.369  1.00  0.00     0.042 A 
HETATM   33 CL   UNL     1     -42.096  61.449 -62.853  1.00  0.00    -0.084 Cl
ENDBRANCH  26  27
ENDBRANCH  23  26
ENDBRANCH   1  22
TORSDOF 6
ENDMDL
MODEL 3
REMARK VINA RESULT:      -8.2      4.600      9.205
REMARK  6 active torsions:
REMARK  status: ('A' for Active; 'I' for Inactive)
REMARK    1  A    between atoms: C_3  and  C_4 
REMARK    2  A    between atoms: C_4  and  N_5 
REMARK       I    between atoms: N_5  and  C_6 
REMARK    3  A    between atoms: C_6  and  C_7 
REMARK    4  A    between atoms: C_10  and  C_11 
REMARK    5  A    between atoms: C_11  and  N_12 
REMARK    6  A    between atoms: N_12  and  C_13 
ROOT
HETATM    1  C   UNL     1     -44.335  58.716 -51.251  1.00  0.00     0.032 A 
HETATM    2  C   UNL     1     -44.601  57.484 -51.859  1.00  0.00     0.017 A 
HETATM    3  C   UNL     1     -43.569  56.775 -52.481  1.00  0.00     0.010 A 
HETATM    4  C   UNL     1     -42.261  57.285 -52.498  1.00  0.00    -0.041 A 
HETATM    5  C   UNL     1     -42.008  58.533 -51.911  1.00  0.00     0.010 A 
HETATM    6  C   UNL     1     -43.040  59.245 -51.294  1.00  0.00     0.017 A 
ENDROOT
BRANCH   4   7
HETATM    7  C   UNL     1     -41.152  56.516 -53.178  1.00  0.00     0.160 C 
BRANCH   7   8
HETATM    8  N   UNL     1     -41.509  55.110 -53.244  1.00  0.00    -0.370 N 
HETATM    9  H   UNL     1     -41.635  54.776 -54.192  1.00  0.00     0.161 HD
BRANCH   8  10
HETATM   10  C   UNL     1     -41.022  54.209 -52.317  1.00  0.00     0.139 A 
HETATM   11  N   UNL     1     -40.977  54.552 -51.061  1.00  0.00    -0.202 NA
HETATM   12  C   UNL     1     -40.477  53.710 -50.104  1.00  0.00     0.200 A 
HETATM   13  S   UNL     1     -40.410  54.109 -48.474  1.00  0.00    -0.039 SA
HETATM   14  N   UNL     1     -39.992  52.482 -50.471  1.00  0.00    -0.331 N 
HETATM   15  C   UNL     1     -40.023  52.035 -51.788  1.00  0.00     0.048 A 
HETATM   16  H   UNL     1     -39.629  51.896 -49.732  1.00  0.00     0.168 HD
HETATM   17  C   UNL     1     -40.552  52.868 -52.771  1.00  0.00     0.036 A 
HETATM   18  C   UNL     1     -39.544  50.766 -52.109  1.00  0.00     0.030 A 
HETATM   19  C   UNL     1     -40.631  52.418 -54.093  1.00  0.00     0.017 A 
HETATM   20  C   UNL     1     -40.155  51.145 -54.419  1.00  0.00     0.001 A 
HETATM   21  C   UNL     1     -39.608  50.324 -53.431  1.00  0.00     0.002 A 
ENDBRANCH   8  10
ENDBRANCH   7   8
ENDBRANCH   4   7
BRANCH   1  22
HETATM   22  C   UNL     1     -45.399  59.510 -50.580  1.00  0.00     0.251 C 
HETATM   23  N   UNL     1     -45.060  60.791 -50.205  1.00  0.00    -0.353 N 
HETATM   24  H   UNL     1     -44.179  61.188 -50.501  1.00  0.00     0.163 HD
HETATM   25  O   UNL     1     -46.513  59.025 -50.424  1.00  0.00    -0.268 OA
BRANCH  23  26
HETATM   26  C   UNL     1     -46.015  61.682 -49.577  1.00  0.00     0.163 C 
BRANCH  26  27
HETATM   27  C   UNL     1     -45.780  61.922 -48.100  1.00  0.00    -0.019 A 
HETATM   28  C   UNL     1     -45.044  61.024 -47.307  1.00  0.00     0.010 A 
HETATM   29  C   UNL     1     -44.816  61.275 -45.950  1.00  0.00     0.001 A 
HETATM   30  C   UNL     1     -45.307  62.436 -45.361  1.00  0.00     0.002 A 
HETATM   31  C   UNL     1     -46.025  63.348 -46.130  1.00  0.00     0.024 A 
HETATM   32  C   UNL     1     -46.256  63.097 -47.487  1.00  0.00     0.042 A 
HETATM   33 CL   UNL     1     -47.141  64.291 -48.374  1.00  0.00    -0.084 Cl
ENDBRANCH  26  27
ENDBRANCH  23  26
ENDBRANCH   1  22
TORSDOF 6
ENDMDL
MODEL 4
REMARK VINA RESULT:      -8.0      4.226      7.479
REMARK  6 active torsions:
REMARK  status: ('A' for Active; 'I' for Inactive)
REMARK    1  A    between atoms: C_3  and  C_4 
REMARK    2  A    between atoms: C_4  and  N_5 
REMARK       I    between atoms: N_5  and  C_6 
REMARK    3  A    between atoms: C_6  and  C_7 
REMARK    4  A    between atoms: C_10  and  C_11 
REMARK    5  A    between atoms: C_11  and  N_12 
REMARK    6  A    between atoms: N_12  and  C_13 
ROOT
HETATM    1  C   UNL     1     -43.161  57.787 -55.558  1.00  0.00     0.032 A 
HETATM    2  C   UNL     1     -42.118  58.207 -54.723  1.00  0.00     0.017 A 
HETATM    3  C   UNL     1     -42.168  57.933 -53.353  1.00  0.00     0.010 A 
HETATM    4  C   UNL     1     -43.254  57.234 -52.803  1.00  0.00    -0.041 A 
HETATM    5  C   UNL     1     -44.307  56.841 -53.641  1.00  0.00     0.010 A 
HETATM    6  C   UNL     1     -44.261  57.119 -55.009  1.00  0.00     0.017 A 
ENDROOT
BRANCH   4   7
HETATM    7  C   UNL     1     -43.303  56.947 -51.320  1.00  0.00     0.160 C 
BRANCH   7   8
HETATM    8  N   UNL     1     -43.471  55.521 -51.108  1.00  0.00    -0.370 N 
HETATM    9  H   UNL     1     -44.225  55.124 -51.656  1.00  0.00     0.161 HD
BRANCH   8  10
HETATM   10  C   UNL     1     -42.386  54.707 -50.847  1.00  0.00     0.139 A 
HETATM   11  N   UNL     1     -41.911  54.653 -49.634  1.00  0.00    -0.202 NA
HETATM   12  C   UNL     1     -40.819  53.887 -49.325  1.00  0.00     0.200 A 
HETATM   13  S   UNL     1     -40.182  53.781 -47.775  1.00  0.00    -0.039 SA
HETATM   14  N   UNL     1     -40.193  53.173 -50.312  1.00  0.00    -0.331 N 
HETATM   15  C   UNL     1     -40.651  53.163 -51.625  1.00  0.00     0.048 A 
HETATM   16  H   UNL     1     -39.389  52.625 -50.038  1.00  0.00     0.168 HD
HETATM   17  C   UNL     1     -41.776  53.916 -51.954  1.00  0.00     0.036 A 
HETATM   18  C   UNL     1     -39.997  52.397 -52.590  1.00  0.00     0.030 A 
HETATM   19  C   UNL     1     -42.275  53.884 -53.259  1.00  0.00     0.017 A 
HETATM   20  C   UNL     1     -41.625  53.116 -54.229  1.00  0.00     0.001 A 
HETATM   21  C   UNL     1     -40.487  52.379 -53.896  1.00  0.00     0.002 A 
ENDBRANCH   8  10
ENDBRANCH   7   8
ENDBRANCH   4   7
BRANCH   1  22
HETATM   22  C   UNL     1     -43.156  58.058 -57.020  1.00  0.00     0.251 C 
HETATM   23  N   UNL     1     -43.400  56.979 -57.841  1.00  0.00    -0.353 N 
HETATM   24  H   UNL     1     -43.694  56.098 -57.444  1.00  0.00     0.163 HD
HETATM   25  O   UNL     1     -42.979  59.199 -57.428  1.00  0.00    -0.268 OA
BRANCH  23  26
HETATM   26  C   UNL     1     -43.461  57.113 -59.283  1.00  0.00     0.163 C 
BRANCH  26  27
HETATM   27  C   UNL     1     -44.862  57.179 -59.854  1.00  0.00    -0.019 A 
HETATM   28  C   UNL     1     -45.504  58.403 -60.115  1.00  0.00     0.010 A 
HETATM   29  C   UNL     1     -46.789  58.444 -60.665  1.00  0.00     0.001 A 
HETATM   30  C   UNL     1     -47.454  57.262 -60.978  1.00  0.00     0.002 A 
HETATM   31  C   UNL     1     -46.832  56.038 -60.744  1.00  0.00     0.024 A 
HETATM   32  C   UNL     1     -45.547  55.996 -60.191  1.00  0.00     0.042 A 
HETATM   33 CL   UNL     1     -44.841  54.435 -59.949  1.00  0.00    -0.084 Cl
ENDBRANCH  26  27
ENDBRANCH  23  26
ENDBRANCH   1  22
TORSDOF 6
ENDMDL
MODEL 5
REMARK VINA RESULT:      -7.9      4.390      6.661
REMARK  6 active torsions:
REMARK  status: ('A' for Active; 'I' for Inactive)
REMARK    1  A    between atoms: C_3  and  C_4 
REMARK    2  A    between atoms: C_4  and  N_5 
REMARK       I    between atoms: N_5  and  C_6 
REMARK    3  A    between atoms: C_6  and  C_7 
REMARK    4  A    between atoms: C_10  and  C_11 
REMARK    5  A    between atoms: C_11  and  N_12 
REMARK    6  A    between atoms: N_12  and  C_13 
ROOT
HETATM    1  C   UNL     1     -43.464  57.587 -54.237  1.00  0.00     0.032 A 
HETATM    2  C   UNL     1     -44.790  57.833 -54.613  1.00  0.00     0.017 A 
HETATM    3  C   UNL     1     -45.064  58.693 -55.680  1.00  0.00     0.010 A 
HETATM    4  C   UNL     1     -44.020  59.312 -56.386  1.00  0.00    -0.041 A 
HETATM    5  C   UNL     1     -42.696  59.081 -55.986  1.00  0.00     0.010 A 
HETATM    6  C   UNL     1     -42.421  58.226 -54.916  1.00  0.00     0.017 A 
ENDROOT
BRANCH   4   7
HETATM    7  C   UNL     1     -44.325  60.245 -57.534  1.00  0.00     0.160 C 
BRANCH   7   8
HETATM    8  N   UNL     1     -43.942  59.615 -58.785  1.00  0.00    -0.370 N 
HETATM    9  H   UNL     1     -42.971  59.330 -58.805  1.00  0.00     0.161 HD
BRANCH   8  10
HETATM   10  C   UNL     1     -44.841  58.844 -59.497  1.00  0.00     0.139 A 
HETATM   11  N   UNL     1     -45.847  59.425 -60.087  1.00  0.00    -0.202 NA
HETATM   12  C   UNL     1     -46.783  58.707 -60.782  1.00  0.00     0.200 A 
HETATM   13  S   UNL     1     -48.090  59.417 -61.564  1.00  0.00    -0.039 SA
HETATM   14  N   UNL     1     -46.679  57.343 -60.846  1.00  0.00    -0.331 N 
HETATM   15  C   UNL     1     -45.623  56.652 -60.259  1.00  0.00     0.048 A 
HETATM   16  H   UNL     1     -47.395  56.854 -61.366  1.00  0.00     0.168 HD
HETATM   17  C   UNL     1     -44.647  57.368 -59.571  1.00  0.00     0.036 A 
HETATM   18  C   UNL     1     -45.543  55.264 -60.376  1.00  0.00     0.030 A 
HETATM   19  C   UNL     1     -43.556  56.694 -59.013  1.00  0.00     0.017 A 
HETATM   20  C   UNL     1     -43.470  55.303 -59.129  1.00  0.00     0.001 A 
HETATM   21  C   UNL     1     -44.463  54.591 -59.805  1.00  0.00     0.002 A 
ENDBRANCH   8  10
ENDBRANCH   7   8
ENDBRANCH   4   7
BRANCH   1  22
HETATM   22  C   UNL     1     -43.121  56.683 -53.106  1.00  0.00     0.251 C 
HETATM   23  N   UNL     1     -41.884  56.078 -53.162  1.00  0.00    -0.353 N 
HETATM   24  H   UNL     1     -41.219  56.354 -53.870  1.00  0.00     0.163 HD
HETATM   25  O   UNL     1     -43.908  56.543 -52.178  1.00  0.00    -0.268 OA
BRANCH  23  26
HETATM   26  C   UNL     1     -41.412  55.205 -52.107  1.00  0.00     0.163 C 
BRANCH  26  27
HETATM   27  C   UNL     1     -40.832  53.890 -52.585  1.00  0.00    -0.019 A 
HETATM   28  C   UNL     1     -40.914  53.485 -53.930  1.00  0.00     0.010 A 
HETATM   29  C   UNL     1     -40.351  52.278 -54.358  1.00  0.00     0.001 A 
HETATM   30  C   UNL     1     -39.684  51.458 -53.454  1.00  0.00     0.002 A 
HETATM   31  C   UNL     1     -39.576  51.845 -52.121  1.00  0.00     0.024 A 
HETATM   32  C   UNL     1     -40.141  53.051 -51.690  1.00  0.00     0.042 A 
HETATM   33 CL   UNL     1     -39.945  53.465 -50.022  1.00  0.00    -0.084 Cl
ENDBRANCH  26  27
ENDBRANCH  23  26
ENDBRANCH   1  22
TORSDOF 6
ENDMDL
MODEL 6
REMARK VINA RESULT:      -7.8      3.327      5.368
REMARK  6 active torsions:
REMARK  status: ('A' for Active; 'I' for Inactive)
REMARK    1  A    between atoms: C_3  and  C_4 
REMARK    2  A    between atoms: C_4  and  N_5 
REMARK       I    between atoms: N_5  and  C_6 
REMARK    3  A    between atoms: C_6  and  C_7 
REMARK    4  A    between atoms: C_10  and  C_11 
REMARK    5  A    between atoms: C_11  and  N_12 
REMARK    6  A    between atoms: N_12  and  C_13 
ROOT
HETATM    1  C   UNL     1     -42.467  56.154 -52.613  1.00  0.00     0.032 A 
HETATM    2  C   UNL     1     -43.120  55.482 -53.653  1.00  0.00     0.017 A 
HETATM    3  C   UNL     1     -44.077  56.150 -54.422  1.00  0.00     0.010 A 
HETATM    4  C   UNL     1     -44.390  57.494 -54.166  1.00  0.00    -0.041 A 
HETATM    5  C   UNL     1     -43.752  58.151 -53.104  1.00  0.00     0.010 A 
HETATM    6  C   UNL     1     -42.799  57.484 -52.331  1.00  0.00     0.017 A 
ENDROOT
BRANCH   4   7
HETATM    7  C   UNL     1     -45.432  58.206 -54.997  1.00  0.00     0.160 C 
BRANCH   7   8
HETATM    8  N   UNL     1     -45.299  57.804 -56.386  1.00  0.00    -0.370 N 
HETATM    9  H   UNL     1     -46.145  57.393 -56.763  1.00  0.00     0.161 HD
BRANCH   8  10
HETATM   10  C   UNL     1     -44.500  58.515 -57.259  1.00  0.00     0.139 A 
HETATM   11  N   UNL     1     -44.511  59.818 -57.212  1.00  0.00    -0.202 NA
HETATM   12  C   UNL     1     -43.761  60.573 -58.073  1.00  0.00     0.200 A 
HETATM   13  S   UNL     1     -43.739  62.252 -58.040  1.00  0.00    -0.039 SA
HETATM   14  N   UNL     1     -42.994  59.954 -59.024  1.00  0.00    -0.331 N 
HETATM   15  C   UNL     1     -42.914  58.568 -59.126  1.00  0.00     0.048 A 
HETATM   16  H   UNL     1     -42.461  60.551 -59.641  1.00  0.00     0.168 HD
HETATM   17  C   UNL     1     -43.649  57.783 -58.241  1.00  0.00     0.036 A 
HETATM   18  C   UNL     1     -42.096  57.982 -60.091  1.00  0.00     0.030 A 
HETATM   19  C   UNL     1     -43.547  56.389 -58.300  1.00  0.00     0.017 A 
HETATM   20  C   UNL     1     -42.727  55.797 -59.265  1.00  0.00     0.001 A 
HETATM   21  C   UNL     1     -42.008  56.592 -60.161  1.00  0.00     0.002 A 
ENDBRANCH   8  10
ENDBRANCH   7   8
ENDBRANCH   4   7
BRANCH   1  22
HETATM   22  C   UNL     1     -41.444  55.487 -51.764  1.00  0.00     0.251 C 
HETATM   23  N   UNL     1     -41.087  54.208 -52.128  1.00  0.00    -0.353 N 
HETATM   24  H   UNL     1     -41.417  53.821 -53.001  1.00  0.00     0.163 HD
HETATM   25  O   UNL     1     -40.944  56.094 -50.824  1.00  0.00    -0.268 OA
BRANCH  23  26
HETATM   26  C   UNL     1     -40.075  53.462 -51.408  1.00  0.00     0.163 C 
BRANCH  26  27
HETATM   27  C   UNL     1     -39.881  52.037 -51.884  1.00  0.00    -0.019 A 
HETATM   28  C   UNL     1     -39.780  50.958 -50.987  1.00  0.00     0.010 A 
HETATM   29  C   UNL     1     -39.625  49.646 -51.446  1.00  0.00     0.001 A 
HETATM   30  C   UNL     1     -39.581  49.384 -52.812  1.00  0.00     0.002 A 
HETATM   31  C   UNL     1     -39.695  50.434 -53.720  1.00  0.00     0.024 A 
HETATM   32  C   UNL     1     -39.848  51.747 -53.262  1.00  0.00     0.042 A 
HETATM   33 CL   UNL     1     -40.000  52.990 -54.457  1.00  0.00    -0.084 Cl
ENDBRANCH  26  27
ENDBRANCH  23  26
ENDBRANCH   1  22
TORSDOF 6
ENDMDL
MODEL 7
REMARK VINA RESULT:      -7.6     16.977     19.805
REMARK  6 active torsions:
REMARK  status: ('A' for Active; 'I' for Inactive)
REMARK    1  A    between atoms: C_3  and  C_4 
REMARK    2  A    between atoms: C_4  and  N_5 
REMARK       I    between atoms: N_5  and  C_6 
REMARK    3  A    between atoms: C_6  and  C_7 
REMARK    4  A    between atoms: C_10  and  C_11 
REMARK    5  A    between atoms: C_11  and  N_12 
REMARK    6  A    between atoms: N_12  and  C_13 
ROOT
HETATM    1  C   UNL     1     -33.631  39.466 -50.492  1.00  0.00     0.032 A 
HETATM    2  C   UNL     1     -34.626  38.903 -51.300  1.00  0.00     0.017 A 
HETATM    3  C   UNL     1     -35.413  39.726 -52.111  1.00  0.00     0.010 A 
HETATM    4  C   UNL     1     -35.213  41.115 -52.128  1.00  0.00    -0.041 A 
HETATM    5  C   UNL     1     -34.233  41.673 -51.295  1.00  0.00     0.010 A 
HETATM    6  C   UNL     1     -33.449  40.853 -50.480  1.00  0.00     0.017 A 
ENDROOT
BRANCH   4   7
HETATM    7  C   UNL     1     -36.073  41.998 -53.003  1.00  0.00     0.160 C 
BRANCH   7   8
HETATM    8  N   UNL     1     -35.262  42.561 -54.067  1.00  0.00    -0.370 N 
HETATM    9  H   UNL     1     -34.447  43.056 -53.726  1.00  0.00     0.161 HD
BRANCH   8  10
HETATM   10  C   UNL     1     -35.149  41.925 -55.288  1.00  0.00     0.139 A 
HETATM   11  N   UNL     1     -36.035  42.165 -56.214  1.00  0.00    -0.202 NA
HETATM   12  C   UNL     1     -35.987  41.541 -57.431  1.00  0.00     0.200 A 
HETATM   13  S   UNL     1     -37.102  41.829 -58.654  1.00  0.00    -0.039 SA
HETATM   14  N   UNL     1     -35.002  40.624 -57.683  1.00  0.00    -0.331 N 
HETATM   15  C   UNL     1     -34.009  40.327 -56.754  1.00  0.00     0.048 A 
HETATM   16  H   UNL     1     -35.009  40.185 -58.594  1.00  0.00     0.168 HD
HETATM   17  C   UNL     1     -34.025  40.973 -55.520  1.00  0.00     0.036 A 
HETATM   18  C   UNL     1     -33.008  39.408 -57.067  1.00  0.00     0.030 A 
HETATM   19  C   UNL     1     -33.011  40.719 -54.591  1.00  0.00     0.017 A 
HETATM   20  C   UNL     1     -32.004  39.800 -54.901  1.00  0.00     0.001 A 
HETATM   21  C   UNL     1     -32.006  39.143 -56.133  1.00  0.00     0.002 A 
ENDBRANCH   8  10
ENDBRANCH   7   8
ENDBRANCH   4   7
BRANCH   1  22
HETATM   22  C   UNL     1     -32.769  38.634 -49.609  1.00  0.00     0.251 C 
HETATM   23  N   UNL     1     -32.899  38.846 -48.254  1.00  0.00    -0.353 N 
HETATM   24  H   UNL     1     -33.638  39.439 -47.904  1.00  0.00     0.163 HD
HETATM   25  O   UNL     1     -32.027  37.792 -50.101  1.00  0.00    -0.268 OA
BRANCH  23  26
HETATM   26  C   UNL     1     -32.146  38.076 -47.284  1.00  0.00     0.163 C 
BRANCH  26  27
HETATM   27  C   UNL     1     -31.317  38.905 -46.325  1.00  0.00    -0.019 A 
HETATM   28  C   UNL     1     -30.524  39.981 -46.762  1.00  0.00     0.010 A 
HETATM   29  C   UNL     1     -29.784  40.750 -45.859  1.00  0.00     0.001 A 
HETATM   30  C   UNL     1     -29.832  40.468 -44.497  1.00  0.00     0.002 A 
HETATM   31  C   UNL     1     -30.623  39.417 -44.038  1.00  0.00     0.024 A 
HETATM   32  C   UNL     1     -31.362  38.645 -44.942  1.00  0.00     0.042 A 
HETATM   33 CL   UNL     1     -32.332  37.371 -44.286  1.00  0.00    -0.084 Cl
ENDBRANCH  26  27
ENDBRANCH  23  26
ENDBRANCH   1  22
TORSDOF 6
ENDMDL
MODEL 8
REMARK VINA RESULT:      -7.6      4.301      6.620
REMARK  6 active torsions:
REMARK  status: ('A' for Active; 'I' for Inactive)
REMARK    1  A    between atoms: C_3  and  C_4 
REMARK    2  A    between atoms: C_4  and  N_5 
REMARK       I    between atoms: N_5  and  C_6 
REMARK    3  A    between atoms: C_6  and  C_7 
REMARK    4  A    between atoms: C_10  and  C_11 
REMARK    5  A    between atoms: C_11  and  N_12 
REMARK    6  A    between atoms: N_12  and  C_13 
ROOT
HETATM    1  C   UNL     1     -43.515  56.419 -55.045  1.00  0.00     0.032 A 
HETATM    2  C   UNL     1     -44.687  57.184 -54.984  1.00  0.00     0.017 A 
HETATM    3  C   UNL     1     -44.796  58.354 -55.741  1.00  0.00     0.010 A 
HETATM    4  C   UNL     1     -43.742  58.771 -56.569  1.00  0.00    -0.041 A 
HETATM    5  C   UNL     1     -42.562  58.014 -56.604  1.00  0.00     0.010 A 
HETATM    6  C   UNL     1     -42.449  56.848 -55.844  1.00  0.00     0.017 A 
ENDROOT
BRANCH   4   7
HETATM    7  C   UNL     1     -43.866  60.041 -57.379  1.00  0.00     0.160 C 
BRANCH   7   8
HETATM    8  N   UNL     1     -43.881  59.713 -58.793  1.00  0.00    -0.370 N 
HETATM    9  H   UNL     1     -42.979  59.412 -59.141  1.00  0.00     0.161 HD
BRANCH   8  10
HETATM   10  C   UNL     1     -45.001  59.160 -59.383  1.00  0.00     0.139 A 
HETATM   11  N   UNL     1     -46.062  59.899 -59.548  1.00  0.00    -0.202 NA
HETATM   12  C   UNL     1     -47.209  59.395 -60.101  1.00  0.00     0.200 A 
HETATM   13  S   UNL     1     -48.594  60.315 -60.339  1.00  0.00    -0.039 SA
HETATM   14  N   UNL     1     -47.258  58.078 -60.473  1.00  0.00    -0.331 N 
HETATM   15  C   UNL     1     -46.162  57.230 -60.347  1.00  0.00     0.048 A 
HETATM   16  H   UNL     1     -48.126  57.749 -60.872  1.00  0.00     0.168 HD
HETATM   17  C   UNL     1     -44.978  57.732 -59.812  1.00  0.00     0.036 A 
HETATM   18  C   UNL     1     -46.250  55.903 -60.768  1.00  0.00     0.030 A 
HETATM   19  C   UNL     1     -43.853  56.906 -59.719  1.00  0.00     0.017 A 
HETATM   20  C   UNL     1     -43.936  55.576 -60.141  1.00  0.00     0.001 A 
HETATM   21  C   UNL     1     -45.133  55.075 -60.659  1.00  0.00     0.002 A 
ENDBRANCH   8  10
ENDBRANCH   7   8
ENDBRANCH   4   7
BRANCH   1  22
HETATM   22  C   UNL     1     -43.349  55.169 -54.257  1.00  0.00     0.251 C 
HETATM   23  N   UNL     1     -43.399  55.300 -52.887  1.00  0.00    -0.353 N 
HETATM   24  H   UNL     1     -43.669  56.181 -52.473  1.00  0.00     0.163 HD
HETATM   25  O   UNL     1     -43.214  54.097 -54.836  1.00  0.00    -0.268 OA
BRANCH  23  26
HETATM   26  C   UNL     1     -43.288  54.155 -52.005  1.00  0.00     0.163 C 
BRANCH  26  27
HETATM   27  C   UNL     1     -42.088  54.182 -51.081  1.00  0.00    -0.019 A 
HETATM   28  C   UNL     1     -42.151  54.746 -49.794  1.00  0.00     0.010 A 
HETATM   29  C   UNL     1     -41.039  54.741 -48.946  1.00  0.00     0.001 A 
HETATM   30  C   UNL     1     -39.845  54.159 -49.361  1.00  0.00     0.002 A 
HETATM   31  C   UNL     1     -39.764  53.579 -50.625  1.00  0.00     0.024 A 
HETATM   32  C   UNL     1     -40.875  53.586 -51.476  1.00  0.00     0.042 A 
HETATM   33 CL   UNL     1     -40.694  52.829 -53.021  1.00  0.00    -0.084 Cl
ENDBRANCH  26  27
ENDBRANCH  23  26
ENDBRANCH   1  22
TORSDOF 6
ENDMDL
MODEL 9
REMARK VINA RESULT:      -7.6      4.027      6.068
REMARK  6 active torsions:
REMARK  status: ('A' for Active; 'I' for Inactive)
REMARK    1  A    between atoms: C_3  and  C_4 
REMARK    2  A    between atoms: C_4  and  N_5 
REMARK       I    between atoms: N_5  and  C_6 
REMARK    3  A    between atoms: C_6  and  C_7 
REMARK    4  A    between atoms: C_10  and  C_11 
REMARK    5  A    between atoms: C_11  and  N_12 
REMARK    6  A    between atoms: N_12  and  C_13 
ROOT
HETATM    1  C   UNL     1     -43.028  57.853 -53.582  1.00  0.00     0.032 A 
HETATM    2  C   UNL     1     -41.944  58.460 -54.229  1.00  0.00     0.017 A 
HETATM    3  C   UNL     1     -42.166  59.504 -55.131  1.00  0.00     0.010 A 
HETATM    4  C   UNL     1     -43.468  59.958 -55.393  1.00  0.00    -0.041 A 
HETATM    5  C   UNL     1     -44.550  59.327 -54.763  1.00  0.00     0.010 A 
HETATM    6  C   UNL     1     -44.330  58.279 -53.865  1.00  0.00     0.017 A 
ENDROOT
BRANCH   4   7
HETATM    7  C   UNL     1     -43.700  61.083 -56.375  1.00  0.00     0.160 C 
BRANCH   7   8
HETATM    8  N   UNL     1     -44.269  60.548 -57.598  1.00  0.00    -0.370 N 
HETATM    9  H   UNL     1     -45.153  60.976 -57.846  1.00  0.00     0.161 HD
BRANCH   8  10
HETATM   10  C   UNL     1     -43.459  60.129 -58.636  1.00  0.00     0.139 A 
HETATM   11  N   UNL     1     -42.910  61.020 -59.412  1.00  0.00    -0.202 NA
HETATM   12  C   UNL     1     -42.121  60.660 -60.472  1.00  0.00     0.200 A 
HETATM   13  S   UNL     1     -41.388  61.776 -61.491  1.00  0.00    -0.039 SA
HETATM   14  N   UNL     1     -41.917  59.333 -60.743  1.00  0.00    -0.331 N 
HETATM   15  C   UNL     1     -42.453  58.323 -59.950  1.00  0.00     0.048 A 
HETATM   16  H   UNL     1     -41.332  59.115 -61.538  1.00  0.00     0.168 HD
HETATM   17  C   UNL     1     -43.235  58.671 -58.852  1.00  0.00     0.036 A 
HETATM   18  C   UNL     1     -42.193  56.986 -60.248  1.00  0.00     0.030 A 
HETATM   19  C   UNL     1     -43.745  57.670 -58.019  1.00  0.00     0.017 A 
HETATM   20  C   UNL     1     -43.486  56.328 -58.312  1.00  0.00     0.001 A 
HETATM   21  C   UNL     1     -42.716  55.987 -59.426  1.00  0.00     0.002 A 
ENDBRANCH   8  10
ENDBRANCH   7   8
ENDBRANCH   4   7
BRANCH   1  22
HETATM   22  C   UNL     1     -42.845  56.736 -52.618  1.00  0.00     0.251 C 
HETATM   23  N   UNL     1     -41.607  56.131 -52.612  1.00  0.00    -0.353 N 
HETATM   24  H   UNL     1     -40.847  56.529 -53.145  1.00  0.00     0.163 HD
HETATM   25  O   UNL     1     -43.758  56.428 -51.861  1.00  0.00    -0.268 OA
BRANCH  23  26
HETATM   26  C   UNL     1     -41.286  55.055 -51.695  1.00  0.00     0.163 C 
BRANCH  26  27
HETATM   27  C   UNL     1     -40.733  53.808 -52.351  1.00  0.00    -0.019 A 
HETATM   28  C   UNL     1     -40.648  53.676 -53.749  1.00  0.00     0.010 A 
HETATM   29  C   UNL     1     -40.112  52.526 -54.337  1.00  0.00     0.001 A 
HETATM   30  C   UNL     1     -39.637  51.490 -53.540  1.00  0.00     0.002 A 
HETATM   31  C   UNL     1     -39.695  51.604 -52.153  1.00  0.00     0.024 A 
HETATM   32  C   UNL     1     -40.234  52.753 -51.563  1.00  0.00     0.042 A 
HETATM   33 CL   UNL     1     -40.252  52.821 -49.834  1.00  0.00    -0.084 Cl
ENDBRANCH  26  27
ENDBRANCH  23  26
ENDBRANCH   1  22
TORSDOF 6
ENDMDL
MODEL 10
REMARK VINA RESULT:      -7.5      4.164      9.389
REMARK  6 active torsions:
REMARK  status: ('A' for Active; 'I' for Inactive)
REMARK    1  A    between atoms: C_3  and  C_4 
REMARK    2  A    between atoms: C_4  and  N_5 
REMARK       I    between atoms: N_5  and  C_6 
REMARK    3  A    between atoms: C_6  and  C_7 
REMARK    4  A    between atoms: C_10  and  C_11 
REMARK    5  A    between atoms: C_11  and  N_12 
REMARK    6  A    between atoms: N_12  and  C_13 
ROOT
HETATM    1  C   UNL     1     -42.982  57.733 -50.949  1.00  0.00     0.032 A 
HETATM    2  C   UNL     1     -43.752  56.565 -51.010  1.00  0.00     0.017 A 
HETATM    3  C   UNL     1     -43.184  55.337 -50.661  1.00  0.00     0.010 A 
HETATM    4  C   UNL     1     -41.846  55.260 -50.243  1.00  0.00    -0.041 A 
HETATM    5  C   UNL     1     -41.074  56.430 -50.210  1.00  0.00     0.010 A 
HETATM    6  C   UNL     1     -41.639  57.658 -50.564  1.00  0.00     0.017 A 
ENDROOT
BRANCH   4   7
HETATM    7  C   UNL     1     -41.238  53.927 -49.874  1.00  0.00     0.160 C 
BRANCH   7   8
HETATM    8  N   UNL     1     -40.074  53.680 -50.706  1.00  0.00    -0.370 N 
HETATM    9  H   UNL     1     -39.310  53.246 -50.202  1.00  0.00     0.161 HD
BRANCH   8  10
HETATM   10  C   UNL     1     -40.210  53.360 -52.043  1.00  0.00     0.139 A 
HETATM   11  N   UNL     1     -40.554  54.292 -52.887  1.00  0.00    -0.202 NA
HETATM   12  C   UNL     1     -40.731  54.024 -54.218  1.00  0.00     0.200 A 
HETATM   13  S   UNL     1     -41.165  55.196 -55.340  1.00  0.00    -0.039 SA
HETATM   14  N   UNL     1     -40.566  52.745 -54.678  1.00  0.00    -0.331 N 
HETATM   15  C   UNL     1     -40.181  51.700 -53.844  1.00  0.00     0.048 A 
HETATM   16  H   UNL     1     -40.712  52.593 -55.667  1.00  0.00     0.168 HD
HETATM   17  C   UNL     1     -39.970  51.958 -52.492  1.00  0.00     0.036 A 
HETATM   18  C   UNL     1     -39.996  50.419 -54.364  1.00  0.00     0.030 A 
HETATM   19  C   UNL     1     -39.540  50.930 -51.648  1.00  0.00     0.017 A 
HETATM   20  C   UNL     1     -39.351  49.645 -52.165  1.00  0.00     0.001 A 
HETATM   21  C   UNL     1     -39.584  49.390 -53.518  1.00  0.00     0.002 A 
ENDBRANCH   8  10
ENDBRANCH   7   8
ENDBRANCH   4   7
BRANCH   1  22
HETATM   22  C   UNL     1     -43.539  59.064 -51.313  1.00  0.00     0.251 C 
HETATM   23  N   UNL     1     -43.249  60.102 -50.456  1.00  0.00    -0.353 N 
HETATM   24  H   UNL     1     -42.585  59.968 -49.706  1.00  0.00     0.163 HD
HETATM   25  O   UNL     1     -44.183  59.192 -52.347  1.00  0.00    -0.268 OA
BRANCH  23  26
HETATM   26  C   UNL     1     -43.699  61.455 -50.714  1.00  0.00     0.163 C 
BRANCH  26  27
HETATM   27  C   UNL     1     -44.435  62.108 -49.563  1.00  0.00    -0.019 A 
HETATM   28  C   UNL     1     -45.490  61.465 -48.892  1.00  0.00     0.010 A 
HETATM   29  C   UNL     1     -46.142  62.074 -47.815  1.00  0.00     0.001 A 
HETATM   30  C   UNL     1     -45.744  63.333 -47.378  1.00  0.00     0.002 A 
HETATM   31  C   UNL     1     -44.690  63.983 -48.016  1.00  0.00     0.024 A 
HETATM   32  C   UNL     1     -44.039  63.376 -49.095  1.00  0.00     0.042 A 
HETATM   33 CL   UNL     1     -42.729  64.245 -49.819  1.00  0.00    -0.084 Cl
ENDBRANCH  26  27
ENDBRANCH  23  26
ENDBRANCH   1  22
TORSDOF 6
ENDMDL
