MODEL 1
REMARK VINA RESULT:      -8.1      0.000      0.000
REMARK  11 active torsions:
REMARK  status: ('A' for Active; 'I' for Inactive)
REMARK    1  A    between atoms: C_2  and  O_3 
REMARK    2  A    between atoms: O_3  and  C_4 
REMARK    3  A    between atoms: C_4  and  C_5 
REMARK    4  A    between atoms: C_6  and  N_7 
REMARK       I    between atoms: N_7  and  C_8 
REMARK    5  A    between atoms: C_8  and  C_9 
REMARK    6  A    between atoms: C_10  and  N_11 
REMARK    7  A    between atoms: N_11  and  C_12 
REMARK    8  A    between atoms: C_12  and  C_13 
REMARK    9  A    between atoms: C_13  and  C_14 
REMARK   10  A    between atoms: C_14  and  N_15 
REMARK   11  A    between atoms: C_24  and  N_25 
ROOT
HETATM    1  C   UNL     1     -42.156  57.724 -54.003  1.00  0.00     0.061 A 
HETATM    2  C   UNL     1     -42.316  58.456 -55.209  1.00  0.00     0.043 A 
HETATM    3  C   UNL     1     -42.434  59.852 -55.087  1.00  0.00     0.032 A 
HETATM    4  C   UNL     1     -42.368  60.496 -53.843  1.00  0.00     0.038 A 
HETATM    5  C   UNL     1     -42.209  59.743 -52.677  1.00  0.00     0.104 A 
HETATM    6  C   UNL     1     -42.105  58.355 -52.748  1.00  0.00     0.055 A 
ENDROOT
BRANCH   1   7
HETATM    7  C   UNL     1     -42.059  56.243 -53.979  1.00  0.00     0.258 C 
HETATM    8  N   UNL     1     -40.851  55.766 -53.503  1.00  0.00    -0.316 N 
HETATM    9  H   UNL     1     -40.135  56.440 -53.244  1.00  0.00     0.169 HD
HETATM   10  O   UNL     1     -43.023  55.609 -54.383  1.00  0.00    -0.267 OA
BRANCH   8  11
HETATM   11  C   UNL     1     -40.504  54.435 -53.307  1.00  0.00     0.094 A 
HETATM   12  C   UNL     1     -40.391  53.782 -52.083  1.00  0.00     0.080 A 
HETATM   13  C   UNL     1     -40.104  52.372 -52.283  1.00  0.00    -0.026 A 
HETATM   14  C   UNL     1     -40.044  52.054 -53.627  1.00  0.00    -0.008 A 
HETATM   15  C   UNL     1     -39.920  51.310 -51.231  1.00  0.00     0.041 C 
HETATM   16  S   UNL     1     -40.240  53.405 -54.628  1.00  0.00    -0.075 SA
HETATM   17  C   UNL     1     -39.793  50.691 -54.196  1.00  0.00     0.047 C 
HETATM   18  C   UNL     1     -40.004  49.615 -53.123  1.00  0.00     0.005 C 
HETATM   19  C   UNL     1     -39.333  50.009 -51.803  1.00  0.00     0.005 C 
BRANCH  12  20
HETATM   20  C   UNL     1     -40.530  54.501 -50.813  1.00  0.00     0.296 C 
HETATM   21  O   UNL     1     -39.722  54.379 -49.894  1.00  0.00    -0.259 OA
BRANCH  20  22
HETATM   22  O   UNL     1     -41.643  55.281 -50.753  1.00  0.00    -0.318 OA
BRANCH  22  23
HETATM   23  C   UNL     1     -42.813  54.707 -50.152  1.00  0.00     0.174 C 
HETATM   24  C   UNL     1     -43.701  54.108 -51.224  1.00  0.00     0.034 C 
ENDBRANCH  22  23
ENDBRANCH  20  22
ENDBRANCH  12  20
ENDBRANCH   8  11
ENDBRANCH   1   7
BRANCH   2  25
HETATM   25  N   UNL     1     -42.532  57.796 -56.432  1.00  0.00    -0.389 N 
HETATM   26  H   UNL     1     -42.263  56.811 -56.387  1.00  0.00     0.159 HD
BRANCH  25  27
HETATM   27  C   UNL     1     -42.175  58.420 -57.699  1.00  0.00     0.121 C 
BRANCH  27  28
HETATM   28  C   UNL     1     -43.340  58.261 -58.681  1.00  0.00     0.047 C 
BRANCH  28  29
HETATM   29  C   UNL     1     -44.560  57.659 -57.987  1.00  0.00     0.236 C 
BRANCH  29  30
HETATM   30  N   UNL     1     -45.238  56.630 -58.872  1.00  0.00    -0.067 N 
HETATM   31  H   UNL     1     -45.804  56.016 -58.274  1.00  0.00     0.280 HD
HETATM   32  C   UNL     1     -46.160  57.240 -59.928  1.00  0.00     0.261 C 
HETATM   33  C   UNL     1     -46.771  56.125 -60.784  1.00  0.00     0.195 C 
HETATM   34  O   UNL     1     -45.753  55.334 -61.404  1.00  0.00    -0.388 OA
HETATM   35  C   UNL     1     -44.908  54.701 -60.438  1.00  0.00     0.195 C 
HETATM   36  C   UNL     1     -44.198  55.742 -59.566  1.00  0.00     0.261 C 
ENDBRANCH  29  30
ENDBRANCH  28  29
ENDBRANCH  27  28
ENDBRANCH  25  27
ENDBRANCH   2  25
BRANCH   5  37
HETATM   37  N   UNL     1     -42.161  60.416 -51.374  1.00  0.00    -0.116 N 
HETATM   38  O   UNL     1     -41.331  60.007 -50.551  1.00  0.00    -0.532 OA
HETATM   39  O   UNL     1     -42.957  61.343 -51.178  1.00  0.00    -0.532 OA
ENDBRANCH   5  37
TORSDOF 11
ENDMDL
MODEL 2
REMARK VINA RESULT:      -8.1      2.082      2.857
REMARK  11 active torsions:
REMARK  status: ('A' for Active; 'I' for Inactive)
REMARK    1  A    between atoms: C_2  and  O_3 
REMARK    2  A    between atoms: O_3  and  C_4 
REMARK    3  A    between atoms: C_4  and  C_5 
REMARK    4  A    between atoms: C_6  and  N_7 
REMARK       I    between atoms: N_7  and  C_8 
REMARK    5  A    between atoms: C_8  and  C_9 
REMARK    6  A    between atoms: C_10  and  N_11 
REMARK    7  A    between atoms: N_11  and  C_12 
REMARK    8  A    between atoms: C_12  and  C_13 
REMARK    9  A    between atoms: C_13  and  C_14 
REMARK   10  A    between atoms: C_14  and  N_15 
REMARK   11  A    between atoms: C_24  and  N_25 
ROOT
HETATM    1  C   UNL     1     -42.736  59.140 -52.403  1.00  0.00     0.061 A 
HETATM    2  C   UNL     1     -42.682  60.248 -53.289  1.00  0.00     0.043 A 
HETATM    3  C   UNL     1     -43.694  61.215 -53.149  1.00  0.00     0.032 A 
HETATM    4  C   UNL     1     -44.690  61.109 -52.168  1.00  0.00     0.038 A 
HETATM    5  C   UNL     1     -44.710  60.005 -51.313  1.00  0.00     0.104 A 
HETATM    6  C   UNL     1     -43.738  59.013 -51.426  1.00  0.00     0.055 A 
ENDROOT
BRANCH   1   7
HETATM    7  C   UNL     1     -41.756  58.026 -52.464  1.00  0.00     0.258 C 
HETATM    8  N   UNL     1     -42.322  56.795 -52.739  1.00  0.00    -0.316 N 
HETATM    9  H   UNL     1     -43.332  56.741 -52.845  1.00  0.00     0.169 HD
HETATM   10  O   UNL     1     -40.582  58.296 -52.257  1.00  0.00    -0.267 OA
BRANCH   8  11
HETATM   11  C   UNL     1     -41.648  55.594 -52.920  1.00  0.00     0.094 A 
HETATM   12  C   UNL     1     -41.368  54.647 -51.939  1.00  0.00     0.080 A 
HETATM   13  C   UNL     1     -40.733  53.479 -52.525  1.00  0.00    -0.026 A 
HETATM   14  C   UNL     1     -40.599  53.611 -53.895  1.00  0.00    -0.008 A 
HETATM   15  C   UNL     1     -40.282  52.224 -51.824  1.00  0.00     0.041 C 
HETATM   16  S   UNL     1     -41.135  55.112 -54.463  1.00  0.00    -0.075 SA
HETATM   17  C   UNL     1     -40.012  52.590 -54.822  1.00  0.00     0.047 C 
HETATM   18  C   UNL     1     -39.938  51.221 -54.133  1.00  0.00     0.005 C 
HETATM   19  C   UNL     1     -39.385  51.344 -52.710  1.00  0.00     0.005 C 
BRANCH  12  20
HETATM   20  C   UNL     1     -41.681  54.887 -50.527  1.00  0.00     0.296 C 
HETATM   21  O   UNL     1     -42.806  54.710 -50.062  1.00  0.00    -0.259 OA
BRANCH  20  22
HETATM   22  O   UNL     1     -40.621  55.342 -49.808  1.00  0.00    -0.318 OA
BRANCH  22  23
HETATM   23  C   UNL     1     -39.757  54.358 -49.222  1.00  0.00     0.174 C 
HETATM   24  C   UNL     1     -40.285  53.956 -47.860  1.00  0.00     0.034 C 
ENDBRANCH  22  23
ENDBRANCH  20  22
ENDBRANCH  12  20
ENDBRANCH   8  11
ENDBRANCH   1   7
BRANCH   2  25
HETATM   25  N   UNL     1     -41.775  60.271 -54.364  1.00  0.00    -0.389 N 
HETATM   26  H   UNL     1     -41.044  60.973 -54.231  1.00  0.00     0.159 HD
BRANCH  25  27
HETATM   27  C   UNL     1     -42.239  60.195 -55.743  1.00  0.00     0.121 C 
BRANCH  27  28
HETATM   28  C   UNL     1     -42.389  58.722 -56.139  1.00  0.00     0.047 C 
BRANCH  28  29
HETATM   29  C   UNL     1     -43.702  58.489 -56.883  1.00  0.00     0.236 C 
BRANCH  29  30
HETATM   30  N   UNL     1     -43.452  57.901 -58.259  1.00  0.00    -0.067 N 
HETATM   31  H   UNL     1     -44.269  58.103 -58.848  1.00  0.00     0.280 HD
HETATM   32  C   UNL     1     -42.217  58.474 -58.955  1.00  0.00     0.261 C 
HETATM   33  C   UNL     1     -42.036  57.798 -60.319  1.00  0.00     0.195 C 
HETATM   34  O   UNL     1     -41.921  56.379 -60.182  1.00  0.00    -0.388 OA
HETATM   35  C   UNL     1     -43.089  55.806 -59.584  1.00  0.00     0.195 C 
HETATM   36  C   UNL     1     -43.322  56.375 -58.182  1.00  0.00     0.261 C 
ENDBRANCH  29  30
ENDBRANCH  28  29
ENDBRANCH  27  28
ENDBRANCH  25  27
ENDBRANCH   2  25
BRANCH   5  37
HETATM   37  N   UNL     1     -45.765  59.884 -50.300  1.00  0.00    -0.116 N 
HETATM   38  O   UNL     1     -46.268  58.765 -50.130  1.00  0.00    -0.532 OA
HETATM   39  O   UNL     1     -46.090  60.909 -49.686  1.00  0.00    -0.532 OA
ENDBRANCH   5  37
TORSDOF 11
ENDMDL
MODEL 3
REMARK VINA RESULT:      -8.0      2.382      6.358
REMARK  11 active torsions:
REMARK  status: ('A' for Active; 'I' for Inactive)
REMARK    1  A    between atoms: C_2  and  O_3 
REMARK    2  A    between atoms: O_3  and  C_4 
REMARK    3  A    between atoms: C_4  and  C_5 
REMARK    4  A    between atoms: C_6  and  N_7 
REMARK       I    between atoms: N_7  and  C_8 
REMARK    5  A    between atoms: C_8  and  C_9 
REMARK    6  A    between atoms: C_10  and  N_11 
REMARK    7  A    between atoms: N_11  and  C_12 
REMARK    8  A    between atoms: C_12  and  C_13 
REMARK    9  A    between atoms: C_13  and  C_14 
REMARK   10  A    between atoms: C_14  and  N_15 
REMARK   11  A    between atoms: C_24  and  N_25 
ROOT
HETATM    1  C   UNL     1     -43.708  57.265 -56.245  1.00  0.00     0.061 A 
HETATM    2  C   UNL     1     -44.089  58.615 -56.469  1.00  0.00     0.043 A 
HETATM    3  C   UNL     1     -44.072  59.060 -57.803  1.00  0.00     0.032 A 
HETATM    4  C   UNL     1     -43.726  58.210 -58.864  1.00  0.00     0.038 A 
HETATM    5  C   UNL     1     -43.357  56.888 -58.605  1.00  0.00     0.104 A 
HETATM    6  C   UNL     1     -43.343  56.408 -57.296  1.00  0.00     0.055 A 
ENDROOT
BRANCH   1   7
HETATM    7  C   UNL     1     -43.642  56.674 -54.884  1.00  0.00     0.258 C 
HETATM    8  N   UNL     1     -42.416  56.117 -54.573  1.00  0.00    -0.316 N 
HETATM    9  H   UNL     1     -41.688  56.125 -55.283  1.00  0.00     0.169 HD
HETATM   10  O   UNL     1     -44.653  56.725 -54.198  1.00  0.00    -0.267 OA
BRANCH   8  11
HETATM   11  C   UNL     1     -42.044  55.555 -53.358  1.00  0.00     0.094 A 
HETATM   12  C   UNL     1     -41.170  54.487 -53.174  1.00  0.00     0.080 A 
HETATM   13  C   UNL     1     -40.954  54.245 -51.758  1.00  0.00    -0.026 A 
HETATM   14  C   UNL     1     -41.651  55.149 -50.978  1.00  0.00    -0.008 A 
HETATM   15  C   UNL     1     -40.073  53.200 -51.125  1.00  0.00     0.041 C 
HETATM   16  S   UNL     1     -42.603  56.206 -51.895  1.00  0.00    -0.075 SA
HETATM   17  C   UNL     1     -41.639  55.210 -49.481  1.00  0.00     0.047 C 
HETATM   18  C   UNL     1     -40.457  54.408 -48.922  1.00  0.00     0.005 C 
HETATM   19  C   UNL     1     -40.330  53.048 -49.616  1.00  0.00     0.005 C 
BRANCH  12  20
HETATM   20  C   UNL     1     -40.611  53.747 -54.309  1.00  0.00     0.296 C 
HETATM   21  O   UNL     1     -39.939  54.290 -55.184  1.00  0.00    -0.259 OA
BRANCH  20  22
HETATM   22  O   UNL     1     -40.932  52.425 -54.303  1.00  0.00    -0.318 OA
BRANCH  22  23
HETATM   23  C   UNL     1     -39.862  51.492 -54.098  1.00  0.00     0.174 C 
HETATM   24  C   UNL     1     -40.327  50.092 -54.443  1.00  0.00     0.034 C 
ENDBRANCH  22  23
ENDBRANCH  20  22
ENDBRANCH  12  20
ENDBRANCH   8  11
ENDBRANCH   1   7
BRANCH   2  25
HETATM   25  N   UNL     1     -44.287  59.499 -55.393  1.00  0.00    -0.389 N 
HETATM   26  H   UNL     1     -45.250  59.477 -55.054  1.00  0.00     0.159 HD
BRANCH  25  27
HETATM   27  C   UNL     1     -43.726  60.844 -55.410  1.00  0.00     0.121 C 
BRANCH  27  28
HETATM   28  C   UNL     1     -43.221  61.193 -54.006  1.00  0.00     0.047 C 
BRANCH  28  29
HETATM   29  C   UNL     1     -43.569  60.088 -53.011  1.00  0.00     0.236 C 
BRANCH  29  30
HETATM   30  N   UNL     1     -42.315  59.416 -52.482  1.00  0.00    -0.067 N 
HETATM   31  H   UNL     1     -42.546  58.441 -52.254  1.00  0.00     0.280 HD
HETATM   32  C   UNL     1     -41.157  59.405 -53.480  1.00  0.00     0.261 C 
HETATM   33  C   UNL     1     -39.935  58.734 -52.844  1.00  0.00     0.195 C 
HETATM   34  O   UNL     1     -39.551  59.398 -51.637  1.00  0.00    -0.388 OA
HETATM   35  C   UNL     1     -40.596  59.374 -50.659  1.00  0.00     0.195 C 
HETATM   36  C   UNL     1     -41.851  60.082 -51.181  1.00  0.00     0.261 C 
ENDBRANCH  29  30
ENDBRANCH  28  29
ENDBRANCH  27  28
ENDBRANCH  25  27
ENDBRANCH   2  25
BRANCH   5  37
HETATM   37  N   UNL     1     -42.975  56.005 -59.713  1.00  0.00    -0.116 N 
HETATM   38  O   UNL     1     -43.710  55.037 -59.950  1.00  0.00    -0.532 OA
HETATM   39  O   UNL     1     -41.942  56.281 -60.335  1.00  0.00    -0.532 OA
ENDBRANCH   5  37
TORSDOF 11
ENDMDL
MODEL 4
REMARK VINA RESULT:      -8.0      2.127      2.496
REMARK  11 active torsions:
REMARK  status: ('A' for Active; 'I' for Inactive)
REMARK    1  A    between atoms: C_2  and  O_3 
REMARK    2  A    between atoms: O_3  and  C_4 
REMARK    3  A    between atoms: C_4  and  C_5 
REMARK    4  A    between atoms: C_6  and  N_7 
REMARK       I    between atoms: N_7  and  C_8 
REMARK    5  A    between atoms: C_8  and  C_9 
REMARK    6  A    between atoms: C_10  and  N_11 
REMARK    7  A    between atoms: N_11  and  C_12 
REMARK    8  A    between atoms: C_12  and  C_13 
REMARK    9  A    between atoms: C_13  and  C_14 
REMARK   10  A    between atoms: C_14  and  N_15 
REMARK   11  A    between atoms: C_24  and  N_25 
ROOT
HETATM    1  C   UNL     1     -44.695  58.367 -53.377  1.00  0.00     0.061 A 
HETATM    2  C   UNL     1     -44.959  59.310 -54.406  1.00  0.00     0.043 A 
HETATM    3  C   UNL     1     -45.576  60.511 -54.015  1.00  0.00     0.032 A 
HETATM    4  C   UNL     1     -45.891  60.781 -52.675  1.00  0.00     0.038 A 
HETATM    5  C   UNL     1     -45.616  59.830 -51.690  1.00  0.00     0.104 A 
HETATM    6  C   UNL     1     -45.020  58.618 -52.034  1.00  0.00     0.055 A 
ENDROOT
BRANCH   1   7
HETATM    7  C   UNL     1     -44.084  57.042 -53.651  1.00  0.00     0.258 C 
HETATM    8  N   UNL     1     -42.826  56.878 -53.102  1.00  0.00    -0.316 N 
HETATM    9  H   UNL     1     -42.415  57.659 -52.595  1.00  0.00     0.169 HD
HETATM   10  O   UNL     1     -44.729  56.254 -54.328  1.00  0.00    -0.267 OA
BRANCH   8  11
HETATM   11  C   UNL     1     -42.048  55.728 -53.138  1.00  0.00     0.094 A 
HETATM   12  C   UNL     1     -41.833  54.842 -52.086  1.00  0.00     0.080 A 
HETATM   13  C   UNL     1     -41.043  53.706 -52.530  1.00  0.00    -0.026 A 
HETATM   14  C   UNL     1     -40.739  53.798 -53.876  1.00  0.00    -0.008 A 
HETATM   15  C   UNL     1     -40.599  52.517 -51.719  1.00  0.00     0.041 C 
HETATM   16  S   UNL     1     -41.303  55.231 -54.578  1.00  0.00    -0.075 SA
HETATM   17  C   UNL     1     -39.962  52.792 -54.671  1.00  0.00     0.047 C 
HETATM   18  C   UNL     1     -39.881  51.459 -53.916  1.00  0.00     0.005 C 
HETATM   19  C   UNL     1     -39.532  51.677 -52.440  1.00  0.00     0.005 C 
BRANCH  12  20
HETATM   20  C   UNL     1     -42.347  55.108 -50.739  1.00  0.00     0.296 C 
HETATM   21  O   UNL     1     -43.526  54.933 -50.437  1.00  0.00    -0.259 OA
BRANCH  20  22
HETATM   22  O   UNL     1     -41.402  55.586 -49.885  1.00  0.00    -0.318 OA
BRANCH  22  23
HETATM   23  C   UNL     1     -41.078  54.774 -48.748  1.00  0.00     0.174 C 
HETATM   24  C   UNL     1     -39.695  54.179 -48.918  1.00  0.00     0.034 C 
ENDBRANCH  22  23
ENDBRANCH  20  22
ENDBRANCH  12  20
ENDBRANCH   8  11
ENDBRANCH   1   7
BRANCH   2  25
HETATM   25  N   UNL     1     -44.780  58.972 -55.760  1.00  0.00    -0.389 N 
HETATM   26  H   UNL     1     -44.917  57.973 -55.924  1.00  0.00     0.159 HD
BRANCH  25  27
HETATM   27  C   UNL     1     -43.678  59.525 -56.535  1.00  0.00     0.121 C 
BRANCH  27  28
HETATM   28  C   UNL     1     -43.492  58.691 -57.807  1.00  0.00     0.047 C 
BRANCH  28  29
HETATM   29  C   UNL     1     -43.445  57.200 -57.478  1.00  0.00     0.236 C 
BRANCH  29  30
HETATM   30  N   UNL     1     -44.476  56.431 -58.283  1.00  0.00    -0.067 N 
HETATM   31  H   UNL     1     -45.055  55.890 -57.629  1.00  0.00     0.280 HD
HETATM   32  C   UNL     1     -45.405  57.327 -59.104  1.00  0.00     0.261 C 
HETATM   33  C   UNL     1     -46.386  56.458 -59.899  1.00  0.00     0.195 C 
HETATM   34  O   UNL     1     -45.693  55.541 -60.749  1.00  0.00    -0.388 OA
HETATM   35  C   UNL     1     -44.857  54.650 -60.003  1.00  0.00     0.195 C 
HETATM   36  C   UNL     1     -43.795  55.424 -59.217  1.00  0.00     0.261 C 
ENDBRANCH  29  30
ENDBRANCH  28  29
ENDBRANCH  27  28
ENDBRANCH  25  27
ENDBRANCH   2  25
BRANCH   5  37
HETATM   37  N   UNL     1     -45.964  60.106 -50.291  1.00  0.00    -0.116 N 
HETATM   38  O   UNL     1     -45.971  59.148 -49.506  1.00  0.00    -0.532 OA
HETATM   39  O   UNL     1     -46.236  61.274 -49.988  1.00  0.00    -0.532 OA
ENDBRANCH   5  37
TORSDOF 11
ENDMDL
MODEL 5
REMARK VINA RESULT:      -7.8      1.664      2.119
REMARK  11 active torsions:
REMARK  status: ('A' for Active; 'I' for Inactive)
REMARK    1  A    between atoms: C_2  and  O_3 
REMARK    2  A    between atoms: O_3  and  C_4 
REMARK    3  A    between atoms: C_4  and  C_5 
REMARK    4  A    between atoms: C_6  and  N_7 
REMARK       I    between atoms: N_7  and  C_8 
REMARK    5  A    between atoms: C_8  and  C_9 
REMARK    6  A    between atoms: C_10  and  N_11 
REMARK    7  A    between atoms: N_11  and  C_12 
REMARK    8  A    between atoms: C_12  and  C_13 
REMARK    9  A    between atoms: C_13  and  C_14 
REMARK   10  A    between atoms: C_14  and  N_15 
REMARK   11  A    between atoms: C_24  and  N_25 
ROOT
HETATM    1  C   UNL     1     -42.020  60.013 -53.472  1.00  0.00     0.061 A 
HETATM    2  C   UNL     1     -42.396  60.609 -54.705  1.00  0.00     0.043 A 
HETATM    3  C   UNL     1     -43.232  61.737 -54.629  1.00  0.00     0.032 A 
HETATM    4  C   UNL     1     -43.652  62.267 -53.400  1.00  0.00     0.038 A 
HETATM    5  C   UNL     1     -43.262  61.654 -52.207  1.00  0.00     0.104 A 
HETATM    6  C   UNL     1     -42.448  60.524 -52.235  1.00  0.00     0.055 A 
ENDROOT
BRANCH   1   7
HETATM    7  C   UNL     1     -41.174  58.794 -53.404  1.00  0.00     0.258 C 
HETATM    8  N   UNL     1     -41.892  57.618 -53.290  1.00  0.00    -0.316 N 
HETATM    9  H   UNL     1     -42.906  57.675 -53.233  1.00  0.00     0.169 HD
HETATM   10  O   UNL     1     -39.962  58.947 -53.440  1.00  0.00    -0.267 OA
BRANCH   8  11
HETATM   11  C   UNL     1     -41.374  56.329 -53.272  1.00  0.00     0.094 A 
HETATM   12  C   UNL     1     -41.215  55.517 -52.152  1.00  0.00     0.080 A 
HETATM   13  C   UNL     1     -40.733  54.203 -52.540  1.00  0.00    -0.026 A 
HETATM   14  C   UNL     1     -40.585  54.104 -53.911  1.00  0.00    -0.008 A 
HETATM   15  C   UNL     1     -40.443  53.026 -51.646  1.00  0.00     0.041 C 
HETATM   16  S   UNL     1     -40.928  55.554 -54.713  1.00  0.00    -0.075 SA
HETATM   17  C   UNL     1     -40.132  52.887 -54.660  1.00  0.00     0.047 C 
HETATM   18  C   UNL     1     -40.231  51.642 -53.768  1.00  0.00     0.005 C 
HETATM   19  C   UNL     1     -39.665  51.914 -52.370  1.00  0.00     0.005 C 
BRANCH  12  20
HETATM   20  C   UNL     1     -41.494  56.010 -50.800  1.00  0.00     0.296 C 
HETATM   21  O   UNL     1     -40.927  56.993 -50.326  1.00  0.00    -0.259 OA
BRANCH  20  22
HETATM   22  O   UNL     1     -42.411  55.261 -50.131  1.00  0.00    -0.318 OA
BRANCH  22  23
HETATM   23  C   UNL     1     -43.745  55.234 -50.658  1.00  0.00     0.174 C 
HETATM   24  C   UNL     1     -44.167  53.801 -50.915  1.00  0.00     0.034 C 
ENDBRANCH  22  23
ENDBRANCH  20  22
ENDBRANCH  12  20
ENDBRANCH   8  11
ENDBRANCH   1   7
BRANCH   2  25
HETATM   25  N   UNL     1     -42.098  59.985 -55.930  1.00  0.00    -0.389 N 
HETATM   26  H   UNL     1     -41.329  60.450 -56.417  1.00  0.00     0.159 HD
BRANCH  25  27
HETATM   27  C   UNL     1     -43.156  59.552 -56.832  1.00  0.00     0.121 C 
BRANCH  27  28
HETATM   28  C   UNL     1     -43.441  58.066 -56.591  1.00  0.00     0.047 C 
BRANCH  28  29
HETATM   29  C   UNL     1     -43.000  57.225 -57.788  1.00  0.00     0.236 C 
BRANCH  29  30
HETATM   30  N   UNL     1     -44.174  56.478 -58.391  1.00  0.00    -0.067 N 
HETATM   31  H   UNL     1     -44.665  55.986 -57.634  1.00  0.00     0.280 HD
HETATM   32  C   UNL     1     -45.183  57.386 -59.095  1.00  0.00     0.261 C 
HETATM   33  C   UNL     1     -46.311  56.536 -59.692  1.00  0.00     0.195 C 
HETATM   34  O   UNL     1     -45.796  55.560 -60.601  1.00  0.00    -0.388 OA
HETATM   35  C   UNL     1     -44.890  54.657 -59.957  1.00  0.00     0.195 C 
HETATM   36  C   UNL     1     -43.688  55.408 -59.377  1.00  0.00     0.261 C 
ENDBRANCH  29  30
ENDBRANCH  28  29
ENDBRANCH  27  28
ENDBRANCH  25  27
ENDBRANCH   2  25
BRANCH   5  37
HETATM   37  N   UNL     1     -43.719  62.198 -50.923  1.00  0.00    -0.116 N 
HETATM   38  O   UNL     1     -43.288  63.310 -50.589  1.00  0.00    -0.532 OA
HETATM   39  O   UNL     1     -44.498  61.508 -50.254  1.00  0.00    -0.532 OA
ENDBRANCH   5  37
TORSDOF 11
ENDMDL
MODEL 6
REMARK VINA RESULT:      -7.8      2.196      3.412
REMARK  11 active torsions:
REMARK  status: ('A' for Active; 'I' for Inactive)
REMARK    1  A    between atoms: C_2  and  O_3 
REMARK    2  A    between atoms: O_3  and  C_4 
REMARK    3  A    between atoms: C_4  and  C_5 
REMARK    4  A    between atoms: C_6  and  N_7 
REMARK       I    between atoms: N_7  and  C_8 
REMARK    5  A    between atoms: C_8  and  C_9 
REMARK    6  A    between atoms: C_10  and  N_11 
REMARK    7  A    between atoms: N_11  and  C_12 
REMARK    8  A    between atoms: C_12  and  C_13 
REMARK    9  A    between atoms: C_13  and  C_14 
REMARK   10  A    between atoms: C_14  and  N_15 
REMARK   11  A    between atoms: C_24  and  N_25 
ROOT
HETATM    1  C   UNL     1     -42.727  58.967 -52.349  1.00  0.00     0.061 A 
HETATM    2  C   UNL     1     -42.704  60.079 -53.232  1.00  0.00     0.043 A 
HETATM    3  C   UNL     1     -43.633  61.103 -52.977  1.00  0.00     0.032 A 
HETATM    4  C   UNL     1     -44.520  61.047 -51.893  1.00  0.00     0.038 A 
HETATM    5  C   UNL     1     -44.514  59.937 -51.045  1.00  0.00     0.104 A 
HETATM    6  C   UNL     1     -43.622  58.890 -51.269  1.00  0.00     0.055 A 
ENDROOT
BRANCH   1   7
HETATM    7  C   UNL     1     -41.830  57.796 -52.522  1.00  0.00     0.258 C 
HETATM    8  N   UNL     1     -42.432  56.582 -52.249  1.00  0.00    -0.316 N 
HETATM    9  H   UNL     1     -43.399  56.583 -51.932  1.00  0.00     0.169 HD
HETATM   10  O   UNL     1     -40.678  58.015 -52.867  1.00  0.00    -0.267 OA
BRANCH   8  11
HETATM   11  C   UNL     1     -41.861  55.323 -52.387  1.00  0.00     0.094 A 
HETATM   12  C   UNL     1     -41.718  54.607 -53.572  1.00  0.00     0.080 A 
HETATM   13  C   UNL     1     -40.988  53.373 -53.336  1.00  0.00    -0.026 A 
HETATM   14  C   UNL     1     -40.613  53.253 -52.011  1.00  0.00    -0.008 A 
HETATM   15  C   UNL     1     -40.605  52.321 -54.344  1.00  0.00     0.041 C 
HETATM   16  S   UNL     1     -41.182  54.527 -51.053  1.00  0.00    -0.075 SA
HETATM   17  C   UNL     1     -39.828  52.122 -51.419  1.00  0.00     0.047 C 
HETATM   18  C   UNL     1     -39.145  51.307 -52.525  1.00  0.00     0.005 C 
HETATM   19  C   UNL     1     -40.110  51.024 -53.681  1.00  0.00     0.005 C 
BRANCH  12  20
HETATM   20  C   UNL     1     -42.280  55.091 -54.837  1.00  0.00     0.296 C 
HETATM   21  O   UNL     1     -41.643  55.082 -55.888  1.00  0.00    -0.259 OA
BRANCH  20  22
HETATM   22  O   UNL     1     -43.549  55.567 -54.716  1.00  0.00    -0.318 OA
BRANCH  22  23
HETATM   23  C   UNL     1     -43.872  56.759 -55.446  1.00  0.00     0.174 C 
HETATM   24  C   UNL     1     -45.014  57.486 -54.764  1.00  0.00     0.034 C 
ENDBRANCH  22  23
ENDBRANCH  20  22
ENDBRANCH  12  20
ENDBRANCH   8  11
ENDBRANCH   1   7
BRANCH   2  25
HETATM   25  N   UNL     1     -41.920  60.058 -54.400  1.00  0.00    -0.389 N 
HETATM   26  H   UNL     1     -40.936  60.248 -54.203  1.00  0.00     0.159 HD
BRANCH  25  27
HETATM   27  C   UNL     1     -42.381  60.694 -55.627  1.00  0.00     0.121 C 
BRANCH  27  28
HETATM   28  C   UNL     1     -42.238  59.704 -56.788  1.00  0.00     0.047 C 
BRANCH  28  29
HETATM   29  C   UNL     1     -43.489  59.707 -57.664  1.00  0.00     0.236 C 
BRANCH  29  30
HETATM   30  N   UNL     1     -43.283  58.866 -58.911  1.00  0.00    -0.067 N 
HETATM   31  H   UNL     1     -43.375  59.480 -59.730  1.00  0.00     0.280 HD
HETATM   32  C   UNL     1     -41.912  58.194 -58.977  1.00  0.00     0.261 C 
HETATM   33  C   UNL     1     -41.814  57.350 -60.254  1.00  0.00     0.195 C 
HETATM   34  O   UNL     1     -42.856  56.372 -60.307  1.00  0.00    -0.388 OA
HETATM   35  C   UNL     1     -44.154  56.975 -60.304  1.00  0.00     0.195 C 
HETATM   36  C   UNL     1     -44.374  57.796 -59.030  1.00  0.00     0.261 C 
ENDBRANCH  29  30
ENDBRANCH  28  29
ENDBRANCH  27  28
ENDBRANCH  25  27
ENDBRANCH   2  25
BRANCH   5  37
HETATM   37  N   UNL     1     -45.456  59.871 -49.922  1.00  0.00    -0.116 N 
HETATM   38  O   UNL     1     -46.269  58.936 -49.915  1.00  0.00    -0.532 OA
HETATM   39  O   UNL     1     -45.383  60.755 -49.060  1.00  0.00    -0.532 OA
ENDBRANCH   5  37
TORSDOF 11
ENDMDL
MODEL 7
REMARK VINA RESULT:      -7.8      2.500      6.866
REMARK  11 active torsions:
REMARK  status: ('A' for Active; 'I' for Inactive)
REMARK    1  A    between atoms: C_2  and  O_3 
REMARK    2  A    between atoms: O_3  and  C_4 
REMARK    3  A    between atoms: C_4  and  C_5 
REMARK    4  A    between atoms: C_6  and  N_7 
REMARK       I    between atoms: N_7  and  C_8 
REMARK    5  A    between atoms: C_8  and  C_9 
REMARK    6  A    between atoms: C_10  and  N_11 
REMARK    7  A    between atoms: N_11  and  C_12 
REMARK    8  A    between atoms: C_12  and  C_13 
REMARK    9  A    between atoms: C_13  and  C_14 
REMARK   10  A    between atoms: C_14  and  N_15 
REMARK   11  A    between atoms: C_24  and  N_25 
ROOT
HETATM    1  C   UNL     1     -41.583  55.065 -53.434  1.00  0.00     0.061 A 
HETATM    2  C   UNL     1     -41.416  54.693 -54.794  1.00  0.00     0.043 A 
HETATM    3  C   UNL     1     -40.697  53.510 -55.038  1.00  0.00     0.032 A 
HETATM    4  C   UNL     1     -40.193  52.719 -53.994  1.00  0.00     0.038 A 
HETATM    5  C   UNL     1     -40.378  53.117 -52.668  1.00  0.00     0.104 A 
HETATM    6  C   UNL     1     -41.069  54.292 -52.379  1.00  0.00     0.055 A 
ENDROOT
BRANCH   1   7
HETATM    7  C   UNL     1     -42.286  56.310 -53.031  1.00  0.00     0.258 C 
HETATM    8  N   UNL     1     -41.464  57.420 -52.955  1.00  0.00    -0.316 N 
HETATM    9  H   UNL     1     -40.472  57.300 -53.144  1.00  0.00     0.169 HD
HETATM   10  O   UNL     1     -43.484  56.231 -52.800  1.00  0.00    -0.267 OA
BRANCH   8  11
HETATM   11  C   UNL     1     -41.854  58.722 -52.671  1.00  0.00     0.094 A 
HETATM   12  C   UNL     1     -42.289  59.674 -53.588  1.00  0.00     0.080 A 
HETATM   13  C   UNL     1     -42.700  60.889 -52.906  1.00  0.00    -0.026 A 
HETATM   14  C   UNL     1     -42.573  60.766 -51.535  1.00  0.00    -0.008 A 
HETATM   15  C   UNL     1     -43.247  62.152 -53.519  1.00  0.00     0.041 C 
HETATM   16  S   UNL     1     -41.905  59.282 -51.071  1.00  0.00    -0.075 SA
HETATM   17  C   UNL     1     -42.928  61.812 -50.522  1.00  0.00     0.047 C 
HETATM   18  C   UNL     1     -43.821  62.888 -51.155  1.00  0.00     0.005 C 
HETATM   19  C   UNL     1     -43.283  63.322 -52.522  1.00  0.00     0.005 C 
BRANCH  12  20
HETATM   20  C   UNL     1     -42.276  59.413 -55.031  1.00  0.00     0.296 C 
HETATM   21  O   UNL     1     -41.524  60.008 -55.802  1.00  0.00    -0.259 OA
BRANCH  20  22
HETATM   22  O   UNL     1     -43.186  58.480 -55.420  1.00  0.00    -0.318 OA
BRANCH  22  23
HETATM   23  C   UNL     1     -44.565  58.749 -55.127  1.00  0.00     0.174 C 
HETATM   24  C   UNL     1     -45.054  59.906 -55.975  1.00  0.00     0.034 C 
ENDBRANCH  22  23
ENDBRANCH  20  22
ENDBRANCH  12  20
ENDBRANCH   8  11
ENDBRANCH   1   7
BRANCH   2  25
HETATM   25  N   UNL     1     -41.789  55.565 -55.833  1.00  0.00    -0.389 N 
HETATM   26  H   UNL     1     -41.762  56.542 -55.539  1.00  0.00     0.159 HD
BRANCH  25  27
HETATM   27  C   UNL     1     -42.926  55.266 -56.694  1.00  0.00     0.121 C 
BRANCH  27  28
HETATM   28  C   UNL     1     -42.876  56.179 -57.923  1.00  0.00     0.047 C 
BRANCH  28  29
HETATM   29  C   UNL     1     -43.618  55.550 -59.100  1.00  0.00     0.236 C 
BRANCH  29  30
HETATM   30  N   UNL     1     -45.056  56.031 -59.157  1.00  0.00    -0.067 N 
HETATM   31  H   UNL     1     -45.606  55.479 -58.487  1.00  0.00     0.280 HD
HETATM   32  C   UNL     1     -45.224  57.508 -58.800  1.00  0.00     0.261 C 
HETATM   33  C   UNL     1     -46.701  57.900 -58.914  1.00  0.00     0.195 C 
HETATM   34  O   UNL     1     -47.204  57.642 -60.228  1.00  0.00    -0.388 OA
HETATM   35  C   UNL     1     -47.114  56.255 -60.570  1.00  0.00     0.195 C 
HETATM   36  C   UNL     1     -45.658  55.778 -60.545  1.00  0.00     0.261 C 
ENDBRANCH  29  30
ENDBRANCH  28  29
ENDBRANCH  27  28
ENDBRANCH  25  27
ENDBRANCH   2  25
BRANCH   5  37
HETATM   37  N   UNL     1     -39.833  52.300 -51.578  1.00  0.00    -0.116 N 
HETATM   38  O   UNL     1     -39.094  51.355 -51.888  1.00  0.00    -0.532 OA
HETATM   39  O   UNL     1     -40.151  52.602 -50.421  1.00  0.00    -0.532 OA
ENDBRANCH   5  37
TORSDOF 11
ENDMDL
MODEL 8
REMARK VINA RESULT:      -7.6      2.967      7.016
REMARK  11 active torsions:
REMARK  status: ('A' for Active; 'I' for Inactive)
REMARK    1  A    between atoms: C_2  and  O_3 
REMARK    2  A    between atoms: O_3  and  C_4 
REMARK    3  A    between atoms: C_4  and  C_5 
REMARK    4  A    between atoms: C_6  and  N_7 
REMARK       I    between atoms: N_7  and  C_8 
REMARK    5  A    between atoms: C_8  and  C_9 
REMARK    6  A    between atoms: C_10  and  N_11 
REMARK    7  A    between atoms: N_11  and  C_12 
REMARK    8  A    between atoms: C_12  and  C_13 
REMARK    9  A    between atoms: C_13  and  C_14 
REMARK   10  A    between atoms: C_14  and  N_15 
REMARK   11  A    between atoms: C_24  and  N_25 
ROOT
HETATM    1  C   UNL     1     -41.760  54.507 -53.480  1.00  0.00     0.061 A 
HETATM    2  C   UNL     1     -41.211  54.326 -54.777  1.00  0.00     0.043 A 
HETATM    3  C   UNL     1     -40.233  53.325 -54.911  1.00  0.00     0.032 A 
HETATM    4  C   UNL     1     -39.837  52.525 -53.830  1.00  0.00     0.038 A 
HETATM    5  C   UNL     1     -40.400  52.731 -52.569  1.00  0.00     0.104 A 
HETATM    6  C   UNL     1     -41.361  53.723 -52.384  1.00  0.00     0.055 A 
ENDROOT
BRANCH   1   7
HETATM    7  C   UNL     1     -42.772  55.553 -53.184  1.00  0.00     0.258 C 
HETATM    8  N   UNL     1     -42.297  56.589 -52.401  1.00  0.00    -0.316 N 
HETATM    9  H   UNL     1     -41.335  56.544 -52.073  1.00  0.00     0.169 HD
HETATM   10  O   UNL     1     -43.896  55.393 -53.637  1.00  0.00    -0.267 OA
BRANCH   8  11
HETATM   11  C   UNL     1     -42.993  57.730 -52.024  1.00  0.00     0.094 A 
HETATM   12  C   UNL     1     -42.583  59.047 -52.207  1.00  0.00     0.080 A 
HETATM   13  C   UNL     1     -43.618  59.969 -51.770  1.00  0.00    -0.026 A 
HETATM   14  C   UNL     1     -44.736  59.294 -51.316  1.00  0.00    -0.008 A 
HETATM   15  C   UNL     1     -43.588  61.474 -51.808  1.00  0.00     0.041 C 
HETATM   16  S   UNL     1     -44.535  57.614 -51.327  1.00  0.00    -0.075 SA
HETATM   17  C   UNL     1     -45.999  59.926 -50.815  1.00  0.00     0.047 C 
HETATM   18  C   UNL     1     -46.064  61.400 -51.234  1.00  0.00     0.005 C 
HETATM   19  C   UNL     1     -44.726  62.106 -50.989  1.00  0.00     0.005 C 
BRANCH  12  20
HETATM   20  C   UNL     1     -41.259  59.372 -52.748  1.00  0.00     0.296 C 
HETATM   21  O   UNL     1     -40.952  59.148 -53.917  1.00  0.00    -0.259 OA
BRANCH  20  22
HETATM   22  O   UNL     1     -40.417  59.912 -51.826  1.00  0.00    -0.318 OA
BRANCH  22  23
HETATM   23  C   UNL     1     -39.706  59.001 -50.976  1.00  0.00     0.174 C 
HETATM   24  C   UNL     1     -38.645  59.748 -50.193  1.00  0.00     0.034 C 
ENDBRANCH  22  23
ENDBRANCH  20  22
ENDBRANCH  12  20
ENDBRANCH   8  11
ENDBRANCH   1   7
BRANCH   2  25
HETATM   25  N   UNL     1     -41.500  55.229 -55.817  1.00  0.00    -0.389 N 
HETATM   26  H   UNL     1     -41.364  56.199 -55.528  1.00  0.00     0.159 HD
BRANCH  25  27
HETATM   27  C   UNL     1     -42.672  55.051 -56.663  1.00  0.00     0.121 C 
BRANCH  27  28
HETATM   28  C   UNL     1     -43.257  56.426 -57.002  1.00  0.00     0.047 C 
BRANCH  28  29
HETATM   29  C   UNL     1     -42.327  57.544 -56.537  1.00  0.00     0.236 C 
BRANCH  29  30
HETATM   30  N   UNL     1     -43.118  58.749 -56.062  1.00  0.00    -0.067 N 
HETATM   31  H   UNL     1     -42.597  59.193 -55.295  1.00  0.00     0.280 HD
HETATM   32  C   UNL     1     -43.344  59.801 -57.148  1.00  0.00     0.261 C 
HETATM   33  C   UNL     1     -44.173  60.958 -56.579  1.00  0.00     0.195 C 
HETATM   34  O   UNL     1     -45.423  60.493 -56.062  1.00  0.00    -0.388 OA
HETATM   35  C   UNL     1     -45.243  59.548 -55.002  1.00  0.00     0.195 C 
HETATM   36  C   UNL     1     -44.474  58.317 -55.490  1.00  0.00     0.261 C 
ENDBRANCH  29  30
ENDBRANCH  28  29
ENDBRANCH  27  28
ENDBRANCH  25  27
ENDBRANCH   2  25
BRANCH   5  37
HETATM   37  N   UNL     1     -39.970  51.906 -51.433  1.00  0.00    -0.116 N 
HETATM   38  O   UNL     1     -39.285  50.905 -51.683  1.00  0.00    -0.532 OA
HETATM   39  O   UNL     1     -40.325  52.259 -50.302  1.00  0.00    -0.532 OA
ENDBRANCH   5  37
TORSDOF 11
ENDMDL
MODEL 9
REMARK VINA RESULT:      -7.5      2.490      6.479
REMARK  11 active torsions:
REMARK  status: ('A' for Active; 'I' for Inactive)
REMARK    1  A    between atoms: C_2  and  O_3 
REMARK    2  A    between atoms: O_3  and  C_4 
REMARK    3  A    between atoms: C_4  and  C_5 
REMARK    4  A    between atoms: C_6  and  N_7 
REMARK       I    between atoms: N_7  and  C_8 
REMARK    5  A    between atoms: C_8  and  C_9 
REMARK    6  A    between atoms: C_10  and  N_11 
REMARK    7  A    between atoms: N_11  and  C_12 
REMARK    8  A    between atoms: C_12  and  C_13 
REMARK    9  A    between atoms: C_13  and  C_14 
REMARK   10  A    between atoms: C_14  and  N_15 
REMARK   11  A    between atoms: C_24  and  N_25 
ROOT
HETATM    1  C   UNL     1     -42.446  57.786 -56.072  1.00  0.00     0.061 A 
HETATM    2  C   UNL     1     -42.824  59.122 -56.372  1.00  0.00     0.043 A 
HETATM    3  C   UNL     1     -43.295  59.365 -57.674  1.00  0.00     0.032 A 
HETATM    4  C   UNL     1     -43.414  58.339 -58.623  1.00  0.00     0.038 A 
HETATM    5  C   UNL     1     -43.034  57.036 -58.292  1.00  0.00     0.104 A 
HETATM    6  C   UNL     1     -42.545  56.752 -57.018  1.00  0.00     0.055 A 
ENDROOT
BRANCH   1   7
HETATM    7  C   UNL     1     -41.894  57.394 -54.751  1.00  0.00     0.258 C 
HETATM    8  N   UNL     1     -42.400  56.204 -54.261  1.00  0.00    -0.316 N 
HETATM    9  H   UNL     1     -43.108  55.719 -54.808  1.00  0.00     0.169 HD
HETATM   10  O   UNL     1     -41.081  58.147 -54.234  1.00  0.00    -0.267 OA
BRANCH   8  11
HETATM   11  C   UNL     1     -42.022  55.561 -53.089  1.00  0.00     0.094 A 
HETATM   12  C   UNL     1     -41.134  54.494 -52.981  1.00  0.00     0.080 A 
HETATM   13  C   UNL     1     -40.914  54.154 -51.586  1.00  0.00    -0.026 A 
HETATM   14  C   UNL     1     -41.622  54.992 -50.744  1.00  0.00    -0.008 A 
HETATM   15  C   UNL     1     -40.020  53.078 -51.029  1.00  0.00     0.041 C 
HETATM   16  S   UNL     1     -42.587  56.099 -51.584  1.00  0.00    -0.075 SA
HETATM   17  C   UNL     1     -41.611  54.945 -49.246  1.00  0.00     0.047 C 
HETATM   18  C   UNL     1     -40.418  54.120 -48.745  1.00  0.00     0.005 C 
HETATM   19  C   UNL     1     -40.275  52.815 -49.535  1.00  0.00     0.005 C 
BRANCH  12  20
HETATM   20  C   UNL     1     -40.566  53.844 -54.166  1.00  0.00     0.296 C 
HETATM   21  O   UNL     1     -39.846  54.441 -54.964  1.00  0.00    -0.259 OA
BRANCH  20  22
HETATM   22  O   UNL     1     -40.937  52.542 -54.297  1.00  0.00    -0.318 OA
BRANCH  22  23
HETATM   23  C   UNL     1     -39.887  51.568 -54.380  1.00  0.00     0.174 C 
HETATM   24  C   UNL     1     -40.468  50.174 -54.248  1.00  0.00     0.034 C 
ENDBRANCH  22  23
ENDBRANCH  20  22
ENDBRANCH  12  20
ENDBRANCH   8  11
ENDBRANCH   1   7
BRANCH   2  25
HETATM   25  N   UNL     1     -42.559  60.168 -55.469  1.00  0.00    -0.389 N 
HETATM   26  H   UNL     1     -41.641  60.072 -55.033  1.00  0.00     0.159 HD
BRANCH  25  27
HETATM   27  C   UNL     1     -43.579  60.637 -54.541  1.00  0.00     0.121 C 
BRANCH  27  28
HETATM   28  C   UNL     1     -42.903  61.412 -53.405  1.00  0.00     0.047 C 
BRANCH  28  29
HETATM   29  C   UNL     1     -42.504  60.475 -52.267  1.00  0.00     0.236 C 
BRANCH  29  30
HETATM   30  N   UNL     1     -43.515  60.529 -51.137  1.00  0.00    -0.067 N 
HETATM   31  H   UNL     1     -43.015  60.383 -50.251  1.00  0.00     0.280 HD
HETATM   32  C   UNL     1     -44.261  61.860 -51.044  1.00  0.00     0.261 C 
HETATM   33  C   UNL     1     -45.274  61.803 -49.895  1.00  0.00     0.195 C 
HETATM   34  O   UNL     1     -46.195  60.723 -50.072  1.00  0.00    -0.388 OA
HETATM   35  C   UNL     1     -45.531  59.456 -50.106  1.00  0.00     0.195 C 
HETATM   36  C   UNL     1     -44.534  59.390 -51.267  1.00  0.00     0.261 C 
ENDBRANCH  29  30
ENDBRANCH  28  29
ENDBRANCH  27  28
ENDBRANCH  25  27
ENDBRANCH   2  25
BRANCH   5  37
HETATM   37  N   UNL     1     -43.140  55.968 -59.292  1.00  0.00    -0.116 N 
HETATM   38  O   UNL     1     -43.922  55.038 -59.052  1.00  0.00    -0.532 OA
HETATM   39  O   UNL     1     -42.438  56.060 -60.306  1.00  0.00    -0.532 OA
ENDBRANCH   5  37
TORSDOF 11
ENDMDL
MODEL 10
REMARK VINA RESULT:      -7.3      2.763      8.305
REMARK  11 active torsions:
REMARK  status: ('A' for Active; 'I' for Inactive)
REMARK    1  A    between atoms: C_2  and  O_3 
REMARK    2  A    between atoms: O_3  and  C_4 
REMARK    3  A    between atoms: C_4  and  C_5 
REMARK    4  A    between atoms: C_6  and  N_7 
REMARK       I    between atoms: N_7  and  C_8 
REMARK    5  A    between atoms: C_8  and  C_9 
REMARK    6  A    between atoms: C_10  and  N_11 
REMARK    7  A    between atoms: N_11  and  C_12 
REMARK    8  A    between atoms: C_12  and  C_13 
REMARK    9  A    between atoms: C_13  and  C_14 
REMARK   10  A    between atoms: C_14  and  N_15 
REMARK   11  A    between atoms: C_24  and  N_25 
ROOT
HETATM    1  C   UNL     1     -42.504  54.683 -53.087  1.00  0.00     0.061 A 
HETATM    2  C   UNL     1     -42.896  54.915 -51.742  1.00  0.00     0.043 A 
HETATM    3  C   UNL     1     -42.221  54.176 -50.754  1.00  0.00     0.032 A 
HETATM    4  C   UNL     1     -41.194  53.276 -51.073  1.00  0.00     0.038 A 
HETATM    5  C   UNL     1     -40.836  53.074 -52.408  1.00  0.00     0.104 A 
HETATM    6  C   UNL     1     -41.489  53.771 -53.422  1.00  0.00     0.055 A 
ENDROOT
BRANCH   1   7
HETATM    7  C   UNL     1     -43.158  55.363 -54.233  1.00  0.00     0.258 C 
HETATM    8  N   UNL     1     -42.311  56.180 -54.959  1.00  0.00    -0.316 N 
HETATM    9  H   UNL     1     -41.348  56.275 -54.648  1.00  0.00     0.169 HD
HETATM   10  O   UNL     1     -44.349  55.150 -54.410  1.00  0.00    -0.267 OA
BRANCH   8  11
HETATM   11  C   UNL     1     -42.627  56.885 -56.114  1.00  0.00     0.094 A 
HETATM   12  C   UNL     1     -42.675  58.270 -56.250  1.00  0.00     0.080 A 
HETATM   13  C   UNL     1     -42.947  58.636 -57.629  1.00  0.00    -0.026 A 
HETATM   14  C   UNL     1     -43.061  57.519 -58.436  1.00  0.00    -0.008 A 
HETATM   15  C   UNL     1     -43.066  60.021 -58.209  1.00  0.00     0.041 C 
HETATM   16  S   UNL     1     -42.932  56.071 -57.570  1.00  0.00    -0.075 SA
HETATM   17  C   UNL     1     -43.314  57.525 -59.913  1.00  0.00     0.047 C 
HETATM   18  C   UNL     1     -43.039  58.916 -60.498  1.00  0.00     0.005 C 
HETATM   19  C   UNL     1     -43.656  60.017 -59.629  1.00  0.00     0.005 C 
BRANCH  12  20
HETATM   20  C   UNL     1     -42.491  59.162 -55.102  1.00  0.00     0.296 C 
HETATM   21  O   UNL     1     -43.376  59.920 -54.708  1.00  0.00    -0.259 OA
BRANCH  20  22
HETATM   22  O   UNL     1     -41.252  59.080 -54.547  1.00  0.00    -0.318 OA
BRANCH  22  23
HETATM   23  C   UNL     1     -41.151  59.307 -53.134  1.00  0.00     0.174 C 
HETATM   24  C   UNL     1     -40.674  58.045 -52.444  1.00  0.00     0.034 C 
ENDBRANCH  22  23
ENDBRANCH  20  22
ENDBRANCH  12  20
ENDBRANCH   8  11
ENDBRANCH   1   7
BRANCH   2  25
HETATM   25  N   UNL     1     -44.023  55.701 -51.442  1.00  0.00    -0.389 N 
HETATM   26  H   UNL     1     -44.789  55.536 -52.098  1.00  0.00     0.159 HD
BRANCH  25  27
HETATM   27  C   UNL     1     -43.887  57.105 -51.078  1.00  0.00     0.121 C 
BRANCH  27  28
HETATM   28  C   UNL     1     -44.671  57.960 -52.078  1.00  0.00     0.047 C 
BRANCH  28  29
HETATM   29  C   UNL     1     -45.512  59.011 -51.356  1.00  0.00     0.236 C 
BRANCH  29  30
HETATM   30  N   UNL     1     -44.641  59.910 -50.499  1.00  0.00    -0.067 N 
HETATM   31  H   UNL     1     -43.928  59.327 -50.043  1.00  0.00     0.280 HD
HETATM   32  C   UNL     1     -43.921  61.003 -51.290  1.00  0.00     0.261 C 
HETATM   33  C   UNL     1     -43.094  61.870 -50.334  1.00  0.00     0.195 C 
HETATM   34  O   UNL     1     -43.918  62.447 -49.317  1.00  0.00    -0.388 OA
HETATM   35  C   UNL     1     -44.561  61.447 -48.521  1.00  0.00     0.195 C 
HETATM   36  C   UNL     1     -45.466  60.560 -49.381  1.00  0.00     0.261 C 
ENDBRANCH  29  30
ENDBRANCH  28  29
ENDBRANCH  27  28
ENDBRANCH  25  27
ENDBRANCH   2  25
BRANCH   5  37
HETATM   37  N   UNL     1     -39.775  52.116 -52.742  1.00  0.00    -0.116 N 
HETATM   38  O   UNL     1     -39.150  51.607 -51.802  1.00  0.00    -0.532 OA
HETATM   39  O   UNL     1     -39.568  51.886 -53.940  1.00  0.00    -0.532 OA
ENDBRANCH   5  37
TORSDOF 11
ENDMDL
