MODEL 1
REMARK VINA RESULT:      -8.4      0.000      0.000
REMARK  3 active torsions:
REMARK  status: ('A' for Active; 'I' for Inactive)
REMARK    1  A    between atoms: C_2  and  C_3 
REMARK    2  A    between atoms: C_10  and  O_11 
REMARK    3  A    between atoms: C_10  and  C_12 
ROOT
HETATM    1  C   UNL     1     -39.992  51.953 -52.554  1.00  0.00    -0.058 A 
HETATM    2  C   UNL     1     -40.961  52.770 -51.948  1.00  0.00     0.020 A 
HETATM    3  C   UNL     1     -41.729  53.601 -52.752  1.00  0.00     0.018 A 
HETATM    4  C   UNL     1     -41.548  53.605 -54.136  1.00  0.00     0.045 A 
HETATM    5  N   UNL     1     -42.426  54.490 -54.739  1.00  0.00    -0.323 N 
HETATM    6  C   UNL     1     -43.235  55.130 -53.797  1.00  0.00     0.266 A 
HETATM    7  O   UNL     1     -44.107  55.938 -54.082  1.00  0.00    -0.269 OA
HETATM    8  C   UNL     1     -42.834  54.570 -52.380  1.00  0.00     0.198 A 
HETATM    9  C   UNL     1     -40.610  52.813 -54.762  1.00  0.00     0.031 A 
HETATM   10  C   UNL     1     -39.823  51.984 -53.956  1.00  0.00     0.009 A 
HETATM   11  H   UNL     1     -42.495  54.676 -55.728  1.00  0.00     0.169 HD
ENDROOT
BRANCH   8  12
HETATM   12  O   UNL     1     -43.907  53.870 -51.766  1.00  0.00    -0.371 OA
HETATM   13  H   UNL     1     -43.577  53.564 -50.906  1.00  0.00     0.212 HD
ENDBRANCH   8  12
BRANCH   8  14
HETATM   14  C   UNL     1     -42.190  55.614 -51.498  1.00  0.00     0.018 A 
HETATM   15  C   UNL     1     -41.436  56.769 -51.921  1.00  0.00     0.002 A 
HETATM   16  C   UNL     1     -41.066  57.478 -50.777  1.00  0.00     0.043 A 
HETATM   17  C   UNL     1     -41.042  57.286 -53.174  1.00  0.00     0.014 A 
HETATM   18  C   UNL     1     -40.331  58.670 -50.823  1.00  0.00     0.030 A 
HETATM   19  N   UNL     1     -41.549  56.783 -49.696  1.00  0.00    -0.365 N 
HETATM   20  C   UNL     1     -39.958  59.157 -52.078  1.00  0.00     0.002 A 
HETATM   21  C   UNL     1     -40.305  58.475 -53.239  1.00  0.00     0.001 A 
HETATM   22  H   UNL     1     -41.420  57.063 -48.734  1.00  0.00     0.165 HD
HETATM   23  C   UNL     1     -42.228  55.672 -50.111  1.00  0.00     0.100 A 
ENDBRANCH   8  14
BRANCH   1  24
HETATM   24  C   UNL     1     -39.105  51.079 -51.701  1.00  0.00     0.034 C 
HETATM   25  C   UNL     1     -39.914  50.271 -50.697  1.00  0.00     0.010 C 
ENDBRANCH   1  24
TORSDOF 3
ENDMDL
MODEL 2
REMARK VINA RESULT:      -8.4      1.469      1.714
REMARK  3 active torsions:
REMARK  status: ('A' for Active; 'I' for Inactive)
REMARK    1  A    between atoms: C_2  and  C_3 
REMARK    2  A    between atoms: C_10  and  O_11 
REMARK    3  A    between atoms: C_10  and  C_12 
ROOT
HETATM    1  C   UNL     1     -40.615  52.853 -53.333  1.00  0.00    -0.058 A 
HETATM    2  C   UNL     1     -41.774  53.610 -53.101  1.00  0.00     0.020 A 
HETATM    3  C   UNL     1     -42.143  54.569 -54.035  1.00  0.00     0.018 A 
HETATM    4  C   UNL     1     -41.380  54.756 -55.189  1.00  0.00     0.045 A 
HETATM    5  N   UNL     1     -41.936  55.744 -55.985  1.00  0.00    -0.323 N 
HETATM    6  C   UNL     1     -43.092  56.275 -55.408  1.00  0.00     0.266 A 
HETATM    7  O   UNL     1     -43.779  57.143 -55.928  1.00  0.00    -0.269 OA
HETATM    8  C   UNL     1     -43.328  55.514 -54.048  1.00  0.00     0.198 A 
HETATM    9  C   UNL     1     -40.240  54.027 -55.450  1.00  0.00     0.031 A 
HETATM   10  C   UNL     1     -39.856  53.070 -54.505  1.00  0.00     0.009 A 
HETATM   11  H   UNL     1     -41.575  56.065 -56.870  1.00  0.00     0.169 HD
ENDROOT
BRANCH   8  12
HETATM   12  O   UNL     1     -44.539  54.772 -54.062  1.00  0.00    -0.371 OA
HETATM   13  H   UNL     1     -44.854  54.776 -54.980  1.00  0.00     0.212 HD
ENDBRANCH   8  12
BRANCH   8  14
HETATM   14  C   UNL     1     -43.161  56.405 -52.841  1.00  0.00     0.018 A 
HETATM   15  C   UNL     1     -42.099  57.350 -52.593  1.00  0.00     0.002 A 
HETATM   16  C   UNL     1     -42.366  57.983 -51.379  1.00  0.00     0.043 A 
HETATM   17  C   UNL     1     -40.937  57.735 -53.297  1.00  0.00     0.014 A 
HETATM   18  C   UNL     1     -41.540  58.978 -50.838  1.00  0.00     0.030 A 
HETATM   19  N   UNL     1     -43.527  57.441 -50.887  1.00  0.00    -0.365 N 
HETATM   20  C   UNL     1     -40.399  59.338 -51.559  1.00  0.00     0.002 A 
HETATM   21  C   UNL     1     -40.098  58.725 -52.771  1.00  0.00     0.001 A 
HETATM   22  H   UNL     1     -43.955  57.707 -50.011  1.00  0.00     0.165 HD
HETATM   23  C   UNL     1     -44.016  56.503 -51.752  1.00  0.00     0.100 A 
ENDBRANCH   8  14
BRANCH   1  24
HETATM   24  C   UNL     1     -40.159  51.842 -52.310  1.00  0.00     0.034 C 
HETATM   25  C   UNL     1     -40.163  52.425 -50.905  1.00  0.00     0.010 C 
ENDBRANCH   1  24
TORSDOF 3
ENDMDL
MODEL 3
REMARK VINA RESULT:      -8.2      2.553      3.882
REMARK  3 active torsions:
REMARK  status: ('A' for Active; 'I' for Inactive)
REMARK    1  A    between atoms: C_2  and  C_3 
REMARK    2  A    between atoms: C_10  and  O_11 
REMARK    3  A    between atoms: C_10  and  C_12 
ROOT
HETATM    1  C   UNL     1     -40.229  53.211 -53.761  1.00  0.00    -0.058 A 
HETATM    2  C   UNL     1     -40.564  54.211 -52.833  1.00  0.00     0.020 A 
HETATM    3  C   UNL     1     -40.605  53.881 -51.485  1.00  0.00     0.018 A 
HETATM    4  C   UNL     1     -40.300  52.585 -51.068  1.00  0.00     0.045 A 
HETATM    5  N   UNL     1     -40.387  52.484 -49.689  1.00  0.00    -0.323 N 
HETATM    6  C   UNL     1     -40.760  53.698 -49.110  1.00  0.00     0.266 A 
HETATM    7  O   UNL     1     -40.879  53.873 -47.906  1.00  0.00    -0.269 OA
HETATM    8  C   UNL     1     -40.926  54.742 -50.279  1.00  0.00     0.198 A 
HETATM    9  C   UNL     1     -39.963  51.582 -51.952  1.00  0.00     0.031 A 
HETATM   10  C   UNL     1     -39.934  51.905 -53.312  1.00  0.00     0.009 A 
HETATM   11  H   UNL     1     -40.214  51.653 -49.143  1.00  0.00     0.169 HD
ENDROOT
BRANCH   8  12
HETATM   12  O   UNL     1     -39.987  55.803 -50.178  1.00  0.00    -0.371 OA
HETATM   13  H   UNL     1     -39.155  55.469 -50.548  1.00  0.00     0.212 HD
ENDBRANCH   8  12
BRANCH   8  14
HETATM   14  C   UNL     1     -42.355  55.195 -50.462  1.00  0.00     0.018 A 
HETATM   15  C   UNL     1     -42.813  56.508 -50.844  1.00  0.00     0.002 A 
HETATM   16  C   UNL     1     -44.205  56.465 -50.934  1.00  0.00     0.043 A 
HETATM   17  C   UNL     1     -42.171  57.732 -51.134  1.00  0.00     0.014 A 
HETATM   18  C   UNL     1     -44.981  57.573 -51.300  1.00  0.00     0.030 A 
HETATM   19  N   UNL     1     -44.593  55.190 -50.602  1.00  0.00    -0.365 N 
HETATM   20  C   UNL     1     -44.316  58.768 -51.583  1.00  0.00     0.002 A 
HETATM   21  C   UNL     1     -42.930  58.850 -51.499  1.00  0.00     0.001 A 
HETATM   22  H   UNL     1     -45.552  54.874 -50.574  1.00  0.00     0.165 HD
HETATM   23  C   UNL     1     -43.499  54.420 -50.325  1.00  0.00     0.100 A 
ENDBRANCH   8  14
BRANCH   1  24
HETATM   24  C   UNL     1     -40.228  53.525 -55.237  1.00  0.00     0.034 C 
HETATM   25  C   UNL     1     -41.142  54.698 -55.561  1.00  0.00     0.010 C 
ENDBRANCH   1  24
TORSDOF 3
ENDMDL
MODEL 4
REMARK VINA RESULT:      -8.2      1.825      5.547
REMARK  3 active torsions:
REMARK  status: ('A' for Active; 'I' for Inactive)
REMARK    1  A    between atoms: C_2  and  C_3 
REMARK    2  A    between atoms: C_10  and  O_11 
REMARK    3  A    between atoms: C_10  and  C_12 
ROOT
HETATM    1  C   UNL     1     -41.770  58.348 -51.330  1.00  0.00    -0.058 A 
HETATM    2  C   UNL     1     -41.177  57.294 -52.045  1.00  0.00     0.020 A 
HETATM    3  C   UNL     1     -41.989  56.472 -52.814  1.00  0.00     0.018 A 
HETATM    4  C   UNL     1     -43.363  56.707 -52.885  1.00  0.00     0.045 A 
HETATM    5  N   UNL     1     -43.973  55.782 -53.717  1.00  0.00    -0.323 N 
HETATM    6  C   UNL     1     -43.047  54.878 -54.242  1.00  0.00     0.266 A 
HETATM    7  O   UNL     1     -43.333  53.982 -55.024  1.00  0.00    -0.269 OA
HETATM    8  C   UNL     1     -41.630  55.280 -53.681  1.00  0.00     0.198 A 
HETATM    9  C   UNL     1     -43.976  57.734 -52.200  1.00  0.00     0.031 A 
HETATM   10  C   UNL     1     -43.165  58.557 -51.412  1.00  0.00     0.009 A 
HETATM   11  H   UNL     1     -44.957  55.738 -53.934  1.00  0.00     0.169 HD
ENDROOT
BRANCH   8  12
HETATM   12  O   UNL     1     -40.746  55.684 -54.717  1.00  0.00    -0.371 OA
HETATM   13  H   UNL     1     -39.848  55.515 -54.392  1.00  0.00     0.212 HD
ENDBRANCH   8  12
BRANCH   8  14
HETATM   14  C   UNL     1     -41.056  54.245 -52.744  1.00  0.00     0.018 A 
HETATM   15  C   UNL     1     -40.597  52.920 -53.081  1.00  0.00     0.002 A 
HETATM   16  C   UNL     1     -40.107  52.328 -51.916  1.00  0.00     0.043 A 
HETATM   17  C   UNL     1     -40.542  52.169 -54.276  1.00  0.00     0.014 A 
HETATM   18  C   UNL     1     -39.565  51.036 -51.886  1.00  0.00     0.030 A 
HETATM   19  N   UNL     1     -40.274  53.236 -50.900  1.00  0.00    -0.365 N 
HETATM   20  C   UNL     1     -39.523  50.320 -53.084  1.00  0.00     0.002 A 
HETATM   21  C   UNL     1     -40.006  50.876 -54.265  1.00  0.00     0.001 A 
HETATM   22  H   UNL     1     -40.014  53.071 -49.938  1.00  0.00     0.165 HD
HETATM   23  C   UNL     1     -40.833  54.387 -51.380  1.00  0.00     0.100 A 
ENDBRANCH   8  14
BRANCH   1  24
HETATM   24  C   UNL     1     -40.922  59.226 -50.443  1.00  0.00     0.034 C 
HETATM   25  C   UNL     1     -39.466  59.229 -50.885  1.00  0.00     0.010 C 
ENDBRANCH   1  24
TORSDOF 3
ENDMDL
MODEL 5
REMARK VINA RESULT:      -8.1      2.907      4.180
REMARK  3 active torsions:
REMARK  status: ('A' for Active; 'I' for Inactive)
REMARK    1  A    between atoms: C_2  and  C_3 
REMARK    2  A    between atoms: C_10  and  O_11 
REMARK    3  A    between atoms: C_10  and  C_12 
ROOT
HETATM    1  C   UNL     1     -39.521  50.489 -52.463  1.00  0.00    -0.058 A 
HETATM    2  C   UNL     1     -39.817  51.860 -52.388  1.00  0.00     0.020 A 
HETATM    3  C   UNL     1     -40.229  52.387 -51.172  1.00  0.00     0.018 A 
HETATM    4  C   UNL     1     -40.327  51.567 -50.047  1.00  0.00     0.045 A 
HETATM    5  N   UNL     1     -40.737  52.300 -48.945  1.00  0.00    -0.323 N 
HETATM    6  C   UNL     1     -40.942  53.642 -49.271  1.00  0.00     0.266 A 
HETATM    7  O   UNL     1     -41.281  54.497 -48.466  1.00  0.00    -0.269 OA
HETATM    8  C   UNL     1     -40.604  53.809 -50.801  1.00  0.00     0.198 A 
HETATM    9  C   UNL     1     -40.039  50.219 -50.084  1.00  0.00     0.031 A 
HETATM   10  C   UNL     1     -39.638  49.680 -51.310  1.00  0.00     0.009 A 
HETATM   11  H   UNL     1     -40.882  51.940 -48.014  1.00  0.00     0.169 HD
ENDROOT
BRANCH   8  12
HETATM   12  O   UNL     1     -39.494  54.671 -51.007  1.00  0.00    -0.371 OA
HETATM   13  H   UNL     1     -39.814  55.402 -51.560  1.00  0.00     0.212 HD
ENDBRANCH   8  12
BRANCH   8  14
HETATM   14  C   UNL     1     -41.816  54.148 -51.636  1.00  0.00     0.018 A 
HETATM   15  C   UNL     1     -41.840  54.522 -53.029  1.00  0.00     0.002 A 
HETATM   16  C   UNL     1     -43.174  54.703 -53.399  1.00  0.00     0.043 A 
HETATM   17  C   UNL     1     -40.850  54.714 -54.017  1.00  0.00     0.014 A 
HETATM   18  C   UNL     1     -43.565  55.059 -54.697  1.00  0.00     0.030 A 
HETATM   19  N   UNL     1     -43.938  54.473 -52.282  1.00  0.00    -0.365 N 
HETATM   20  C   UNL     1     -42.561  55.239 -55.652  1.00  0.00     0.002 A 
HETATM   21  C   UNL     1     -41.221  55.071 -55.319  1.00  0.00     0.001 A 
HETATM   22  H   UNL     1     -44.946  54.542 -52.256  1.00  0.00     0.165 HD
HETATM   23  C   UNL     1     -43.142  54.134 -51.224  1.00  0.00     0.100 A 
ENDBRANCH   8  14
BRANCH   1  24
HETATM   24  C   UNL     1     -39.123  49.875 -53.783  1.00  0.00     0.034 C 
HETATM   25  C   UNL     1     -40.255  49.945 -54.797  1.00  0.00     0.010 C 
ENDBRANCH   1  24
TORSDOF 3
ENDMDL
MODEL 6
REMARK VINA RESULT:      -7.7      2.365      3.084
REMARK  3 active torsions:
REMARK  status: ('A' for Active; 'I' for Inactive)
REMARK    1  A    between atoms: C_2  and  C_3 
REMARK    2  A    between atoms: C_10  and  O_11 
REMARK    3  A    between atoms: C_10  and  C_12 
ROOT
HETATM    1  C   UNL     1     -40.903  53.478 -52.558  1.00  0.00    -0.058 A 
HETATM    2  C   UNL     1     -41.910  54.434 -52.769  1.00  0.00     0.020 A 
HETATM    3  C   UNL     1     -42.121  54.906 -54.057  1.00  0.00     0.018 A 
HETATM    4  C   UNL     1     -41.356  54.422 -55.118  1.00  0.00     0.045 A 
HETATM    5  N   UNL     1     -41.745  55.014 -56.309  1.00  0.00    -0.323 N 
HETATM    6  C   UNL     1     -42.781  55.928 -56.110  1.00  0.00     0.266 A 
HETATM    7  O   UNL     1     -43.316  56.562 -57.009  1.00  0.00    -0.269 OA
HETATM    8  C   UNL     1     -43.125  55.919 -54.572  1.00  0.00     0.198 A 
HETATM    9  C   UNL     1     -40.363  53.480 -54.947  1.00  0.00     0.031 A 
HETATM   10  C   UNL     1     -40.137  53.011 -53.650  1.00  0.00     0.009 A 
HETATM   11  H   UNL     1     -41.348  54.833 -57.218  1.00  0.00     0.169 HD
ENDROOT
BRANCH   8  12
HETATM   12  O   UNL     1     -44.446  55.459 -54.328  1.00  0.00    -0.371 OA
HETATM   13  H   UNL     1     -44.744  55.032 -55.148  1.00  0.00     0.212 HD
ENDBRANCH   8  12
BRANCH   8  14
HETATM   14  C   UNL     1     -42.786  57.223 -53.888  1.00  0.00     0.018 A 
HETATM   15  C   UNL     1     -43.517  57.865 -52.823  1.00  0.00     0.002 A 
HETATM   16  C   UNL     1     -42.823  59.023 -52.469  1.00  0.00     0.043 A 
HETATM   17  C   UNL     1     -44.701  57.563 -52.116  1.00  0.00     0.014 A 
HETATM   18  C   UNL     1     -43.248  59.886 -51.449  1.00  0.00     0.030 A 
HETATM   19  N   UNL     1     -41.726  59.106 -53.290  1.00  0.00    -0.365 N 
HETATM   20  C   UNL     1     -44.422  59.558 -50.767  1.00  0.00     0.002 A 
HETATM   21  C   UNL     1     -45.142  58.414 -51.096  1.00  0.00     0.001 A 
HETATM   22  H   UNL     1     -41.047  59.853 -53.263  1.00  0.00     0.165 HD
HETATM   23  C   UNL     1     -41.688  58.034 -54.138  1.00  0.00     0.100 A 
ENDBRANCH   8  14
BRANCH   1  24
HETATM   24  C   UNL     1     -40.613  52.985 -51.162  1.00  0.00     0.034 C 
HETATM   25  C   UNL     1     -40.121  54.109 -50.262  1.00  0.00     0.010 C 
ENDBRANCH   1  24
TORSDOF 3
ENDMDL
MODEL 7
REMARK VINA RESULT:      -7.6      1.265      5.869
REMARK  3 active torsions:
REMARK  status: ('A' for Active; 'I' for Inactive)
REMARK    1  A    between atoms: C_2  and  C_3 
REMARK    2  A    between atoms: C_10  and  O_11 
REMARK    3  A    between atoms: C_10  and  C_12 
ROOT
HETATM    1  C   UNL     1     -41.626  58.941 -52.807  1.00  0.00    -0.058 A 
HETATM    2  C   UNL     1     -42.378  57.754 -52.815  1.00  0.00     0.020 A 
HETATM    3  C   UNL     1     -42.221  56.861 -51.764  1.00  0.00     0.018 A 
HETATM    4  C   UNL     1     -41.346  57.152 -50.717  1.00  0.00     0.045 A 
HETATM    5  N   UNL     1     -41.359  56.136 -49.775  1.00  0.00    -0.323 N 
HETATM    6  C   UNL     1     -42.234  55.111 -50.141  1.00  0.00     0.266 A 
HETATM    7  O   UNL     1     -42.442  54.115 -49.462  1.00  0.00    -0.269 OA
HETATM    8  C   UNL     1     -42.894  55.525 -51.510  1.00  0.00     0.198 A 
HETATM    9  C   UNL     1     -40.598  58.309 -50.676  1.00  0.00     0.031 A 
HETATM   10  C   UNL     1     -40.741  59.206 -51.739  1.00  0.00     0.009 A 
HETATM   11  H   UNL     1     -40.816  56.108 -48.925  1.00  0.00     0.169 HD
ENDROOT
BRANCH   8  12
HETATM   12  O   UNL     1     -44.298  55.706 -51.387  1.00  0.00    -0.371 OA
HETATM   13  H   UNL     1     -44.439  56.202 -50.565  1.00  0.00     0.212 HD
ENDBRANCH   8  12
BRANCH   8  14
HETATM   14  C   UNL     1     -42.482  54.630 -52.655  1.00  0.00     0.018 A 
HETATM   15  C   UNL     1     -41.403  53.672 -52.669  1.00  0.00     0.002 A 
HETATM   16  C   UNL     1     -41.412  53.040 -53.913  1.00  0.00     0.043 A 
HETATM   17  C   UNL     1     -40.424  53.275 -51.733  1.00  0.00     0.014 A 
HETATM   18  C   UNL     1     -40.501  52.034 -54.265  1.00  0.00     0.030 A 
HETATM   19  N   UNL     1     -42.434  53.594 -54.643  1.00  0.00    -0.365 N 
HETATM   20  C   UNL     1     -39.545  51.662 -53.316  1.00  0.00     0.002 A 
HETATM   21  C   UNL     1     -39.504  52.274 -52.067  1.00  0.00     0.001 A 
HETATM   22  H   UNL     1     -42.667  53.332 -55.590  1.00  0.00     0.165 HD
HETATM   23  C   UNL     1     -43.086  54.540 -53.902  1.00  0.00     0.100 A 
ENDBRANCH   8  14
BRANCH   1  24
HETATM   24  C   UNL     1     -41.734  59.907 -53.961  1.00  0.00     0.034 C 
HETATM   25  C   UNL     1     -42.110  59.197 -55.254  1.00  0.00     0.010 C 
ENDBRANCH   1  24
TORSDOF 3
ENDMDL
MODEL 8
REMARK VINA RESULT:      -7.5      2.989      4.832
REMARK  3 active torsions:
REMARK  status: ('A' for Active; 'I' for Inactive)
REMARK    1  A    between atoms: C_2  and  C_3 
REMARK    2  A    between atoms: C_10  and  O_11 
REMARK    3  A    between atoms: C_10  and  C_12 
ROOT
HETATM    1  C   UNL     1     -41.024  53.609 -52.196  1.00  0.00    -0.058 A 
HETATM    2  C   UNL     1     -41.129  54.591 -53.195  1.00  0.00     0.020 A 
HETATM    3  C   UNL     1     -42.167  55.509 -53.119  1.00  0.00     0.018 A 
HETATM    4  C   UNL     1     -43.073  55.462 -52.059  1.00  0.00     0.045 A 
HETATM    5  N   UNL     1     -44.010  56.475 -52.174  1.00  0.00    -0.323 N 
HETATM    6  C   UNL     1     -43.790  57.249 -53.315  1.00  0.00     0.266 A 
HETATM    7  O   UNL     1     -44.466  58.219 -53.625  1.00  0.00    -0.269 OA
HETATM    8  C   UNL     1     -42.518  56.663 -54.039  1.00  0.00     0.198 A 
HETATM    9  C   UNL     1     -42.996  54.515 -51.060  1.00  0.00     0.031 A 
HETATM   10  C   UNL     1     -41.961  53.578 -51.139  1.00  0.00     0.009 A 
HETATM   11  H   UNL     1     -44.770  56.656 -51.535  1.00  0.00     0.169 HD
ENDROOT
BRANCH   8  12
HETATM   12  O   UNL     1     -41.450  57.598 -54.072  1.00  0.00    -0.371 OA
HETATM   13  H   UNL     1     -41.398  57.986 -53.184  1.00  0.00     0.212 HD
ENDBRANCH   8  12
BRANCH   8  14
HETATM   14  C   UNL     1     -42.840  56.042 -55.377  1.00  0.00     0.018 A 
HETATM   15  C   UNL     1     -42.675  56.640 -56.680  1.00  0.00     0.002 A 
HETATM   16  C   UNL     1     -43.057  55.696 -57.634  1.00  0.00     0.043 A 
HETATM   17  C   UNL     1     -42.224  57.897 -57.139  1.00  0.00     0.014 A 
HETATM   18  C   UNL     1     -43.007  55.941 -59.013  1.00  0.00     0.030 A 
HETATM   19  N   UNL     1     -43.460  54.573 -56.954  1.00  0.00    -0.365 N 
HETATM   20  C   UNL     1     -42.554  57.193 -59.435  1.00  0.00     0.002 A 
HETATM   21  C   UNL     1     -42.170  58.161 -58.513  1.00  0.00     0.001 A 
HETATM   22  H   UNL     1     -43.799  53.730 -57.395  1.00  0.00     0.165 HD
HETATM   23  C   UNL     1     -43.330  54.763 -55.607  1.00  0.00     0.100 A 
ENDBRANCH   8  14
BRANCH   1  24
HETATM   24  C   UNL     1     -39.939  52.564 -52.279  1.00  0.00     0.034 C 
HETATM   25  C   UNL     1     -39.927  51.875 -53.636  1.00  0.00     0.010 C 
ENDBRANCH   1  24
TORSDOF 3
ENDMDL
MODEL 9
REMARK VINA RESULT:      -7.4      2.669      4.107
REMARK  3 active torsions:
REMARK  status: ('A' for Active; 'I' for Inactive)
REMARK    1  A    between atoms: C_2  and  C_3 
REMARK    2  A    between atoms: C_10  and  O_11 
REMARK    3  A    between atoms: C_10  and  C_12 
ROOT
HETATM    1  C   UNL     1     -40.779  53.333 -53.214  1.00  0.00    -0.058 A 
HETATM    2  C   UNL     1     -41.070  54.680 -53.485  1.00  0.00     0.020 A 
HETATM    3  C   UNL     1     -41.087  55.583 -52.431  1.00  0.00     0.018 A 
HETATM    4  C   UNL     1     -40.801  55.156 -51.134  1.00  0.00     0.045 A 
HETATM    5  N   UNL     1     -40.858  56.219 -50.248  1.00  0.00    -0.323 N 
HETATM    6  C   UNL     1     -41.189  57.410 -50.898  1.00  0.00     0.266 A 
HETATM    7  O   UNL     1     -41.276  58.493 -50.338  1.00  0.00    -0.269 OA
HETATM    8  C   UNL     1     -41.360  57.075 -52.428  1.00  0.00     0.198 A 
HETATM    9  C   UNL     1     -40.507  53.843 -50.834  1.00  0.00     0.031 A 
HETATM   10  C   UNL     1     -40.503  52.926 -51.890  1.00  0.00     0.009 A 
HETATM   11  H   UNL     1     -40.690  56.172 -49.254  1.00  0.00     0.169 HD
ENDROOT
BRANCH   8  12
HETATM   12  O   UNL     1     -40.395  57.745 -53.227  1.00  0.00    -0.371 OA
HETATM   13  H   UNL     1     -39.827  57.056 -53.607  1.00  0.00     0.212 HD
ENDBRANCH   8  12
BRANCH   8  14
HETATM   14  C   UNL     1     -42.782  57.236 -52.909  1.00  0.00     0.018 A 
HETATM   15  C   UNL     1     -43.222  57.548 -54.247  1.00  0.00     0.002 A 
HETATM   16  C   UNL     1     -44.618  57.557 -54.246  1.00  0.00     0.043 A 
HETATM   17  C   UNL     1     -42.562  57.813 -55.466  1.00  0.00     0.014 A 
HETATM   18  C   UNL     1     -45.380  57.811 -55.394  1.00  0.00     0.030 A 
HETATM   19  N   UNL     1     -45.023  57.285 -52.963  1.00  0.00    -0.365 N 
HETATM   20  C   UNL     1     -44.697  58.068 -56.585  1.00  0.00     0.002 A 
HETATM   21  C   UNL     1     -43.307  58.072 -56.623  1.00  0.00     0.001 A 
HETATM   22  H   UNL     1     -45.988  57.237 -52.667  1.00  0.00     0.165 HD
HETATM   23  C   UNL     1     -43.939  57.085 -52.155  1.00  0.00     0.100 A 
ENDBRANCH   8  14
BRANCH   1  24
HETATM   24  C   UNL     1     -40.806  52.318 -54.330  1.00  0.00     0.034 C 
HETATM   25  C   UNL     1     -39.916  51.123 -54.022  1.00  0.00     0.010 C 
ENDBRANCH   1  24
TORSDOF 3
ENDMDL
MODEL 10
REMARK VINA RESULT:      -7.3      3.101      5.907
REMARK  3 active torsions:
REMARK  status: ('A' for Active; 'I' for Inactive)
REMARK    1  A    between atoms: C_2  and  C_3 
REMARK    2  A    between atoms: C_10  and  O_11 
REMARK    3  A    between atoms: C_10  and  C_12 
ROOT
HETATM    1  C   UNL     1     -43.163  56.184 -58.368  1.00  0.00    -0.058 A 
HETATM    2  C   UNL     1     -43.234  55.478 -57.156  1.00  0.00     0.020 A 
HETATM    3  C   UNL     1     -43.067  56.177 -55.968  1.00  0.00     0.018 A 
HETATM    4  C   UNL     1     -42.851  57.555 -55.987  1.00  0.00     0.045 A 
HETATM    5  N   UNL     1     -42.729  58.046 -54.697  1.00  0.00    -0.323 N 
HETATM    6  C   UNL     1     -42.849  57.028 -53.749  1.00  0.00     0.266 A 
HETATM    7  O   UNL     1     -42.804  57.209 -52.541  1.00  0.00    -0.269 OA
HETATM    8  C   UNL     1     -43.099  55.684 -54.534  1.00  0.00     0.198 A 
HETATM    9  C   UNL     1     -42.779  58.279 -57.158  1.00  0.00     0.031 A 
HETATM   10  C   UNL     1     -42.933  57.578 -58.358  1.00  0.00     0.009 A 
HETATM   11  H   UNL     1     -42.569  59.009 -54.441  1.00  0.00     0.169 HD
ENDROOT
BRANCH   8  12
HETATM   12  O   UNL     1     -44.373  55.129 -54.241  1.00  0.00    -0.371 OA
HETATM   13  H   UNL     1     -44.504  55.233 -53.285  1.00  0.00     0.212 HD
ENDBRANCH   8  12
BRANCH   8  14
HETATM   14  C   UNL     1     -41.953  54.709 -54.406  1.00  0.00     0.018 A 
HETATM   15  C   UNL     1     -41.532  54.006 -53.218  1.00  0.00     0.002 A 
HETATM   16  C   UNL     1     -40.463  53.180 -53.568  1.00  0.00     0.043 A 
HETATM   17  C   UNL     1     -41.970  53.987 -51.876  1.00  0.00     0.014 A 
HETATM   18  C   UNL     1     -39.817  52.339 -52.651  1.00  0.00     0.030 A 
HETATM   19  N   UNL     1     -40.219  53.378 -54.904  1.00  0.00    -0.365 N 
HETATM   20  C   UNL     1     -40.275  52.341 -51.332  1.00  0.00     0.002 A 
HETATM   21  C   UNL     1     -41.336  53.155 -50.946  1.00  0.00     0.001 A 
HETATM   22  H   UNL     1     -39.489  52.913 -55.426  1.00  0.00     0.165 HD
HETATM   23  C   UNL     1     -41.104  54.282 -55.419  1.00  0.00     0.100 A 
ENDBRANCH   8  14
BRANCH   1  24
HETATM   24  C   UNL     1     -43.287  55.445 -59.678  1.00  0.00     0.034 C 
HETATM   25  C   UNL     1     -44.740  55.145 -60.017  1.00  0.00     0.010 C 
ENDBRANCH   1  24
TORSDOF 3
ENDMDL
