MODEL 1
REMARK VINA RESULT:      -7.4      0.000      0.000
REMARK  6 active torsions:
REMARK  status: ('A' for Active; 'I' for Inactive)
REMARK    1  A    between atoms: C_2  and  O_3 
REMARK    2  A    between atoms: O_3  and  C_4 
REMARK    3  A    between atoms: C_8  and  C_9 
REMARK    4  A    between atoms: C_9  and  N_10 
REMARK       I    between atoms: N_10  and  C_11 
REMARK       I    between atoms: C_11  and  N_12 
REMARK    5  A    between atoms: N_12  and  C_13 
REMARK    6  A    between atoms: C_14  and  C_15 
ROOT
HETATM    1  N   UNL     1     -41.790  54.896 -54.565  1.00  0.00    -0.339 N 
HETATM    2  C   UNL     1     -43.029  54.856 -55.132  1.00  0.00     0.316 C 
HETATM    3  N   UNL     1     -43.809  55.958 -54.961  1.00  0.00    -0.338 N 
HETATM    4  O   UNL     1     -43.459  53.894 -55.762  1.00  0.00    -0.247 OA
HETATM    5  H   UNL     1     -41.406  55.813 -54.406  1.00  0.00     0.164 HD
HETATM    6  H   UNL     1     -44.716  55.863 -55.403  1.00  0.00     0.164 HD
ENDROOT
BRANCH   1   7
HETATM    7  C   UNL     1     -40.874  53.815 -54.831  1.00  0.00     0.163 C 
BRANCH   7   8
HETATM    8  C   UNL     1     -40.484  53.062 -53.591  1.00  0.00    -0.035 A 
HETATM    9  C   UNL     1     -39.699  51.910 -53.673  1.00  0.00     0.028 A 
HETATM   10  C   UNL     1     -39.428  51.205 -52.511  1.00  0.00     0.120 A 
HETATM   11  N   UNL     1     -39.889  51.559 -51.294  1.00  0.00    -0.237 NA
HETATM   12  C   UNL     1     -40.656  52.662 -51.231  1.00  0.00     0.165 A 
HETATM   13  C   UNL     1     -40.959  53.449 -52.333  1.00  0.00     0.066 A 
BRANCH  12  14
HETATM   14  O   UNL     1     -41.143  53.094 -50.021  1.00  0.00    -0.324 OA
BRANCH  14  15
HETATM   15  C   UNL     1     -40.498  54.205 -49.369  1.00  0.00     0.058 C 
HETATM   16  C   UNL     1     -41.344  55.486 -49.391  1.00  0.00     0.045 C 
HETATM   17  C   UNL     1     -39.072  54.449 -49.889  1.00  0.00     0.045 C 
HETATM   18  C   UNL     1     -40.385  53.752 -47.900  1.00  0.00     0.045 C 
ENDBRANCH  14  15
ENDBRANCH  12  14
ENDBRANCH   7   8
ENDBRANCH   1   7
BRANCH   3  19
HETATM   19  C   UNL     1     -43.525  57.163 -54.252  1.00  0.00     0.095 A 
HETATM   20  C   UNL     1     -43.578  57.257 -52.741  1.00  0.00     0.043 A 
HETATM   21  C   UNL     1     -44.673  57.867 -53.584  1.00  0.00     0.037 A 
BRANCH  20  22
HETATM   22  C   UNL     1     -42.669  58.194 -51.976  1.00  0.00    -0.052 A 
HETATM   23  C   UNL     1     -41.280  57.973 -51.933  1.00  0.00     0.007 A 
HETATM   24  C   UNL     1     -40.426  58.821 -51.225  1.00  0.00     0.001 A 
HETATM   25  C   UNL     1     -40.943  59.921 -50.549  1.00  0.00     0.000 A 
HETATM   26  C   UNL     1     -42.311  60.175 -50.591  1.00  0.00     0.001 A 
HETATM   27  C   UNL     1     -43.162  59.322 -51.301  1.00  0.00     0.007 A 
ENDBRANCH  20  22
ENDBRANCH   3  19
TORSDOF 6
ENDMDL
MODEL 2
REMARK VINA RESULT:      -7.3      4.210      8.765
REMARK  6 active torsions:
REMARK  status: ('A' for Active; 'I' for Inactive)
REMARK    1  A    between atoms: C_2  and  O_3 
REMARK    2  A    between atoms: O_3  and  C_4 
REMARK    3  A    between atoms: C_8  and  C_9 
REMARK    4  A    between atoms: C_9  and  N_10 
REMARK       I    between atoms: N_10  and  C_11 
REMARK       I    between atoms: C_11  and  N_12 
REMARK    5  A    between atoms: N_12  and  C_13 
REMARK    6  A    between atoms: C_14  and  C_15 
ROOT
HETATM    1  N   UNL     1     -43.094  56.213 -55.443  1.00  0.00    -0.339 N 
HETATM    2  C   UNL     1     -43.022  56.425 -54.098  1.00  0.00     0.316 C 
HETATM    3  N   UNL     1     -42.378  55.474 -53.369  1.00  0.00    -0.338 N 
HETATM    4  O   UNL     1     -43.508  57.404 -53.536  1.00  0.00    -0.247 OA
HETATM    5  H   UNL     1     -42.383  55.618 -55.835  1.00  0.00     0.164 HD
HETATM    6  H   UNL     1     -42.364  55.690 -52.378  1.00  0.00     0.164 HD
ENDROOT
BRANCH   1   7
HETATM    7  C   UNL     1     -43.641  57.254 -56.278  1.00  0.00     0.163 C 
BRANCH   7   8
HETATM    8  C   UNL     1     -43.234  57.121 -57.717  1.00  0.00    -0.035 A 
HETATM    9  C   UNL     1     -43.320  55.890 -58.372  1.00  0.00     0.028 A 
HETATM   10  C   UNL     1     -42.860  55.796 -59.676  1.00  0.00     0.120 A 
HETATM   11  N   UNL     1     -42.320  56.827 -60.358  1.00  0.00    -0.237 NA
HETATM   12  C   UNL     1     -42.230  58.003 -59.710  1.00  0.00     0.165 A 
HETATM   13  C   UNL     1     -42.687  58.203 -58.416  1.00  0.00     0.066 A 
BRANCH  12  14
HETATM   14  O   UNL     1     -41.709  59.103 -60.350  1.00  0.00    -0.324 OA
BRANCH  14  15
HETATM   15  C   UNL     1     -42.587  60.198 -60.674  1.00  0.00     0.058 C 
HETATM   16  C   UNL     1     -42.597  61.296 -59.601  1.00  0.00     0.045 C 
HETATM   17  C   UNL     1     -44.006  59.731 -61.033  1.00  0.00     0.045 C 
HETATM   18  C   UNL     1     -41.961  60.803 -61.947  1.00  0.00     0.045 C 
ENDBRANCH  14  15
ENDBRANCH  12  14
ENDBRANCH   7   8
ENDBRANCH   1   7
BRANCH   3  19
HETATM   19  C   UNL     1     -41.771  54.259 -53.806  1.00  0.00     0.095 A 
HETATM   20  C   UNL     1     -40.452  53.757 -53.255  1.00  0.00     0.043 A 
HETATM   21  C   UNL     1     -40.524  54.363 -54.638  1.00  0.00     0.037 A 
BRANCH  20  22
HETATM   22  C   UNL     1     -40.154  52.278 -53.146  1.00  0.00    -0.052 A 
HETATM   23  C   UNL     1     -40.213  51.448 -54.281  1.00  0.00     0.007 A 
HETATM   24  C   UNL     1     -39.950  50.078 -54.200  1.00  0.00     0.001 A 
HETATM   25  C   UNL     1     -39.610  49.508 -52.978  1.00  0.00     0.000 A 
HETATM   26  C   UNL     1     -39.525  50.309 -51.843  1.00  0.00     0.001 A 
HETATM   27  C   UNL     1     -39.790  51.680 -51.930  1.00  0.00     0.007 A 
ENDBRANCH  20  22
ENDBRANCH   3  19
TORSDOF 6
ENDMDL
MODEL 3
REMARK VINA RESULT:      -7.3      3.097      8.218
REMARK  6 active torsions:
REMARK  status: ('A' for Active; 'I' for Inactive)
REMARK    1  A    between atoms: C_2  and  O_3 
REMARK    2  A    between atoms: O_3  and  C_4 
REMARK    3  A    between atoms: C_8  and  C_9 
REMARK    4  A    between atoms: C_9  and  N_10 
REMARK       I    between atoms: N_10  and  C_11 
REMARK       I    between atoms: C_11  and  N_12 
REMARK    5  A    between atoms: N_12  and  C_13 
REMARK    6  A    between atoms: C_14  and  C_15 
ROOT
HETATM    1  N   UNL     1     -43.922  56.113 -53.638  1.00  0.00    -0.339 N 
HETATM    2  C   UNL     1     -43.128  56.392 -52.566  1.00  0.00     0.316 C 
HETATM    3  N   UNL     1     -42.194  55.456 -52.245  1.00  0.00    -0.338 N 
HETATM    4  O   UNL     1     -43.225  57.416 -51.894  1.00  0.00    -0.247 OA
HETATM    5  H   UNL     1     -43.543  55.472 -54.315  1.00  0.00     0.164 HD
HETATM    6  H   UNL     1     -41.641  55.722 -51.439  1.00  0.00     0.164 HD
ENDROOT
BRANCH   1   7
HETATM    7  C   UNL     1     -44.834  57.130 -54.105  1.00  0.00     0.163 C 
BRANCH   7   8
HETATM    8  C   UNL     1     -44.214  58.045 -55.122  1.00  0.00    -0.035 A 
HETATM    9  C   UNL     1     -44.481  59.416 -55.104  1.00  0.00     0.028 A 
HETATM   10  C   UNL     1     -43.950  60.210 -56.108  1.00  0.00     0.120 A 
HETATM   11  N   UNL     1     -43.192  59.737 -57.119  1.00  0.00    -0.237 NA
HETATM   12  C   UNL     1     -42.956  58.412 -57.132  1.00  0.00     0.165 A 
HETATM   13  C   UNL     1     -43.419  57.541 -56.158  1.00  0.00     0.066 A 
BRANCH  12  14
HETATM   14  O   UNL     1     -42.175  57.862 -58.121  1.00  0.00    -0.324 OA
BRANCH  14  15
HETATM   15  C   UNL     1     -42.801  57.449 -59.351  1.00  0.00     0.058 C 
HETATM   16  C   UNL     1     -44.254  57.929 -59.474  1.00  0.00     0.045 C 
HETATM   17  C   UNL     1     -42.671  55.938 -59.602  1.00  0.00     0.045 C 
HETATM   18  C   UNL     1     -41.983  58.173 -60.439  1.00  0.00     0.045 C 
ENDBRANCH  14  15
ENDBRANCH  12  14
ENDBRANCH   7   8
ENDBRANCH   1   7
BRANCH   3  19
HETATM   19  C   UNL     1     -41.928  54.198 -52.864  1.00  0.00     0.095 A 
HETATM   20  C   UNL     1     -40.524  53.694 -53.126  1.00  0.00     0.043 A 
HETATM   21  C   UNL     1     -41.376  54.211 -54.262  1.00  0.00     0.037 A 
BRANCH  20  22
HETATM   22  C   UNL     1     -40.198  52.217 -53.103  1.00  0.00    -0.052 A 
HETATM   23  C   UNL     1     -39.740  51.601 -51.923  1.00  0.00     0.007 A 
HETATM   24  C   UNL     1     -39.425  50.241 -51.883  1.00  0.00     0.001 A 
HETATM   25  C   UNL     1     -39.572  49.460 -53.024  1.00  0.00     0.000 A 
HETATM   26  C   UNL     1     -40.042  50.039 -54.200  1.00  0.00     0.001 A 
HETATM   27  C   UNL     1     -40.355  51.402 -54.234  1.00  0.00     0.007 A 
ENDBRANCH  20  22
ENDBRANCH   3  19
TORSDOF 6
ENDMDL
MODEL 4
REMARK VINA RESULT:      -7.3      3.160      7.525
REMARK  6 active torsions:
REMARK  status: ('A' for Active; 'I' for Inactive)
REMARK    1  A    between atoms: C_2  and  O_3 
REMARK    2  A    between atoms: O_3  and  C_4 
REMARK    3  A    between atoms: C_8  and  C_9 
REMARK    4  A    between atoms: C_9  and  N_10 
REMARK       I    between atoms: N_10  and  C_11 
REMARK       I    between atoms: C_11  and  N_12 
REMARK    5  A    between atoms: N_12  and  C_13 
REMARK    6  A    between atoms: C_14  and  C_15 
ROOT
HETATM    1  N   UNL     1     -43.303  56.784 -52.731  1.00  0.00    -0.339 N 
HETATM    2  C   UNL     1     -43.351  57.321 -51.479  1.00  0.00     0.316 C 
HETATM    3  N   UNL     1     -42.467  56.824 -50.573  1.00  0.00    -0.338 N 
HETATM    4  O   UNL     1     -44.142  58.200 -51.145  1.00  0.00    -0.247 OA
HETATM    5  H   UNL     1     -42.426  56.368 -53.000  1.00  0.00     0.164 HD
HETATM    6  H   UNL     1     -42.557  57.262 -49.663  1.00  0.00     0.164 HD
ENDROOT
BRANCH   1   7
HETATM    7  C   UNL     1     -44.121  57.368 -53.765  1.00  0.00     0.163 C 
BRANCH   7   8
HETATM    8  C   UNL     1     -43.799  56.837 -55.133  1.00  0.00    -0.035 A 
HETATM    9  C   UNL     1     -43.182  55.593 -55.288  1.00  0.00     0.028 A 
HETATM   10  C   UNL     1     -42.833  55.178 -56.563  1.00  0.00     0.120 A 
HETATM   11  N   UNL     1     -43.045  55.910 -57.676  1.00  0.00    -0.237 NA
HETATM   12  C   UNL     1     -43.627  57.113 -57.510  1.00  0.00     0.165 A 
HETATM   13  C   UNL     1     -44.036  57.603 -56.280  1.00  0.00     0.066 A 
BRANCH  12  14
HETATM   14  O   UNL     1     -43.891  57.905 -58.602  1.00  0.00    -0.324 OA
BRANCH  14  15
HETATM   15  C   UNL     1     -42.809  58.643 -59.203  1.00  0.00     0.058 C 
HETATM   16  C   UNL     1     -42.063  57.842 -60.279  1.00  0.00     0.045 C 
HETATM   17  C   UNL     1     -41.849  59.238 -58.160  1.00  0.00     0.045 C 
HETATM   18  C   UNL     1     -43.515  59.818 -59.909  1.00  0.00     0.045 C 
ENDBRANCH  14  15
ENDBRANCH  12  14
ENDBRANCH   7   8
ENDBRANCH   1   7
BRANCH   3  19
HETATM   19  C   UNL     1     -41.490  55.796 -50.735  1.00  0.00     0.095 A 
HETATM   20  C   UNL     1     -41.852  54.328 -50.818  1.00  0.00     0.043 A 
HETATM   21  C   UNL     1     -41.227  54.893 -49.563  1.00  0.00     0.037 A 
BRANCH  20  22
HETATM   22  C   UNL     1     -41.032  53.358 -51.640  1.00  0.00    -0.052 A 
HETATM   23  C   UNL     1     -40.161  52.445 -51.017  1.00  0.00     0.007 A 
HETATM   24  C   UNL     1     -39.389  51.548 -51.759  1.00  0.00     0.001 A 
HETATM   25  C   UNL     1     -39.478  51.537 -53.147  1.00  0.00     0.000 A 
HETATM   26  C   UNL     1     -40.346  52.417 -53.788  1.00  0.00     0.001 A 
HETATM   27  C   UNL     1     -41.116  53.313 -53.041  1.00  0.00     0.007 A 
ENDBRANCH  20  22
ENDBRANCH   3  19
TORSDOF 6
ENDMDL
MODEL 5
REMARK VINA RESULT:      -7.1      3.838      8.187
REMARK  6 active torsions:
REMARK  status: ('A' for Active; 'I' for Inactive)
REMARK    1  A    between atoms: C_2  and  O_3 
REMARK    2  A    between atoms: O_3  and  C_4 
REMARK    3  A    between atoms: C_8  and  C_9 
REMARK    4  A    between atoms: C_9  and  N_10 
REMARK       I    between atoms: N_10  and  C_11 
REMARK       I    between atoms: C_11  and  N_12 
REMARK    5  A    between atoms: N_12  and  C_13 
REMARK    6  A    between atoms: C_14  and  C_15 
ROOT
HETATM    1  N   UNL     1     -42.275  57.910 -55.667  1.00  0.00    -0.339 N 
HETATM    2  C   UNL     1     -43.414  57.618 -54.977  1.00  0.00     0.316 C 
HETATM    3  N   UNL     1     -43.319  56.637 -54.039  1.00  0.00    -0.338 N 
HETATM    4  O   UNL     1     -44.488  58.181 -55.169  1.00  0.00    -0.247 OA
HETATM    5  H   UNL     1     -41.408  57.680 -55.209  1.00  0.00     0.164 HD
HETATM    6  H   UNL     1     -44.199  56.468 -53.566  1.00  0.00     0.164 HD
ENDROOT
BRANCH   1   7
HETATM    7  C   UNL     1     -42.284  59.032 -56.573  1.00  0.00     0.163 C 
BRANCH   7   8
HETATM    8  C   UNL     1     -42.292  58.616 -58.017  1.00  0.00    -0.035 A 
HETATM    9  C   UNL     1     -42.047  59.548 -59.028  1.00  0.00     0.028 A 
HETATM   10  C   UNL     1     -42.141  59.136 -60.348  1.00  0.00     0.120 A 
HETATM   11  N   UNL     1     -42.468  57.882 -60.723  1.00  0.00    -0.237 NA
HETATM   12  C   UNL     1     -42.716  56.999 -59.738  1.00  0.00     0.165 A 
HETATM   13  C   UNL     1     -42.621  57.308 -58.389  1.00  0.00     0.066 A 
BRANCH  12  14
HETATM   14  O   UNL     1     -43.035  55.698 -60.045  1.00  0.00    -0.324 OA
BRANCH  14  15
HETATM   15  C   UNL     1     -44.424  55.323 -60.118  1.00  0.00     0.058 C 
HETATM   16  C   UNL     1     -44.864  54.927 -61.535  1.00  0.00     0.045 C 
HETATM   17  C   UNL     1     -45.355  56.379 -59.501  1.00  0.00     0.045 C 
HETATM   18  C   UNL     1     -44.509  54.059 -59.239  1.00  0.00     0.045 C 
ENDBRANCH  14  15
ENDBRANCH  12  14
ENDBRANCH   7   8
ENDBRANCH   1   7
BRANCH   3  19
HETATM   19  C   UNL     1     -42.191  55.843 -53.675  1.00  0.00     0.095 A 
HETATM   20  C   UNL     1     -42.304  54.611 -52.802  1.00  0.00     0.043 A 
HETATM   21  C   UNL     1     -41.734  55.894 -52.245  1.00  0.00     0.037 A 
BRANCH  20  22
HETATM   22  C   UNL     1     -41.365  53.436 -52.970  1.00  0.00    -0.052 A 
HETATM   23  C   UNL     1     -40.509  53.045 -51.924  1.00  0.00     0.007 A 
HETATM   24  C   UNL     1     -39.629  51.969 -52.062  1.00  0.00     0.001 A 
HETATM   25  C   UNL     1     -39.594  51.249 -53.252  1.00  0.00     0.000 A 
HETATM   26  C   UNL     1     -40.444  51.602 -54.296  1.00  0.00     0.001 A 
HETATM   27  C   UNL     1     -41.322  52.681 -54.153  1.00  0.00     0.007 A 
ENDBRANCH  20  22
ENDBRANCH   3  19
TORSDOF 6
ENDMDL
MODEL 6
REMARK VINA RESULT:      -7.1      3.133      7.733
REMARK  6 active torsions:
REMARK  status: ('A' for Active; 'I' for Inactive)
REMARK    1  A    between atoms: C_2  and  O_3 
REMARK    2  A    between atoms: O_3  and  C_4 
REMARK    3  A    between atoms: C_8  and  C_9 
REMARK    4  A    between atoms: C_9  and  N_10 
REMARK       I    between atoms: N_10  and  C_11 
REMARK       I    between atoms: C_11  and  N_12 
REMARK    5  A    between atoms: N_12  and  C_13 
REMARK    6  A    between atoms: C_14  and  C_15 
ROOT
HETATM    1  N   UNL     1     -43.900  56.689 -52.800  1.00  0.00    -0.339 N 
HETATM    2  C   UNL     1     -44.103  57.034 -51.497  1.00  0.00     0.316 C 
HETATM    3  N   UNL     1     -43.217  56.535 -50.593  1.00  0.00    -0.338 N 
HETATM    4  O   UNL     1     -45.029  57.746 -51.118  1.00  0.00    -0.247 OA
HETATM    5  H   UNL     1     -42.958  56.433 -53.048  1.00  0.00     0.164 HD
HETATM    6  H   UNL     1     -43.426  56.825 -49.645  1.00  0.00     0.164 HD
ENDROOT
BRANCH   1   7
HETATM    7  C   UNL     1     -44.725  57.300 -53.813  1.00  0.00     0.163 C 
BRANCH   7   8
HETATM    8  C   UNL     1     -43.925  57.873 -54.948  1.00  0.00    -0.035 A 
HETATM    9  C   UNL     1     -42.820  58.691 -54.700  1.00  0.00     0.028 A 
HETATM   10  C   UNL     1     -42.159  59.260 -55.777  1.00  0.00     0.120 A 
HETATM   11  N   UNL     1     -42.525  59.081 -57.063  1.00  0.00    -0.237 NA
HETATM   12  C   UNL     1     -43.600  58.303 -57.286  1.00  0.00     0.165 A 
HETATM   13  C   UNL     1     -44.309  57.668 -56.278  1.00  0.00     0.066 A 
BRANCH  12  14
HETATM   14  O   UNL     1     -44.018  58.060 -58.573  1.00  0.00    -0.324 OA
BRANCH  14  15
HETATM   15  C   UNL     1     -43.348  57.040 -59.340  1.00  0.00     0.058 C 
HETATM   16  C   UNL     1     -43.034  55.782 -58.518  1.00  0.00     0.045 C 
HETATM   17  C   UNL     1     -42.106  57.573 -60.073  1.00  0.00     0.045 C 
HETATM   18  C   UNL     1     -44.386  56.646 -60.410  1.00  0.00     0.045 C 
ENDBRANCH  14  15
ENDBRANCH  12  14
ENDBRANCH   7   8
ENDBRANCH   1   7
BRANCH   3  19
HETATM   19  C   UNL     1     -42.097  55.677 -50.807  1.00  0.00     0.095 A 
HETATM   20  C   UNL     1     -42.217  54.167 -50.849  1.00  0.00     0.043 A 
HETATM   21  C   UNL     1     -41.617  54.854 -49.645  1.00  0.00     0.037 A 
BRANCH  20  22
HETATM   22  C   UNL     1     -41.302  53.327 -51.712  1.00  0.00    -0.052 A 
HETATM   23  C   UNL     1     -41.450  53.310 -53.112  1.00  0.00     0.007 A 
HETATM   24  C   UNL     1     -40.622  52.534 -53.926  1.00  0.00     0.001 A 
HETATM   25  C   UNL     1     -39.615  51.761 -53.356  1.00  0.00     0.000 A 
HETATM   26  C   UNL     1     -39.434  51.774 -51.976  1.00  0.00     0.001 A 
HETATM   27  C   UNL     1     -40.266  52.553 -51.166  1.00  0.00     0.007 A 
ENDBRANCH  20  22
ENDBRANCH   3  19
TORSDOF 6
ENDMDL
MODEL 7
REMARK VINA RESULT:      -6.8      3.378      8.040
REMARK  6 active torsions:
REMARK  status: ('A' for Active; 'I' for Inactive)
REMARK    1  A    between atoms: C_2  and  O_3 
REMARK    2  A    between atoms: O_3  and  C_4 
REMARK    3  A    between atoms: C_8  and  C_9 
REMARK    4  A    between atoms: C_9  and  N_10 
REMARK       I    between atoms: N_10  and  C_11 
REMARK       I    between atoms: C_11  and  N_12 
REMARK    5  A    between atoms: N_12  and  C_13 
REMARK    6  A    between atoms: C_14  and  C_15 
ROOT
HETATM    1  N   UNL     1     -43.844  56.834 -52.610  1.00  0.00    -0.339 N 
HETATM    2  C   UNL     1     -44.024  56.885 -51.259  1.00  0.00     0.316 C 
HETATM    3  N   UNL     1     -43.083  56.263 -50.499  1.00  0.00    -0.338 N 
HETATM    4  O   UNL     1     -44.976  57.444 -50.721  1.00  0.00    -0.247 OA
HETATM    5  H   UNL     1     -42.898  56.694 -52.925  1.00  0.00     0.164 HD
HETATM    6  H   UNL     1     -43.278  56.335 -49.507  1.00  0.00     0.164 HD
ENDROOT
BRANCH   1   7
HETATM    7  C   UNL     1     -44.734  57.592 -53.455  1.00  0.00     0.163 C 
BRANCH   7   8
HETATM    8  C   UNL     1     -44.378  57.496 -54.911  1.00  0.00    -0.035 A 
HETATM    9  C   UNL     1     -43.475  56.529 -55.362  1.00  0.00     0.028 A 
HETATM   10  C   UNL     1     -43.117  56.527 -56.701  1.00  0.00     0.120 A 
HETATM   11  N   UNL     1     -43.582  57.414 -57.604  1.00  0.00    -0.237 NA
HETATM   12  C   UNL     1     -44.439  58.349 -57.153  1.00  0.00     0.165 A 
HETATM   13  C   UNL     1     -44.878  58.416 -55.839  1.00  0.00     0.066 A 
BRANCH  12  14
HETATM   14  O   UNL     1     -44.969  59.274 -58.021  1.00  0.00    -0.324 OA
BRANCH  14  15
HETATM   15  C   UNL     1     -45.923  58.833 -59.007  1.00  0.00     0.058 C 
HETATM   16  C   UNL     1     -46.866  57.741 -58.482  1.00  0.00     0.045 C 
HETATM   17  C   UNL     1     -45.259  58.431 -60.333  1.00  0.00     0.045 C 
HETATM   18  C   UNL     1     -46.776  60.089 -59.276  1.00  0.00     0.045 C 
ENDBRANCH  14  15
ENDBRANCH  12  14
ENDBRANCH   7   8
ENDBRANCH   1   7
BRANCH   3  19
HETATM   19  C   UNL     1     -41.925  55.538 -50.911  1.00  0.00     0.095 A 
HETATM   20  C   UNL     1     -41.799  54.036 -50.757  1.00  0.00     0.043 A 
HETATM   21  C   UNL     1     -41.042  54.967 -49.838  1.00  0.00     0.037 A 
BRANCH  20  22
HETATM   22  C   UNL     1     -41.001  53.206 -51.738  1.00  0.00    -0.052 A 
HETATM   23  C   UNL     1     -40.039  52.285 -51.283  1.00  0.00     0.007 A 
HETATM   24  C   UNL     1     -39.285  51.516 -52.172  1.00  0.00     0.001 A 
HETATM   25  C   UNL     1     -39.485  51.644 -53.543  1.00  0.00     0.000 A 
HETATM   26  C   UNL     1     -40.444  52.533 -54.020  1.00  0.00     0.001 A 
HETATM   27  C   UNL     1     -41.195  53.301 -53.125  1.00  0.00     0.007 A 
ENDBRANCH  20  22
ENDBRANCH   3  19
TORSDOF 6
ENDMDL
MODEL 8
REMARK VINA RESULT:      -6.7      3.275      7.746
REMARK  6 active torsions:
REMARK  status: ('A' for Active; 'I' for Inactive)
REMARK    1  A    between atoms: C_2  and  O_3 
REMARK    2  A    between atoms: O_3  and  C_4 
REMARK    3  A    between atoms: C_8  and  C_9 
REMARK    4  A    between atoms: C_9  and  N_10 
REMARK       I    between atoms: N_10  and  C_11 
REMARK       I    between atoms: C_11  and  N_12 
REMARK    5  A    between atoms: N_12  and  C_13 
REMARK    6  A    between atoms: C_14  and  C_15 
ROOT
HETATM    1  N   UNL     1     -44.060  58.287 -52.132  1.00  0.00    -0.339 N 
HETATM    2  C   UNL     1     -44.693  57.718 -51.067  1.00  0.00     0.316 C 
HETATM    3  N   UNL     1     -44.189  56.534 -50.626  1.00  0.00    -0.338 N 
HETATM    4  O   UNL     1     -45.674  58.210 -50.515  1.00  0.00    -0.247 OA
HETATM    5  H   UNL     1     -43.098  58.023 -52.267  1.00  0.00     0.164 HD
HETATM    6  H   UNL     1     -44.706  56.163 -49.837  1.00  0.00     0.164 HD
ENDROOT
BRANCH   1   7
HETATM    7  C   UNL     1     -44.466  59.607 -52.552  1.00  0.00     0.163 C 
BRANCH   7   8
HETATM    8  C   UNL     1     -44.764  59.684 -54.022  1.00  0.00    -0.035 A 
HETATM    9  C   UNL     1     -45.332  60.834 -54.575  1.00  0.00     0.028 A 
HETATM   10  C   UNL     1     -45.661  60.832 -55.921  1.00  0.00     0.120 A 
HETATM   11  N   UNL     1     -45.476  59.776 -56.738  1.00  0.00    -0.237 NA
HETATM   12  C   UNL     1     -44.941  58.670 -56.189  1.00  0.00     0.165 A 
HETATM   13  C   UNL     1     -44.554  58.583 -54.860  1.00  0.00     0.066 A 
BRANCH  12  14
HETATM   14  O   UNL     1     -44.704  57.561 -56.967  1.00  0.00    -0.324 OA
BRANCH  14  15
HETATM   15  C   UNL     1     -43.615  57.594 -57.910  1.00  0.00     0.058 C 
HETATM   16  C   UNL     1     -42.376  58.320 -57.368  1.00  0.00     0.045 C 
HETATM   17  C   UNL     1     -44.041  58.130 -59.285  1.00  0.00     0.045 C 
HETATM   18  C   UNL     1     -43.240  56.109 -58.086  1.00  0.00     0.045 C 
ENDBRANCH  14  15
ENDBRANCH  12  14
ENDBRANCH   7   8
ENDBRANCH   1   7
BRANCH   3  19
HETATM   19  C   UNL     1     -43.088  55.778 -51.129  1.00  0.00     0.095 A 
HETATM   20  C   UNL     1     -43.257  54.641 -52.115  1.00  0.00     0.043 A 
HETATM   21  C   UNL     1     -42.948  54.357 -50.664  1.00  0.00     0.037 A 
BRANCH  20  22
HETATM   22  C   UNL     1     -42.193  54.320 -53.141  1.00  0.00    -0.052 A 
HETATM   23  C   UNL     1     -41.255  53.297 -52.908  1.00  0.00     0.007 A 
HETATM   24  C   UNL     1     -40.259  52.992 -53.838  1.00  0.00     0.001 A 
HETATM   25  C   UNL     1     -40.184  53.700 -55.033  1.00  0.00     0.000 A 
HETATM   26  C   UNL     1     -41.111  54.705 -55.298  1.00  0.00     0.001 A 
HETATM   27  C   UNL     1     -42.106  55.006 -54.363  1.00  0.00     0.007 A 
ENDBRANCH  20  22
ENDBRANCH   3  19
TORSDOF 6
ENDMDL
MODEL 9
REMARK VINA RESULT:      -6.7      3.200      7.240
REMARK  6 active torsions:
REMARK  status: ('A' for Active; 'I' for Inactive)
REMARK    1  A    between atoms: C_2  and  O_3 
REMARK    2  A    between atoms: O_3  and  C_4 
REMARK    3  A    between atoms: C_8  and  C_9 
REMARK    4  A    between atoms: C_9  and  N_10 
REMARK       I    between atoms: N_10  and  C_11 
REMARK       I    between atoms: C_11  and  N_12 
REMARK    5  A    between atoms: N_12  and  C_13 
REMARK    6  A    between atoms: C_14  and  C_15 
ROOT
HETATM    1  N   UNL     1     -42.128  57.078 -57.390  1.00  0.00    -0.339 N 
HETATM    2  C   UNL     1     -43.045  56.095 -57.617  1.00  0.00     0.316 C 
HETATM    3  N   UNL     1     -43.048  55.056 -56.738  1.00  0.00    -0.338 N 
HETATM    4  O   UNL     1     -43.834  56.104 -58.558  1.00  0.00    -0.247 OA
HETATM    5  H   UNL     1     -41.803  57.170 -56.441  1.00  0.00     0.164 HD
HETATM    6  H   UNL     1     -43.748  54.359 -56.966  1.00  0.00     0.164 HD
ENDROOT
BRANCH   1   7
HETATM    7  C   UNL     1     -42.173  58.266 -58.207  1.00  0.00     0.163 C 
BRANCH   7   8
HETATM    8  C   UNL     1     -42.567  59.492 -57.433  1.00  0.00    -0.035 A 
HETATM    9  C   UNL     1     -42.255  60.767 -57.909  1.00  0.00     0.028 A 
HETATM   10  C   UNL     1     -42.569  61.866 -57.124  1.00  0.00     0.120 A 
HETATM   11  N   UNL     1     -43.153  61.780 -55.912  1.00  0.00    -0.237 NA
HETATM   12  C   UNL     1     -43.435  60.545 -55.459  1.00  0.00     0.165 A 
HETATM   13  C   UNL     1     -43.185  59.388 -56.181  1.00  0.00     0.066 A 
BRANCH  12  14
HETATM   14  O   UNL     1     -44.049  60.382 -54.239  1.00  0.00    -0.324 OA
BRANCH  14  15
HETATM   15  C   UNL     1     -43.250  60.467 -53.043  1.00  0.00     0.058 C 
HETATM   16  C   UNL     1     -43.281  61.860 -52.400  1.00  0.00     0.045 C 
HETATM   17  C   UNL     1     -41.814  59.962 -53.255  1.00  0.00     0.045 C 
HETATM   18  C   UNL     1     -43.946  59.494 -52.070  1.00  0.00     0.045 C 
ENDBRANCH  14  15
ENDBRANCH  12  14
ENDBRANCH   7   8
ENDBRANCH   1   7
BRANCH   3  19
HETATM   19  C   UNL     1     -42.211  54.831 -55.604  1.00  0.00     0.095 A 
HETATM   20  C   UNL     1     -42.539  53.811 -54.533  1.00  0.00     0.043 A 
HETATM   21  C   UNL     1     -42.715  55.288 -54.265  1.00  0.00     0.037 A 
BRANCH  20  22
HETATM   22  C   UNL     1     -41.450  53.080 -53.780  1.00  0.00    -0.052 A 
HETATM   23  C   UNL     1     -40.737  52.030 -54.387  1.00  0.00     0.007 A 
HETATM   24  C   UNL     1     -39.734  51.336 -53.706  1.00  0.00     0.001 A 
HETATM   25  C   UNL     1     -39.414  51.686 -52.398  1.00  0.00     0.000 A 
HETATM   26  C   UNL     1     -40.090  52.733 -51.779  1.00  0.00     0.001 A 
HETATM   27  C   UNL     1     -41.093  53.424 -52.466  1.00  0.00     0.007 A 
ENDBRANCH  20  22
ENDBRANCH   3  19
TORSDOF 6
ENDMDL
MODEL 10
REMARK VINA RESULT:      -6.6      5.455      9.153
REMARK  6 active torsions:
REMARK  status: ('A' for Active; 'I' for Inactive)
REMARK    1  A    between atoms: C_2  and  O_3 
REMARK    2  A    between atoms: O_3  and  C_4 
REMARK    3  A    between atoms: C_8  and  C_9 
REMARK    4  A    between atoms: C_9  and  N_10 
REMARK       I    between atoms: N_10  and  C_11 
REMARK       I    between atoms: C_11  and  N_12 
REMARK    5  A    between atoms: N_12  and  C_13 
REMARK    6  A    between atoms: C_14  and  C_15 
ROOT
HETATM    1  N   UNL     1     -42.306  56.509 -58.740  1.00  0.00    -0.339 N 
HETATM    2  C   UNL     1     -43.365  55.651 -58.693  1.00  0.00     0.316 C 
HETATM    3  N   UNL     1     -43.587  55.030 -57.503  1.00  0.00    -0.338 N 
HETATM    4  O   UNL     1     -44.095  55.418 -59.652  1.00  0.00    -0.247 OA
HETATM    5  H   UNL     1     -42.016  56.903 -57.860  1.00  0.00     0.164 HD
HETATM    6  H   UNL     1     -44.384  54.405 -57.536  1.00  0.00     0.164 HD
ENDROOT
BRANCH   1   7
HETATM    7  C   UNL     1     -42.109  57.297 -59.932  1.00  0.00     0.163 C 
BRANCH   7   8
HETATM    8  C   UNL     1     -42.723  58.665 -59.835  1.00  0.00    -0.035 A 
HETATM    9  C   UNL     1     -44.050  58.880 -60.216  1.00  0.00     0.028 A 
HETATM   10  C   UNL     1     -44.550  60.171 -60.183  1.00  0.00     0.120 A 
HETATM   11  N   UNL     1     -43.828  61.248 -59.812  1.00  0.00    -0.237 NA
HETATM   12  C   UNL     1     -42.547  61.028 -59.461  1.00  0.00     0.165 A 
HETATM   13  C   UNL     1     -41.964  59.771 -59.435  1.00  0.00     0.066 A 
BRANCH  12  14
HETATM   14  O   UNL     1     -41.757  62.076 -59.051  1.00  0.00    -0.324 OA
BRANCH  14  15
HETATM   15  C   UNL     1     -40.942  62.753 -60.028  1.00  0.00     0.058 C 
HETATM   16  C   UNL     1     -41.042  62.130 -61.428  1.00  0.00     0.045 C 
HETATM   17  C   UNL     1     -39.483  62.913 -59.572  1.00  0.00     0.045 C 
HETATM   18  C   UNL     1     -41.561  64.163 -60.106  1.00  0.00     0.045 C 
ENDBRANCH  14  15
ENDBRANCH  12  14
ENDBRANCH   7   8
ENDBRANCH   1   7
BRANCH   3  19
HETATM   19  C   UNL     1     -42.857  55.131 -56.281  1.00  0.00     0.095 A 
HETATM   20  C   UNL     1     -43.214  54.335 -55.043  1.00  0.00     0.043 A 
HETATM   21  C   UNL     1     -43.528  55.811 -55.121  1.00  0.00     0.037 A 
BRANCH  20  22
HETATM   22  C   UNL     1     -42.156  53.888 -54.059  1.00  0.00    -0.052 A 
HETATM   23  C   UNL     1     -42.025  54.520 -52.808  1.00  0.00     0.007 A 
HETATM   24  C   UNL     1     -41.049  54.128 -51.889  1.00  0.00     0.001 A 
HETATM   25  C   UNL     1     -40.184  53.084 -52.198  1.00  0.00     0.000 A 
HETATM   26  C   UNL     1     -40.303  52.429 -53.420  1.00  0.00     0.001 A 
HETATM   27  C   UNL     1     -41.282  52.825 -54.337  1.00  0.00     0.007 A 
ENDBRANCH  20  22
ENDBRANCH   3  19
TORSDOF 6
ENDMDL
