MODEL 1
REMARK VINA RESULT:      -6.9      0.000      0.000
REMARK  14 active torsions:
REMARK  status: ('A' for Active; 'I' for Inactive)
REMARK    1  A    between atoms: C_2  and  O_3 
REMARK    2  A    between atoms: O_3  and  C_4 
REMARK    3  A    between atoms: C_5  and  O_6 
REMARK    4  A    between atoms: C_9  and  C_10 
REMARK    5  A    between atoms: N_11  and  C_12 
REMARK    6  A    between atoms: C_12  and  C_13 
REMARK    7  A    between atoms: C_13  and  C_14 
REMARK    8  A    between atoms: C_14  and  N_15 
REMARK    9  A    between atoms: C_21  and  O_22 
REMARK   10  A    between atoms: C_23  and  C_24 
REMARK   11  A    between atoms: C_24  and  C_25 
REMARK   12  A    between atoms: C_29  and  O_30 
REMARK   13  A    between atoms: O_30  and  C_31 
REMARK   14  A    between atoms: C_31  and  C_32 
ROOT
HETATM    1  C   UNL     1     -42.521  60.383 -52.943  1.00  0.00     0.161 A 
HETATM    2  N   UNL     1     -43.342  61.063 -51.942  1.00  0.00    -0.333 N 
HETATM    3  C   UNL     1     -42.932  60.763 -50.665  1.00  0.00     0.278 A 
HETATM    4  O   UNL     1     -43.367  61.235 -49.625  1.00  0.00    -0.265 OA
HETATM    5  C   UNL     1     -41.868  59.748 -50.760  1.00  0.00     0.146 A 
HETATM    6  C   UNL     1     -41.625  59.553 -52.062  1.00  0.00     0.059 A 
ENDROOT
BRANCH   6   7
HETATM    7  C   UNL     1     -40.608  58.674 -52.676  1.00  0.00     0.193 C 
HETATM    8  O   UNL     1     -39.490  59.098 -52.951  1.00  0.00    -0.287 OA
BRANCH   7   9
HETATM    9  C   UNL     1     -40.917  57.260 -52.950  1.00  0.00     0.015 A 
HETATM   10  C   UNL     1     -41.301  56.407 -51.911  1.00  0.00     0.025 A 
HETATM   11  C   UNL     1     -41.542  55.050 -52.173  1.00  0.00    -0.028 A 
HETATM   12  C   UNL     1     -41.935  54.129 -51.051  1.00  0.00     0.051 C 
HETATM   13  C   UNL     1     -41.364  54.556 -53.479  1.00  0.00     0.074 A 
HETATM   14  C   UNL     1     -40.986  55.421 -54.511  1.00  0.00     0.038 A 
HETATM   15  C   UNL     1     -40.745  56.771 -54.245  1.00  0.00     0.018 A 
BRANCH  13  16
HETATM   16  O   UNL     1     -41.598  53.217 -53.644  1.00  0.00    -0.350 OA
BRANCH  16  17
HETATM   17  C   UNL     1     -40.589  52.461 -54.318  1.00  0.00     0.179 C 
BRANCH  17  18
HETATM   18  C   UNL     1     -40.240  51.215 -53.490  1.00  0.00     0.002 C 
HETATM   19  C   UNL     1     -39.539  50.163 -54.354  1.00  0.00     0.011 C 
HETATM   20  C   UNL     1     -39.367  51.567 -52.286  1.00  0.00     0.011 C 
ENDBRANCH  17  18
ENDBRANCH  16  17
ENDBRANCH  13  16
ENDBRANCH   7   9
ENDBRANCH   6   7
BRANCH   1  21
HETATM   21  C   UNL     1     -43.386  59.660 -53.957  1.00  0.00    -0.028 A 
HETATM   22  C   UNL     1     -44.268  58.660 -53.501  1.00  0.00     0.012 A 
HETATM   23  C   UNL     1     -45.071  57.954 -54.393  1.00  0.00     0.040 A 
HETATM   24  C   UNL     1     -45.010  58.256 -55.745  1.00  0.00     0.099 A 
HETATM   25  C   UNL     1     -44.164  59.256 -56.229  1.00  0.00     0.102 A 
HETATM   26  C   UNL     1     -43.330  59.936 -55.338  1.00  0.00     0.049 A 
BRANCH  24  27
HETATM   27  O   UNL     1     -45.821  57.558 -56.596  1.00  0.00    -0.358 OA
HETATM   28  H   UNL     1     -46.330  56.947 -56.029  1.00  0.00     0.218 HD
ENDBRANCH  24  27
BRANCH  25  29
HETATM   29  O   UNL     1     -44.219  59.462 -57.583  1.00  0.00    -0.349 OA
BRANCH  29  30
HETATM   30  C   UNL     1     -43.046  59.110 -58.317  1.00  0.00     0.171 C 
HETATM   31  C   UNL     1     -43.394  57.939 -59.218  1.00  0.00     0.034 C 
ENDBRANCH  29  30
ENDBRANCH  25  29
ENDBRANCH   1  21
BRANCH   5  32
HETATM   32  O   UNL     1     -41.275  59.178 -49.677  1.00  0.00    -0.355 OA
HETATM   33  H   UNL     1     -40.412  59.616 -49.547  1.00  0.00     0.218 HD
ENDBRANCH   5  32
BRANCH   2  34
HETATM   34  C   UNL     1     -44.225  62.170 -52.264  1.00  0.00     0.129 C 
BRANCH  34  35
HETATM   35  C   UNL     1     -45.712  61.866 -52.057  1.00  0.00     0.048 C 
BRANCH  35  36
HETATM   36  C   UNL     1     -46.485  62.757 -51.082  1.00  0.00     0.235 C 
BRANCH  36  37
HETATM   37  N   UNL     1     -45.792  62.983 -49.759  1.00  0.00    -0.079 N 
HETATM   38  H   UNL     1     -44.947  62.374 -49.765  1.00  0.00     0.278 HD
HETATM   39  C   UNL     1     -45.374  64.396 -49.494  1.00  0.00     0.269 C 
HETATM   40  C   UNL     1     -46.605  62.439 -48.614  1.00  0.00     0.269 C 
ENDBRANCH  36  37
ENDBRANCH  35  36
ENDBRANCH  34  35
ENDBRANCH   2  34
TORSDOF 14
ENDMDL
MODEL 2
REMARK VINA RESULT:      -6.9      1.842      2.957
REMARK  14 active torsions:
REMARK  status: ('A' for Active; 'I' for Inactive)
REMARK    1  A    between atoms: C_2  and  O_3 
REMARK    2  A    between atoms: O_3  and  C_4 
REMARK    3  A    between atoms: C_5  and  O_6 
REMARK    4  A    between atoms: C_9  and  C_10 
REMARK    5  A    between atoms: N_11  and  C_12 
REMARK    6  A    between atoms: C_12  and  C_13 
REMARK    7  A    between atoms: C_13  and  C_14 
REMARK    8  A    between atoms: C_14  and  N_15 
REMARK    9  A    between atoms: C_21  and  O_22 
REMARK   10  A    between atoms: C_23  and  C_24 
REMARK   11  A    between atoms: C_24  and  C_25 
REMARK   12  A    between atoms: C_29  and  O_30 
REMARK   13  A    between atoms: O_30  and  C_31 
REMARK   14  A    between atoms: C_31  and  C_32 
ROOT
HETATM    1  C   UNL     1     -42.376  60.240 -53.896  1.00  0.00     0.161 A 
HETATM    2  N   UNL     1     -43.468  61.067 -53.385  1.00  0.00    -0.333 N 
HETATM    3  C   UNL     1     -43.499  61.067 -52.010  1.00  0.00     0.278 A 
HETATM    4  O   UNL     1     -44.242  61.721 -51.294  1.00  0.00    -0.265 OA
HETATM    5  C   UNL     1     -42.476  60.118 -51.537  1.00  0.00     0.146 A 
HETATM    6  C   UNL     1     -41.826  59.667 -52.617  1.00  0.00     0.059 A 
ENDROOT
BRANCH   6   7
HETATM    7  C   UNL     1     -40.677  58.739 -52.666  1.00  0.00     0.193 C 
HETATM    8  O   UNL     1     -39.526  59.158 -52.615  1.00  0.00    -0.287 OA
BRANCH   7   9
HETATM    9  C   UNL     1     -40.900  57.286 -52.757  1.00  0.00     0.015 A 
HETATM   10  C   UNL     1     -41.280  56.558 -51.626  1.00  0.00     0.025 A 
HETATM   11  C   UNL     1     -41.439  55.167 -51.710  1.00  0.00    -0.028 A 
HETATM   12  C   UNL     1     -41.826  54.381 -50.488  1.00  0.00     0.051 C 
HETATM   13  C   UNL     1     -41.184  54.514 -52.931  1.00  0.00     0.074 A 
HETATM   14  C   UNL     1     -40.811  55.256 -54.057  1.00  0.00     0.038 A 
HETATM   15  C   UNL     1     -40.652  56.640 -53.968  1.00  0.00     0.018 A 
BRANCH  13  16
HETATM   16  O   UNL     1     -41.340  53.155 -52.922  1.00  0.00    -0.350 OA
BRANCH  16  17
HETATM   17  C   UNL     1     -40.930  52.447 -54.094  1.00  0.00     0.179 C 
BRANCH  17  18
HETATM   18  C   UNL     1     -39.714  51.566 -53.765  1.00  0.00     0.002 C 
HETATM   19  C   UNL     1     -39.484  51.493 -52.253  1.00  0.00     0.011 C 
HETATM   20  C   UNL     1     -39.868  50.158 -54.338  1.00  0.00     0.011 C 
ENDBRANCH  17  18
ENDBRANCH  16  17
ENDBRANCH  13  16
ENDBRANCH   7   9
ENDBRANCH   6   7
BRANCH   1  21
HETATM   21  C   UNL     1     -42.874  59.271 -54.951  1.00  0.00    -0.028 A 
HETATM   22  C   UNL     1     -43.932  58.400 -54.621  1.00  0.00     0.012 A 
HETATM   23  C   UNL     1     -44.415  57.479 -55.547  1.00  0.00     0.040 A 
HETATM   24  C   UNL     1     -43.856  57.435 -56.815  1.00  0.00     0.099 A 
HETATM   25  C   UNL     1     -42.821  58.300 -57.183  1.00  0.00     0.102 A 
HETATM   26  C   UNL     1     -42.311  59.196 -56.240  1.00  0.00     0.049 A 
BRANCH  24  27
HETATM   27  O   UNL     1     -44.359  56.533 -57.709  1.00  0.00    -0.358 OA
HETATM   28  H   UNL     1     -45.308  56.751 -57.794  1.00  0.00     0.218 HD
ENDBRANCH  24  27
BRANCH  25  29
HETATM   29  O   UNL     1     -42.377  58.160 -58.472  1.00  0.00    -0.349 OA
BRANCH  29  30
HETATM   30  C   UNL     1     -42.076  59.373 -59.164  1.00  0.00     0.171 C 
HETATM   31  C   UNL     1     -42.109  59.080 -60.653  1.00  0.00     0.034 C 
ENDBRANCH  29  30
ENDBRANCH  25  29
ENDBRANCH   1  21
BRANCH   5  32
HETATM   32  O   UNL     1     -42.275  59.824 -50.224  1.00  0.00    -0.355 OA
HETATM   33  H   UNL     1     -41.785  58.980 -50.181  1.00  0.00     0.218 HD
ENDBRANCH   5  32
BRANCH   2  34
HETATM   34  C   UNL     1     -44.184  62.028 -54.205  1.00  0.00     0.129 C 
BRANCH  34  35
HETATM   35  C   UNL     1     -45.655  61.676 -54.446  1.00  0.00     0.048 C 
BRANCH  35  36
HETATM   36  C   UNL     1     -46.185  61.803 -55.875  1.00  0.00     0.235 C 
BRANCH  36  37
HETATM   37  N   UNL     1     -45.613  60.797 -56.845  1.00  0.00    -0.079 N 
HETATM   38  H   UNL     1     -44.900  60.254 -56.316  1.00  0.00     0.278 HD
HETATM   39  C   UNL     1     -46.609  59.848 -57.438  1.00  0.00     0.269 C 
HETATM   40  C   UNL     1     -44.807  61.473 -57.924  1.00  0.00     0.269 C 
ENDBRANCH  36  37
ENDBRANCH  35  36
ENDBRANCH  34  35
ENDBRANCH   2  34
TORSDOF 14
ENDMDL
MODEL 3
REMARK VINA RESULT:      -6.8      2.401      6.032
REMARK  14 active torsions:
REMARK  status: ('A' for Active; 'I' for Inactive)
REMARK    1  A    between atoms: C_2  and  O_3 
REMARK    2  A    between atoms: O_3  and  C_4 
REMARK    3  A    between atoms: C_5  and  O_6 
REMARK    4  A    between atoms: C_9  and  C_10 
REMARK    5  A    between atoms: N_11  and  C_12 
REMARK    6  A    between atoms: C_12  and  C_13 
REMARK    7  A    between atoms: C_13  and  C_14 
REMARK    8  A    between atoms: C_14  and  N_15 
REMARK    9  A    between atoms: C_21  and  O_22 
REMARK   10  A    between atoms: C_23  and  C_24 
REMARK   11  A    between atoms: C_24  and  C_25 
REMARK   12  A    between atoms: C_29  and  O_30 
REMARK   13  A    between atoms: O_30  and  C_31 
REMARK   14  A    between atoms: C_31  and  C_32 
ROOT
HETATM    1  C   UNL     1     -42.916  58.681 -54.916  1.00  0.00     0.161 A 
HETATM    2  N   UNL     1     -42.299  59.319 -56.077  1.00  0.00    -0.333 N 
HETATM    3  C   UNL     1     -42.164  58.438 -57.124  1.00  0.00     0.278 A 
HETATM    4  O   UNL     1     -41.758  58.692 -58.248  1.00  0.00    -0.265 OA
HETATM    5  C   UNL     1     -42.586  57.108 -56.651  1.00  0.00     0.146 A 
HETATM    6  C   UNL     1     -43.034  57.259 -55.398  1.00  0.00     0.059 A 
ENDROOT
BRANCH   6   7
HETATM    7  C   UNL     1     -43.619  56.232 -54.511  1.00  0.00     0.193 C 
HETATM    8  O   UNL     1     -44.825  56.198 -54.295  1.00  0.00    -0.287 OA
BRANCH   7   9
HETATM    9  C   UNL     1     -42.757  55.215 -53.885  1.00  0.00     0.015 A 
HETATM   10  C   UNL     1     -42.284  55.394 -52.582  1.00  0.00     0.025 A 
HETATM   11  C   UNL     1     -41.421  54.446 -52.014  1.00  0.00    -0.028 A 
HETATM   12  C   UNL     1     -40.895  54.650 -50.620  1.00  0.00     0.051 C 
HETATM   13  C   UNL     1     -41.017  53.334 -52.777  1.00  0.00     0.074 A 
HETATM   14  C   UNL     1     -41.503  53.162 -54.078  1.00  0.00     0.038 A 
HETATM   15  C   UNL     1     -42.360  54.111 -54.639  1.00  0.00     0.018 A 
BRANCH  13  16
HETATM   16  O   UNL     1     -40.156  52.469 -52.157  1.00  0.00    -0.350 OA
BRANCH  16  17
HETATM   17  C   UNL     1     -39.323  51.669 -52.998  1.00  0.00     0.179 C 
BRANCH  17  18
HETATM   18  C   UNL     1     -39.977  50.294 -53.215  1.00  0.00     0.002 C 
HETATM   19  C   UNL     1     -39.626  49.733 -54.594  1.00  0.00     0.011 C 
HETATM   20  C   UNL     1     -39.570  49.300 -52.127  1.00  0.00     0.011 C 
ENDBRANCH  17  18
ENDBRANCH  16  17
ENDBRANCH  13  16
ENDBRANCH   7   9
ENDBRANCH   6   7
BRANCH   1  21
HETATM   21  C   UNL     1     -42.108  58.938 -53.658  1.00  0.00    -0.028 A 
HETATM   22  C   UNL     1     -40.757  58.537 -53.630  1.00  0.00     0.012 A 
HETATM   23  C   UNL     1     -39.976  58.734 -52.495  1.00  0.00     0.040 A 
HETATM   24  C   UNL     1     -40.536  59.350 -51.386  1.00  0.00     0.099 A 
HETATM   25  C   UNL     1     -41.865  59.781 -51.387  1.00  0.00     0.102 A 
HETATM   26  C   UNL     1     -42.658  59.547 -52.513  1.00  0.00     0.049 A 
BRANCH  24  27
HETATM   27  O   UNL     1     -39.742  59.545 -50.290  1.00  0.00    -0.358 OA
HETATM   28  H   UNL     1     -39.251  58.709 -50.172  1.00  0.00     0.218 HD
ENDBRANCH  24  27
BRANCH  25  29
HETATM   29  O   UNL     1     -42.280  60.391 -50.233  1.00  0.00    -0.349 OA
BRANCH  29  30
HETATM   30  C   UNL     1     -43.176  61.492 -50.395  1.00  0.00     0.171 C 
HETATM   31  C   UNL     1     -44.378  61.250 -49.500  1.00  0.00     0.034 C 
ENDBRANCH  29  30
ENDBRANCH  25  29
ENDBRANCH   1  21
BRANCH   5  32
HETATM   32  O   UNL     1     -42.524  55.984 -57.415  1.00  0.00    -0.355 OA
HETATM   33  H   UNL     1     -43.267  55.407 -57.154  1.00  0.00     0.218 HD
ENDBRANCH   5  32
BRANCH   2  34
HETATM   34  C   UNL     1     -42.180  60.759 -56.218  1.00  0.00     0.129 C 
BRANCH  34  35
HETATM   35  C   UNL     1     -43.232  61.389 -57.135  1.00  0.00     0.048 C 
BRANCH  35  36
HETATM   36  C   UNL     1     -42.730  62.211 -58.324  1.00  0.00     0.235 C 
BRANCH  36  37
HETATM   37  N   UNL     1     -41.568  61.593 -59.065  1.00  0.00    -0.079 N 
HETATM   38  H   UNL     1     -41.366  60.690 -58.588  1.00  0.00     0.278 HD
HETATM   39  C   UNL     1     -41.808  61.335 -60.520  1.00  0.00     0.269 C 
HETATM   40  C   UNL     1     -40.304  62.386 -58.861  1.00  0.00     0.269 C 
ENDBRANCH  36  37
ENDBRANCH  35  36
ENDBRANCH  34  35
ENDBRANCH   2  34
TORSDOF 14
ENDMDL
MODEL 4
REMARK VINA RESULT:      -6.8      2.768      4.670
REMARK  14 active torsions:
REMARK  status: ('A' for Active; 'I' for Inactive)
REMARK    1  A    between atoms: C_2  and  O_3 
REMARK    2  A    between atoms: O_3  and  C_4 
REMARK    3  A    between atoms: C_5  and  O_6 
REMARK    4  A    between atoms: C_9  and  C_10 
REMARK    5  A    between atoms: N_11  and  C_12 
REMARK    6  A    between atoms: C_12  and  C_13 
REMARK    7  A    between atoms: C_13  and  C_14 
REMARK    8  A    between atoms: C_14  and  N_15 
REMARK    9  A    between atoms: C_21  and  O_22 
REMARK   10  A    between atoms: C_23  and  C_24 
REMARK   11  A    between atoms: C_24  and  C_25 
REMARK   12  A    between atoms: C_29  and  O_30 
REMARK   13  A    between atoms: O_30  and  C_31 
REMARK   14  A    between atoms: C_31  and  C_32 
ROOT
HETATM    1  C   UNL     1     -42.848  59.759 -55.300  1.00  0.00     0.161 A 
HETATM    2  N   UNL     1     -44.263  60.112 -55.194  1.00  0.00    -0.333 N 
HETATM    3  C   UNL     1     -44.778  59.768 -53.967  1.00  0.00     0.278 A 
HETATM    4  O   UNL     1     -45.902  60.003 -53.552  1.00  0.00    -0.265 OA
HETATM    5  C   UNL     1     -43.730  59.042 -53.227  1.00  0.00     0.146 A 
HETATM    6  C   UNL     1     -42.627  59.060 -53.985  1.00  0.00     0.059 A 
ENDROOT
BRANCH   6   7
HETATM    7  C   UNL     1     -41.292  58.515 -53.661  1.00  0.00     0.193 C 
HETATM    8  O   UNL     1     -40.312  59.249 -53.587  1.00  0.00    -0.287 OA
BRANCH   7   9
HETATM    9  C   UNL     1     -41.121  57.076 -53.401  1.00  0.00     0.015 A 
HETATM   10  C   UNL     1     -40.777  56.206 -54.440  1.00  0.00     0.025 A 
HETATM   11  C   UNL     1     -40.669  54.830 -54.194  1.00  0.00    -0.028 A 
HETATM   12  C   UNL     1     -40.321  53.892 -55.317  1.00  0.00     0.051 C 
HETATM   13  C   UNL     1     -40.938  54.335 -52.903  1.00  0.00     0.074 A 
HETATM   14  C   UNL     1     -41.274  55.217 -51.871  1.00  0.00     0.038 A 
HETATM   15  C   UNL     1     -41.382  56.586 -52.122  1.00  0.00     0.018 A 
BRANCH  13  16
HETATM   16  O   UNL     1     -40.832  52.979 -52.754  1.00  0.00    -0.350 OA
BRANCH  16  17
HETATM   17  C   UNL     1     -40.061  52.507 -51.646  1.00  0.00     0.179 C 
BRANCH  17  18
HETATM   18  C   UNL     1     -39.311  51.227 -52.049  1.00  0.00     0.002 C 
HETATM   19  C   UNL     1     -39.597  50.092 -51.063  1.00  0.00     0.011 C 
HETATM   20  C   UNL     1     -39.669  50.789 -53.469  1.00  0.00     0.011 C 
ENDBRANCH  17  18
ENDBRANCH  16  17
ENDBRANCH  13  16
ENDBRANCH   7   9
ENDBRANCH   6   7
BRANCH   1  21
HETATM   21  C   UNL     1     -42.574  58.980 -56.572  1.00  0.00    -0.028 A 
HETATM   22  C   UNL     1     -41.772  59.574 -57.568  1.00  0.00     0.012 A 
HETATM   23  C   UNL     1     -41.505  58.908 -58.761  1.00  0.00     0.040 A 
HETATM   24  C   UNL     1     -42.021  57.637 -58.959  1.00  0.00     0.099 A 
HETATM   25  C   UNL     1     -42.800  57.009 -57.984  1.00  0.00     0.102 A 
HETATM   26  C   UNL     1     -43.101  57.694 -56.804  1.00  0.00     0.049 A 
BRANCH  24  27
HETATM   27  O   UNL     1     -41.730  57.000 -60.133  1.00  0.00    -0.358 OA
HETATM   28  H   UNL     1     -40.958  57.472 -60.501  1.00  0.00     0.218 HD
ENDBRANCH  24  27
BRANCH  25  29
HETATM   29  O   UNL     1     -43.229  55.747 -58.304  1.00  0.00    -0.349 OA
BRANCH  29  30
HETATM   30  C   UNL     1     -44.339  55.673 -59.199  1.00  0.00     0.171 C 
HETATM   31  C   UNL     1     -44.511  54.221 -59.608  1.00  0.00     0.034 C 
ENDBRANCH  29  30
ENDBRANCH  25  29
ENDBRANCH   1  21
BRANCH   5  32
HETATM   32  O   UNL     1     -43.921  58.501 -51.993  1.00  0.00    -0.355 OA
HETATM   33  H   UNL     1     -43.431  57.656 -51.961  1.00  0.00     0.218 HD
ENDBRANCH   5  32
BRANCH   2  34
HETATM   34  C   UNL     1     -44.923  61.016 -56.118  1.00  0.00     0.129 C 
BRANCH  34  35
HETATM   35  C   UNL     1     -45.974  60.346 -57.009  1.00  0.00     0.048 C 
BRANCH  35  36
HETATM   36  C   UNL     1     -45.566  59.998 -58.441  1.00  0.00     0.235 C 
BRANCH  36  37
HETATM   37  N   UNL     1     -46.168  58.718 -58.969  1.00  0.00    -0.079 N 
HETATM   38  H   UNL     1     -45.368  58.110 -59.240  1.00  0.00     0.278 HD
HETATM   39  C   UNL     1     -47.039  57.979 -58.001  1.00  0.00     0.269 C 
HETATM   40  C   UNL     1     -46.889  58.947 -60.273  1.00  0.00     0.269 C 
ENDBRANCH  36  37
ENDBRANCH  35  36
ENDBRANCH  34  35
ENDBRANCH   2  34
TORSDOF 14
ENDMDL
MODEL 5
REMARK VINA RESULT:      -6.8      2.173      5.689
REMARK  14 active torsions:
REMARK  status: ('A' for Active; 'I' for Inactive)
REMARK    1  A    between atoms: C_2  and  O_3 
REMARK    2  A    between atoms: O_3  and  C_4 
REMARK    3  A    between atoms: C_5  and  O_6 
REMARK    4  A    between atoms: C_9  and  C_10 
REMARK    5  A    between atoms: N_11  and  C_12 
REMARK    6  A    between atoms: C_12  and  C_13 
REMARK    7  A    between atoms: C_13  and  C_14 
REMARK    8  A    between atoms: C_14  and  N_15 
REMARK    9  A    between atoms: C_21  and  O_22 
REMARK   10  A    between atoms: C_23  and  C_24 
REMARK   11  A    between atoms: C_24  and  C_25 
REMARK   12  A    between atoms: C_29  and  O_30 
REMARK   13  A    between atoms: O_30  and  C_31 
REMARK   14  A    between atoms: C_31  and  C_32 
ROOT
HETATM    1  C   UNL     1     -43.727  58.498 -54.546  1.00  0.00     0.161 A 
HETATM    2  N   UNL     1     -44.502  59.191 -55.574  1.00  0.00    -0.333 N 
HETATM    3  C   UNL     1     -43.694  59.953 -56.385  1.00  0.00     0.278 A 
HETATM    4  O   UNL     1     -44.035  60.583 -57.375  1.00  0.00    -0.265 OA
HETATM    5  C   UNL     1     -42.326  59.893 -55.842  1.00  0.00     0.146 A 
HETATM    6  C   UNL     1     -42.348  59.044 -54.807  1.00  0.00     0.059 A 
ENDROOT
BRANCH   6   7
HETATM    7  C   UNL     1     -41.215  58.603 -53.967  1.00  0.00     0.193 C 
HETATM    8  O   UNL     1     -40.398  59.409 -53.536  1.00  0.00    -0.287 OA
BRANCH   7   9
HETATM    9  C   UNL     1     -41.062  57.181 -53.616  1.00  0.00     0.015 A 
HETATM   10  C   UNL     1     -40.749  56.240 -54.601  1.00  0.00     0.025 A 
HETATM   11  C   UNL     1     -40.657  54.881 -54.267  1.00  0.00    -0.028 A 
HETATM   12  C   UNL     1     -40.341  53.867 -55.332  1.00  0.00     0.051 C 
HETATM   13  C   UNL     1     -40.912  54.476 -52.943  1.00  0.00     0.074 A 
HETATM   14  C   UNL     1     -41.218  55.428 -51.966  1.00  0.00     0.038 A 
HETATM   15  C   UNL     1     -41.310  56.780 -52.304  1.00  0.00     0.018 A 
BRANCH  13  16
HETATM   16  O   UNL     1     -40.824  53.131 -52.707  1.00  0.00    -0.350 OA
BRANCH  16  17
HETATM   17  C   UNL     1     -39.993  52.716 -51.620  1.00  0.00     0.179 C 
BRANCH  17  18
HETATM   18  C   UNL     1     -39.315  51.382 -51.970  1.00  0.00     0.002 C 
HETATM   19  C   UNL     1     -39.670  50.303 -50.944  1.00  0.00     0.011 C 
HETATM   20  C   UNL     1     -39.691  50.911 -53.375  1.00  0.00     0.011 C 
ENDBRANCH  17  18
ENDBRANCH  16  17
ENDBRANCH  13  16
ENDBRANCH   7   9
ENDBRANCH   6   7
BRANCH   1  21
HETATM   21  C   UNL     1     -44.327  58.716 -53.170  1.00  0.00    -0.028 A 
HETATM   22  C   UNL     1     -44.645  57.589 -52.386  1.00  0.00     0.012 A 
HETATM   23  C   UNL     1     -45.214  57.734 -51.123  1.00  0.00     0.040 A 
HETATM   24  C   UNL     1     -45.452  59.007 -50.630  1.00  0.00     0.099 A 
HETATM   25  C   UNL     1     -45.128  60.147 -51.370  1.00  0.00     0.102 A 
HETATM   26  C   UNL     1     -44.595  59.999 -52.653  1.00  0.00     0.049 A 
BRANCH  24  27
HETATM   27  O   UNL     1     -45.997  59.121 -49.381  1.00  0.00    -0.358 OA
HETATM   28  H   UNL     1     -45.347  58.713 -48.775  1.00  0.00     0.218 HD
ENDBRANCH  24  27
BRANCH  25  29
HETATM   29  O   UNL     1     -45.400  61.340 -50.753  1.00  0.00    -0.349 OA
BRANCH  29  30
HETATM   30  C   UNL     1     -46.170  62.274 -51.511  1.00  0.00     0.171 C 
HETATM   31  C   UNL     1     -47.124  62.972 -50.558  1.00  0.00     0.034 C 
ENDBRANCH  29  30
ENDBRANCH  25  29
ENDBRANCH   1  21
BRANCH   5  32
HETATM   32  O   UNL     1     -41.279  60.585 -56.368  1.00  0.00    -0.355 OA
HETATM   33  H   UNL     1     -40.910  60.054 -57.100  1.00  0.00     0.218 HD
ENDBRANCH   5  32
BRANCH   2  34
HETATM   34  C   UNL     1     -45.871  58.839 -55.905  1.00  0.00     0.129 C 
BRANCH  34  35
HETATM   35  C   UNL     1     -46.135  58.690 -57.406  1.00  0.00     0.048 C 
BRANCH  35  36
HETATM   36  C   UNL     1     -45.586  57.440 -58.097  1.00  0.00     0.235 C 
BRANCH  36  37
HETATM   37  N   UNL     1     -44.211  57.611 -58.697  1.00  0.00    -0.079 N 
HETATM   38  H   UNL     1     -43.941  58.602 -58.529  1.00  0.00     0.278 HD
HETATM   39  C   UNL     1     -43.154  56.713 -58.131  1.00  0.00     0.269 C 
HETATM   40  C   UNL     1     -44.251  57.511 -60.200  1.00  0.00     0.269 C 
ENDBRANCH  36  37
ENDBRANCH  35  36
ENDBRANCH  34  35
ENDBRANCH   2  34
TORSDOF 14
ENDMDL
MODEL 6
REMARK VINA RESULT:      -6.7      1.954      2.659
REMARK  14 active torsions:
REMARK  status: ('A' for Active; 'I' for Inactive)
REMARK    1  A    between atoms: C_2  and  O_3 
REMARK    2  A    between atoms: O_3  and  C_4 
REMARK    3  A    between atoms: C_5  and  O_6 
REMARK    4  A    between atoms: C_9  and  C_10 
REMARK    5  A    between atoms: N_11  and  C_12 
REMARK    6  A    between atoms: C_12  and  C_13 
REMARK    7  A    between atoms: C_13  and  C_14 
REMARK    8  A    between atoms: C_14  and  N_15 
REMARK    9  A    between atoms: C_21  and  O_22 
REMARK   10  A    between atoms: C_23  and  C_24 
REMARK   11  A    between atoms: C_24  and  C_25 
REMARK   12  A    between atoms: C_29  and  O_30 
REMARK   13  A    between atoms: O_30  and  C_31 
REMARK   14  A    between atoms: C_31  and  C_32 
ROOT
HETATM    1  C   UNL     1     -43.562  59.907 -53.249  1.00  0.00     0.161 A 
HETATM    2  N   UNL     1     -44.990  60.215 -53.197  1.00  0.00    -0.333 N 
HETATM    3  C   UNL     1     -45.576  59.699 -52.066  1.00  0.00     0.278 A 
HETATM    4  O   UNL     1     -46.732  59.854 -51.704  1.00  0.00    -0.265 OA
HETATM    5  C   UNL     1     -44.561  58.899 -51.358  1.00  0.00     0.146 A 
HETATM    6  C   UNL     1     -43.410  59.040 -52.027  1.00  0.00     0.059 A 
ENDROOT
BRANCH   6   7
HETATM    7  C   UNL     1     -42.085  58.482 -51.686  1.00  0.00     0.193 C 
HETATM    8  O   UNL     1     -41.224  59.178 -51.159  1.00  0.00    -0.287 OA
BRANCH   7   9
HETATM    9  C   UNL     1     -41.785  57.066 -51.956  1.00  0.00     0.015 A 
HETATM   10  C   UNL     1     -41.188  56.688 -53.162  1.00  0.00     0.025 A 
HETATM   11  C   UNL     1     -40.955  55.331 -53.432  1.00  0.00    -0.028 A 
HETATM   12  C   UNL     1     -40.333  54.924 -54.739  1.00  0.00     0.051 C 
HETATM   13  C   UNL     1     -41.353  54.361 -52.493  1.00  0.00     0.074 A 
HETATM   14  C   UNL     1     -41.943  54.753 -51.287  1.00  0.00     0.038 A 
HETATM   15  C   UNL     1     -42.175  56.105 -51.024  1.00  0.00     0.018 A 
BRANCH  13  16
HETATM   16  O   UNL     1     -41.110  53.061 -52.844  1.00  0.00    -0.350 OA
BRANCH  16  17
HETATM   17  C   UNL     1     -40.078  52.378 -52.129  1.00  0.00     0.179 C 
BRANCH  17  18
HETATM   18  C   UNL     1     -39.520  51.236 -52.994  1.00  0.00     0.002 C 
HETATM   19  C   UNL     1     -39.599  49.900 -52.252  1.00  0.00     0.011 C 
HETATM   20  C   UNL     1     -40.253  51.135 -54.332  1.00  0.00     0.011 C 
ENDBRANCH  17  18
ENDBRANCH  16  17
ENDBRANCH  13  16
ENDBRANCH   7   9
ENDBRANCH   6   7
BRANCH   1  21
HETATM   21  C   UNL     1     -43.181  59.312 -54.591  1.00  0.00    -0.028 A 
HETATM   22  C   UNL     1     -43.726  58.065 -54.956  1.00  0.00     0.012 A 
HETATM   23  C   UNL     1     -43.396  57.467 -56.169  1.00  0.00     0.040 A 
HETATM   24  C   UNL     1     -42.531  58.120 -57.033  1.00  0.00     0.099 A 
HETATM   25  C   UNL     1     -41.990  59.369 -56.714  1.00  0.00     0.102 A 
HETATM   26  C   UNL     1     -42.291  59.949 -55.480  1.00  0.00     0.049 A 
BRANCH  24  27
HETATM   27  O   UNL     1     -42.236  57.518 -58.224  1.00  0.00    -0.358 OA
HETATM   28  H   UNL     1     -41.631  56.783 -58.002  1.00  0.00     0.218 HD
ENDBRANCH  24  27
BRANCH  25  29
HETATM   29  O   UNL     1     -41.167  59.908 -57.668  1.00  0.00    -0.349 OA
BRANCH  29  30
HETATM   30  C   UNL     1     -41.681  61.043 -58.367  1.00  0.00     0.171 C 
HETATM   31  C   UNL     1     -40.560  62.060 -58.490  1.00  0.00     0.034 C 
ENDBRANCH  29  30
ENDBRANCH  25  29
ENDBRANCH   1  21
BRANCH   5  32
HETATM   32  O   UNL     1     -44.819  58.193 -50.224  1.00  0.00    -0.355 OA
HETATM   33  H   UNL     1     -45.739  57.871 -50.279  1.00  0.00     0.218 HD
ENDBRANCH   5  32
BRANCH   2  34
HETATM   34  C   UNL     1     -45.612  61.224 -54.037  1.00  0.00     0.129 C 
BRANCH  34  35
HETATM   35  C   UNL     1     -44.986  62.616 -53.913  1.00  0.00     0.048 C 
BRANCH  35  36
HETATM   36  C   UNL     1     -44.964  63.258 -52.525  1.00  0.00     0.235 C 
BRANCH  36  37
HETATM   37  N   UNL     1     -43.590  63.364 -51.907  1.00  0.00    -0.079 N 
HETATM   38  H   UNL     1     -42.941  62.870 -52.553  1.00  0.00     0.278 HD
HETATM   39  C   UNL     1     -43.096  64.761 -51.691  1.00  0.00     0.269 C 
HETATM   40  C   UNL     1     -43.497  62.559 -50.636  1.00  0.00     0.269 C 
ENDBRANCH  36  37
ENDBRANCH  35  36
ENDBRANCH  34  35
ENDBRANCH   2  34
TORSDOF 14
ENDMDL
MODEL 7
REMARK VINA RESULT:      -6.7      2.468      4.037
REMARK  14 active torsions:
REMARK  status: ('A' for Active; 'I' for Inactive)
REMARK    1  A    between atoms: C_2  and  O_3 
REMARK    2  A    between atoms: O_3  and  C_4 
REMARK    3  A    between atoms: C_5  and  O_6 
REMARK    4  A    between atoms: C_9  and  C_10 
REMARK    5  A    between atoms: N_11  and  C_12 
REMARK    6  A    between atoms: C_12  and  C_13 
REMARK    7  A    between atoms: C_13  and  C_14 
REMARK    8  A    between atoms: C_14  and  N_15 
REMARK    9  A    between atoms: C_21  and  O_22 
REMARK   10  A    between atoms: C_23  and  C_24 
REMARK   11  A    between atoms: C_24  and  C_25 
REMARK   12  A    between atoms: C_29  and  O_30 
REMARK   13  A    between atoms: O_30  and  C_31 
REMARK   14  A    between atoms: C_31  and  C_32 
ROOT
HETATM    1  C   UNL     1     -42.798  58.026 -51.978  1.00  0.00     0.161 A 
HETATM    2  N   UNL     1     -43.062  59.460 -52.076  1.00  0.00    -0.333 N 
HETATM    3  C   UNL     1     -44.150  59.825 -51.318  1.00  0.00     0.278 A 
HETATM    4  O   UNL     1     -44.569  60.958 -51.135  1.00  0.00    -0.265 OA
HETATM    5  C   UNL     1     -44.746  58.597 -50.764  1.00  0.00     0.146 A 
HETATM    6  C   UNL     1     -43.957  57.577 -51.128  1.00  0.00     0.059 A 
ENDROOT
BRANCH   6   7
HETATM    7  C   UNL     1     -44.095  56.149 -50.773  1.00  0.00     0.193 C 
HETATM    8  O   UNL     1     -45.114  55.728 -50.237  1.00  0.00    -0.287 OA
BRANCH   7   9
HETATM    9  C   UNL     1     -43.011  55.201 -51.081  1.00  0.00     0.015 A 
HETATM   10  C   UNL     1     -41.836  55.202 -50.323  1.00  0.00     0.025 A 
HETATM   11  C   UNL     1     -40.788  54.331 -50.657  1.00  0.00    -0.028 A 
HETATM   12  C   UNL     1     -39.516  54.348 -49.855  1.00  0.00     0.051 C 
HETATM   13  C   UNL     1     -40.921  53.484 -51.774  1.00  0.00     0.074 A 
HETATM   14  C   UNL     1     -42.105  53.488 -52.519  1.00  0.00     0.038 A 
HETATM   15  C   UNL     1     -43.145  54.358 -52.184  1.00  0.00     0.018 A 
BRANCH  13  16
HETATM   16  O   UNL     1     -39.845  52.683 -52.043  1.00  0.00    -0.350 OA
BRANCH  16  17
HETATM   17  C   UNL     1     -39.745  52.156 -53.368  1.00  0.00     0.179 C 
BRANCH  17  18
HETATM   18  C   UNL     1     -39.372  50.666 -53.302  1.00  0.00     0.002 C 
HETATM   19  C   UNL     1     -39.645  50.095 -51.909  1.00  0.00     0.011 C 
HETATM   20  C   UNL     1     -40.121  49.852 -54.357  1.00  0.00     0.011 C 
ENDBRANCH  17  18
ENDBRANCH  16  17
ENDBRANCH  13  16
ENDBRANCH   7   9
ENDBRANCH   6   7
BRANCH   1  21
HETATM   21  C   UNL     1     -42.646  57.404 -53.354  1.00  0.00    -0.028 A 
HETATM   22  C   UNL     1     -41.426  56.781 -53.681  1.00  0.00     0.012 A 
HETATM   23  C   UNL     1     -41.228  56.210 -54.936  1.00  0.00     0.040 A 
HETATM   24  C   UNL     1     -42.257  56.244 -55.865  1.00  0.00     0.099 A 
HETATM   25  C   UNL     1     -43.488  56.833 -55.566  1.00  0.00     0.102 A 
HETATM   26  C   UNL     1     -43.670  57.440 -54.321  1.00  0.00     0.049 A 
BRANCH  24  27
HETATM   27  O   UNL     1     -42.042  55.663 -57.083  1.00  0.00    -0.358 OA
HETATM   28  H   UNL     1     -42.845  55.137 -57.266  1.00  0.00     0.218 HD
ENDBRANCH  24  27
BRANCH  25  29
HETATM   29  O   UNL     1     -44.419  56.778 -56.569  1.00  0.00    -0.349 OA
BRANCH  29  30
HETATM   30  C   UNL     1     -44.506  57.932 -57.406  1.00  0.00     0.171 C 
HETATM   31  C   UNL     1     -45.717  58.735 -56.967  1.00  0.00     0.034 C 
ENDBRANCH  29  30
ENDBRANCH  25  29
ENDBRANCH   1  21
BRANCH   5  32
HETATM   32  O   UNL     1     -45.879  58.585 -50.012  1.00  0.00    -0.355 OA
HETATM   33  H   UNL     1     -45.991  57.681 -49.659  1.00  0.00     0.218 HD
ENDBRANCH   5  32
BRANCH   2  34
HETATM   34  C   UNL     1     -42.099  60.407 -52.608  1.00  0.00     0.129 C 
BRANCH  34  35
HETATM   35  C   UNL     1     -42.538  61.085 -53.909  1.00  0.00     0.048 C 
BRANCH  35  36
HETATM   36  C   UNL     1     -42.163  60.398 -55.223  1.00  0.00     0.235 C 
BRANCH  36  37
HETATM   37  N   UNL     1     -42.179  61.305 -56.430  1.00  0.00    -0.079 N 
HETATM   38  H   UNL     1     -41.509  62.074 -56.225  1.00  0.00     0.278 HD
HETATM   39  C   UNL     1     -41.795  60.652 -57.722  1.00  0.00     0.269 C 
HETATM   40  C   UNL     1     -43.500  62.019 -56.562  1.00  0.00     0.269 C 
ENDBRANCH  36  37
ENDBRANCH  35  36
ENDBRANCH  34  35
ENDBRANCH   2  34
TORSDOF 14
ENDMDL
MODEL 8
REMARK VINA RESULT:      -6.6      2.075      4.965
REMARK  14 active torsions:
REMARK  status: ('A' for Active; 'I' for Inactive)
REMARK    1  A    between atoms: C_2  and  O_3 
REMARK    2  A    between atoms: O_3  and  C_4 
REMARK    3  A    between atoms: C_5  and  O_6 
REMARK    4  A    between atoms: C_9  and  C_10 
REMARK    5  A    between atoms: N_11  and  C_12 
REMARK    6  A    between atoms: C_12  and  C_13 
REMARK    7  A    between atoms: C_13  and  C_14 
REMARK    8  A    between atoms: C_14  and  N_15 
REMARK    9  A    between atoms: C_21  and  O_22 
REMARK   10  A    between atoms: C_23  and  C_24 
REMARK   11  A    between atoms: C_24  and  C_25 
REMARK   12  A    between atoms: C_29  and  O_30 
REMARK   13  A    between atoms: O_30  and  C_31 
REMARK   14  A    between atoms: C_31  and  C_32 
ROOT
HETATM    1  C   UNL     1     -43.691  57.832 -55.847  1.00  0.00     0.161 A 
HETATM    2  N   UNL     1     -43.404  59.170 -56.362  1.00  0.00    -0.333 N 
HETATM    3  C   UNL     1     -42.684  59.116 -57.532  1.00  0.00     0.278 A 
HETATM    4  O   UNL     1     -42.361  60.058 -58.239  1.00  0.00    -0.265 OA
HETATM    5  C   UNL     1     -42.347  57.704 -57.788  1.00  0.00     0.146 A 
HETATM    6  C   UNL     1     -42.943  56.977 -56.835  1.00  0.00     0.059 A 
ENDROOT
BRANCH   6   7
HETATM    7  C   UNL     1     -42.956  55.507 -56.686  1.00  0.00     0.193 C 
HETATM    8  O   UNL     1     -43.545  54.796 -57.492  1.00  0.00    -0.287 OA
BRANCH   7   9
HETATM    9  C   UNL     1     -42.238  54.868 -55.569  1.00  0.00     0.015 A 
HETATM   10  C   UNL     1     -42.905  54.575 -54.376  1.00  0.00     0.025 A 
HETATM   11  C   UNL     1     -42.201  54.016 -53.300  1.00  0.00    -0.028 A 
HETATM   12  C   UNL     1     -42.915  53.720 -52.010  1.00  0.00     0.051 C 
HETATM   13  C   UNL     1     -40.818  53.783 -53.424  1.00  0.00     0.074 A 
HETATM   14  C   UNL     1     -40.164  54.075 -54.626  1.00  0.00     0.038 A 
HETATM   15  C   UNL     1     -40.869  54.633 -55.694  1.00  0.00     0.018 A 
BRANCH  13  16
HETATM   16  O   UNL     1     -40.203  53.257 -52.321  1.00  0.00    -0.350 OA
BRANCH  16  17
HETATM   17  C   UNL     1     -39.683  51.931 -52.438  1.00  0.00     0.179 C 
BRANCH  17  18
HETATM   18  C   UNL     1     -40.225  51.061 -51.293  1.00  0.00     0.002 C 
HETATM   19  C   UNL     1     -39.309  49.863 -51.035  1.00  0.00     0.011 C 
HETATM   20  C   UNL     1     -40.402  51.870 -50.008  1.00  0.00     0.011 C 
ENDBRANCH  17  18
ENDBRANCH  16  17
ENDBRANCH  13  16
ENDBRANCH   7   9
ENDBRANCH   6   7
BRANCH   1  21
HETATM   21  C   UNL     1     -43.313  57.720 -54.382  1.00  0.00    -0.028 A 
HETATM   22  C   UNL     1     -44.329  57.459 -53.441  1.00  0.00     0.012 A 
HETATM   23  C   UNL     1     -44.038  57.364 -52.083  1.00  0.00     0.040 A 
HETATM   24  C   UNL     1     -42.727  57.510 -51.659  1.00  0.00     0.099 A 
HETATM   25  C   UNL     1     -41.691  57.746 -52.567  1.00  0.00     0.102 A 
HETATM   26  C   UNL     1     -41.990  57.881 -53.925  1.00  0.00     0.049 A 
BRANCH  24  27
HETATM   27  O   UNL     1     -42.467  57.396 -50.322  1.00  0.00    -0.358 OA
HETATM   28  H   UNL     1     -42.432  56.436 -50.144  1.00  0.00     0.218 HD
ENDBRANCH  24  27
BRANCH  25  29
HETATM   29  O   UNL     1     -40.442  57.850 -52.012  1.00  0.00    -0.349 OA
BRANCH  29  30
HETATM   30  C   UNL     1     -39.872  59.160 -51.997  1.00  0.00     0.171 C 
HETATM   31  C   UNL     1     -39.672  59.564 -50.548  1.00  0.00     0.034 C 
ENDBRANCH  29  30
ENDBRANCH  25  29
ENDBRANCH   1  21
BRANCH   5  32
HETATM   32  O   UNL     1     -41.584  57.292 -58.836  1.00  0.00    -0.355 OA
HETATM   33  H   UNL     1     -40.970  58.018 -59.058  1.00  0.00     0.218 HD
ENDBRANCH   5  32
BRANCH   2  34
HETATM   34  C   UNL     1     -44.091  60.362 -55.896  1.00  0.00     0.129 C 
BRANCH  34  35
HETATM   35  C   UNL     1     -43.168  61.415 -55.276  1.00  0.00     0.048 C 
BRANCH  35  36
HETATM   36  C   UNL     1     -42.955  61.362 -53.761  1.00  0.00     0.235 C 
BRANCH  36  37
HETATM   37  N   UNL     1     -44.093  61.933 -52.950  1.00  0.00    -0.079 N 
HETATM   38  H   UNL     1     -44.704  62.440 -53.623  1.00  0.00     0.278 HD
HETATM   39  C   UNL     1     -44.914  60.924 -52.208  1.00  0.00     0.269 C 
HETATM   40  C   UNL     1     -43.615  63.022 -52.024  1.00  0.00     0.269 C 
ENDBRANCH  36  37
ENDBRANCH  35  36
ENDBRANCH  34  35
ENDBRANCH   2  34
TORSDOF 14
ENDMDL
MODEL 9
REMARK VINA RESULT:      -6.5      3.814      6.212
REMARK  14 active torsions:
REMARK  status: ('A' for Active; 'I' for Inactive)
REMARK    1  A    between atoms: C_2  and  O_3 
REMARK    2  A    between atoms: O_3  and  C_4 
REMARK    3  A    between atoms: C_5  and  O_6 
REMARK    4  A    between atoms: C_9  and  C_10 
REMARK    5  A    between atoms: N_11  and  C_12 
REMARK    6  A    between atoms: C_12  and  C_13 
REMARK    7  A    between atoms: C_13  and  C_14 
REMARK    8  A    between atoms: C_14  and  N_15 
REMARK    9  A    between atoms: C_21  and  O_22 
REMARK   10  A    between atoms: C_23  and  C_24 
REMARK   11  A    between atoms: C_24  and  C_25 
REMARK   12  A    between atoms: C_29  and  O_30 
REMARK   13  A    between atoms: O_30  and  C_31 
REMARK   14  A    between atoms: C_31  and  C_32 
ROOT
HETATM    1  C   UNL     1     -42.958  57.989 -57.089  1.00  0.00     0.161 A 
HETATM    2  N   UNL     1     -42.582  59.333 -57.526  1.00  0.00    -0.333 N 
HETATM    3  C   UNL     1     -42.993  60.288 -56.627  1.00  0.00     0.278 A 
HETATM    4  O   UNL     1     -42.761  61.486 -56.673  1.00  0.00    -0.265 OA
HETATM    5  C   UNL     1     -43.788  59.614 -55.585  1.00  0.00     0.146 A 
HETATM    6  C   UNL     1     -43.745  58.301 -55.844  1.00  0.00     0.059 A 
ENDROOT
BRANCH   6   7
HETATM    7  C   UNL     1     -44.338  57.199 -55.059  1.00  0.00     0.193 C 
HETATM    8  O   UNL     1     -45.539  57.176 -54.809  1.00  0.00    -0.287 OA
BRANCH   7   9
HETATM    9  C   UNL     1     -43.493  56.092 -54.578  1.00  0.00     0.015 A 
HETATM   10  C   UNL     1     -42.774  56.219 -53.386  1.00  0.00     0.025 A 
HETATM   11  C   UNL     1     -41.931  55.180 -52.964  1.00  0.00    -0.028 A 
HETATM   12  C   UNL     1     -41.141  55.326 -51.693  1.00  0.00     0.051 C 
HETATM   13  C   UNL     1     -41.796  54.030 -53.765  1.00  0.00     0.074 A 
HETATM   14  C   UNL     1     -42.528  53.913 -54.952  1.00  0.00     0.038 A 
HETATM   15  C   UNL     1     -43.364  54.950 -55.369  1.00  0.00     0.018 A 
BRANCH  13  16
HETATM   16  O   UNL     1     -40.937  53.075 -53.293  1.00  0.00    -0.350 OA
BRANCH  16  17
HETATM   17  C   UNL     1     -40.163  52.363 -54.261  1.00  0.00     0.179 C 
BRANCH  17  18
HETATM   18  C   UNL     1     -39.385  51.233 -53.568  1.00  0.00     0.002 C 
HETATM   19  C   UNL     1     -39.519  51.329 -52.046  1.00  0.00     0.011 C 
HETATM   20  C   UNL     1     -39.848  49.857 -54.047  1.00  0.00     0.011 C 
ENDBRANCH  17  18
ENDBRANCH  16  17
ENDBRANCH  13  16
ENDBRANCH   7   9
ENDBRANCH   6   7
BRANCH   1  21
HETATM   21  C   UNL     1     -43.660  57.231 -58.200  1.00  0.00    -0.028 A 
HETATM   22  C   UNL     1     -43.002  56.131 -58.787  1.00  0.00     0.012 A 
HETATM   23  C   UNL     1     -43.595  55.412 -59.822  1.00  0.00     0.040 A 
HETATM   24  C   UNL     1     -44.857  55.778 -60.264  1.00  0.00     0.099 A 
HETATM   25  C   UNL     1     -45.547  56.848 -59.690  1.00  0.00     0.102 A 
HETATM   26  C   UNL     1     -44.935  57.593 -58.679  1.00  0.00     0.049 A 
BRANCH  24  27
HETATM   27  O   UNL     1     -45.422  55.046 -61.270  1.00  0.00    -0.358 OA
HETATM   28  H   UNL     1     -44.889  54.229 -61.330  1.00  0.00     0.218 HD
ENDBRANCH  24  27
BRANCH  25  29
HETATM   29  O   UNL     1     -46.792  57.086 -60.212  1.00  0.00    -0.349 OA
BRANCH  29  30
HETATM   30  C   UNL     1     -47.204  58.453 -60.248  1.00  0.00     0.171 C 
HETATM   31  C   UNL     1     -47.901  58.694 -61.575  1.00  0.00     0.034 C 
ENDBRANCH  29  30
ENDBRANCH  25  29
ENDBRANCH   1  21
BRANCH   5  32
HETATM   32  O   UNL     1     -44.402  60.272 -54.566  1.00  0.00    -0.355 OA
HETATM   33  H   UNL     1     -43.723  60.794 -54.098  1.00  0.00     0.218 HD
ENDBRANCH   5  32
BRANCH   2  34
HETATM   34  C   UNL     1     -41.606  59.580 -58.572  1.00  0.00     0.129 C 
BRANCH  34  35
HETATM   35  C   UNL     1     -42.211  60.068 -59.892  1.00  0.00     0.048 C 
BRANCH  35  36
HETATM   36  C   UNL     1     -41.767  61.438 -60.407  1.00  0.00     0.235 C 
BRANCH  36  37
HETATM   37  N   UNL     1     -41.290  61.443 -61.840  1.00  0.00    -0.079 N 
HETATM   38  H   UNL     1     -40.646  60.630 -61.935  1.00  0.00     0.278 HD
HETATM   39  C   UNL     1     -42.371  61.334 -62.870  1.00  0.00     0.269 C 
HETATM   40  C   UNL     1     -40.400  62.626 -62.119  1.00  0.00     0.269 C 
ENDBRANCH  36  37
ENDBRANCH  35  36
ENDBRANCH  34  35
ENDBRANCH   2  34
TORSDOF 14
ENDMDL
MODEL 10
REMARK VINA RESULT:      -6.5      3.005      5.989
REMARK  14 active torsions:
REMARK  status: ('A' for Active; 'I' for Inactive)
REMARK    1  A    between atoms: C_2  and  O_3 
REMARK    2  A    between atoms: O_3  and  C_4 
REMARK    3  A    between atoms: C_5  and  O_6 
REMARK    4  A    between atoms: C_9  and  C_10 
REMARK    5  A    between atoms: N_11  and  C_12 
REMARK    6  A    between atoms: C_12  and  C_13 
REMARK    7  A    between atoms: C_13  and  C_14 
REMARK    8  A    between atoms: C_14  and  N_15 
REMARK    9  A    between atoms: C_21  and  O_22 
REMARK   10  A    between atoms: C_23  and  C_24 
REMARK   11  A    between atoms: C_24  and  C_25 
REMARK   12  A    between atoms: C_29  and  O_30 
REMARK   13  A    between atoms: O_30  and  C_31 
REMARK   14  A    between atoms: C_31  and  C_32 
ROOT
HETATM    1  C   UNL     1     -42.147  59.656 -55.643  1.00  0.00     0.161 A 
HETATM    2  N   UNL     1     -42.377  59.999 -57.045  1.00  0.00    -0.333 N 
HETATM    3  C   UNL     1     -42.891  61.268 -57.176  1.00  0.00     0.278 A 
HETATM    4  O   UNL     1     -43.115  61.864 -58.218  1.00  0.00    -0.265 OA
HETATM    5  C   UNL     1     -43.144  61.793 -55.822  1.00  0.00     0.146 A 
HETATM    6  C   UNL     1     -42.698  60.877 -54.954  1.00  0.00     0.059 A 
ENDROOT
BRANCH   6   7
HETATM    7  C   UNL     1     -42.673  60.957 -53.478  1.00  0.00     0.193 C 
HETATM    8  O   UNL     1     -42.840  62.027 -52.902  1.00  0.00    -0.287 OA
BRANCH   7   9
HETATM    9  C   UNL     1     -42.467  59.742 -52.673  1.00  0.00     0.015 A 
HETATM   10  C   UNL     1     -43.561  58.990 -52.236  1.00  0.00     0.025 A 
HETATM   11  C   UNL     1     -43.358  57.864 -51.424  1.00  0.00    -0.028 A 
HETATM   12  C   UNL     1     -44.537  57.068 -50.937  1.00  0.00     0.051 C 
HETATM   13  C   UNL     1     -42.049  57.520 -51.034  1.00  0.00     0.074 A 
HETATM   14  C   UNL     1     -40.962  58.278 -51.484  1.00  0.00     0.038 A 
HETATM   15  C   UNL     1     -41.170  59.399 -52.290  1.00  0.00     0.018 A 
BRANCH  13  16
HETATM   16  O   UNL     1     -41.940  56.423 -50.224  1.00  0.00    -0.350 OA
BRANCH  16  17
HETATM   17  C   UNL     1     -40.708  55.700 -50.274  1.00  0.00     0.179 C 
BRANCH  17  18
HETATM   18  C   UNL     1     -40.873  54.461 -51.169  1.00  0.00     0.002 C 
HETATM   19  C   UNL     1     -39.863  53.375 -50.790  1.00  0.00     0.011 C 
HETATM   20  C   UNL     1     -42.294  53.901 -51.097  1.00  0.00     0.011 C 
ENDBRANCH  17  18
ENDBRANCH  16  17
ENDBRANCH  13  16
ENDBRANCH   7   9
ENDBRANCH   6   7
BRANCH   1  21
HETATM   21  C   UNL     1     -42.761  58.312 -55.302  1.00  0.00    -0.028 A 
HETATM   22  C   UNL     1     -44.165  58.189 -55.314  1.00  0.00     0.012 A 
HETATM   23  C   UNL     1     -44.780  56.982 -54.992  1.00  0.00     0.040 A 
HETATM   24  C   UNL     1     -43.995  55.885 -54.673  1.00  0.00     0.099 A 
HETATM   25  C   UNL     1     -42.600  55.965 -54.674  1.00  0.00     0.102 A 
HETATM   26  C   UNL     1     -41.985  57.187 -54.958  1.00  0.00     0.049 A 
BRANCH  24  27
HETATM   27  O   UNL     1     -44.624  54.709 -54.377  1.00  0.00    -0.358 OA
HETATM   28  H   UNL     1     -44.099  54.307 -53.657  1.00  0.00     0.218 HD
ENDBRANCH  24  27
BRANCH  25  29
HETATM   29  O   UNL     1     -41.949  54.800 -54.359  1.00  0.00    -0.349 OA
BRANCH  29  30
HETATM   30  C   UNL     1     -40.727  54.559 -55.057  1.00  0.00     0.171 C 
HETATM   31  C   UNL     1     -40.213  53.194 -54.637  1.00  0.00     0.034 C 
ENDBRANCH  29  30
ENDBRANCH  25  29
ENDBRANCH   1  21
BRANCH   5  32
HETATM   32  O   UNL     1     -43.712  63.005 -55.581  1.00  0.00    -0.355 OA
HETATM   33  H   UNL     1     -43.014  63.595 -55.235  1.00  0.00     0.218 HD
ENDBRANCH   5  32
BRANCH   2  34
HETATM   34  C   UNL     1     -41.809  59.244 -58.148  1.00  0.00     0.129 C 
BRANCH  34  35
HETATM   35  C   UNL     1     -42.828  58.407 -58.926  1.00  0.00     0.048 C 
BRANCH  35  36
HETATM   36  C   UNL     1     -42.862  56.902 -58.650  1.00  0.00     0.235 C 
BRANCH  36  37
HETATM   37  N   UNL     1     -44.244  56.294 -58.670  1.00  0.00    -0.079 N 
HETATM   38  H   UNL     1     -44.379  55.846 -57.741  1.00  0.00     0.278 HD
HETATM   39  C   UNL     1     -45.361  57.263 -58.912  1.00  0.00     0.269 C 
HETATM   40  C   UNL     1     -44.320  55.136 -59.631  1.00  0.00     0.269 C 
ENDBRANCH  36  37
ENDBRANCH  35  36
ENDBRANCH  34  35
ENDBRANCH   2  34
TORSDOF 14
ENDMDL
