MODEL 1
REMARK VINA RESULT:      -8.0      0.000      0.000
REMARK  7 active torsions:
REMARK  status: ('A' for Active; 'I' for Inactive)
REMARK    1  A    between atoms: N_3  and  N_4 
REMARK       I    between atoms: N_4  and  C_5 
REMARK    2  A    between atoms: C_5  and  C_6 
REMARK    3  A    between atoms: C_9  and  O_10 
REMARK    4  A    between atoms: O_10  and  C_11 
REMARK    5  A    between atoms: C_11  and  C_12 
REMARK       I    between atoms: C_12  and  N_13 
REMARK    6  A    between atoms: N_13  and  C_14 
REMARK    7  A    between atoms: C_16  and  O_17 
ROOT
HETATM    1  C   UNL     1     -42.798  56.966 -56.673  1.00  0.00     0.033 A 
HETATM    2  C   UNL     1     -42.227  55.727 -56.357  1.00  0.00     0.020 A 
HETATM    3  C   UNL     1     -41.570  55.559 -55.134  1.00  0.00     0.038 A 
HETATM    4  C   UNL     1     -41.465  56.621 -54.230  1.00  0.00     0.069 A 
HETATM    5  C   UNL     1     -42.058  57.847 -54.538  1.00  0.00     0.038 A 
HETATM    6  C   UNL     1     -42.727  58.017 -55.753  1.00  0.00     0.020 A 
ENDROOT
BRANCH   4   7
HETATM    7  O   UNL     1     -40.797  56.338 -53.069  1.00  0.00    -0.342 OA
BRANCH   7   8
HETATM    8  C   UNL     1     -41.624  56.013 -51.953  1.00  0.00     0.278 C 
BRANCH   8   9
HETATM    9  C   UNL     1     -41.744  54.499 -51.766  1.00  0.00     0.246 C 
HETATM   10  N   UNL     1     -40.515  53.872 -51.657  1.00  0.00    -0.325 N 
HETATM   11  H   UNL     1     -39.716  54.498 -51.627  1.00  0.00     0.169 HD
HETATM   12  O   UNL     1     -42.845  53.955 -51.788  1.00  0.00    -0.271 OA
BRANCH  10  13
HETATM   13  C   UNL     1     -40.249  52.490 -51.572  1.00  0.00     0.037 A 
HETATM   14  C   UNL     1     -39.891  51.696 -52.667  1.00  0.00     0.066 A 
HETATM   15  C   UNL     1     -39.628  50.332 -52.502  1.00  0.00     0.070 A 
HETATM   16  C   UNL     1     -39.722  49.763 -51.232  1.00  0.00     0.037 A 
HETATM   17  C   UNL     1     -40.080  50.542 -50.134  1.00  0.00     0.005 A 
HETATM   18  C   UNL     1     -40.345  51.901 -50.305  1.00  0.00     0.029 A 
BRANCH  15  19
HETATM   19  O   UNL     1     -39.271  49.457 -53.493  1.00  0.00    -0.356 OA
HETATM   20  C   UNL     1     -39.767  49.728 -54.800  1.00  0.00     0.210 C 
ENDBRANCH  15  19
ENDBRANCH  10  13
ENDBRANCH   8   9
ENDBRANCH   7   8
ENDBRANCH   4   7
BRANCH   1  21
HETATM   21  C   UNL     1     -43.505  57.196 -57.959  1.00  0.00     0.270 C 
HETATM   22  N   UNL     1     -44.823  56.808 -57.972  1.00  0.00    -0.259 N 
HETATM   23  H   UNL     1     -45.243  56.251 -57.244  1.00  0.00     0.191 HD
HETATM   24  O   UNL     1     -42.886  57.661 -58.908  1.00  0.00    -0.266 OA
BRANCH  22  25
HETATM   25  N   UNL     1     -45.519  56.855 -59.124  1.00  0.00    -0.263 N 
HETATM   26  C   UNL     1     -46.413  57.848 -59.415  1.00  0.00     0.030 A 
HETATM   27  C   UNL     1     -46.566  59.076 -58.597  1.00  0.00     0.070 C 
HETATM   28  C   UNL     1     -47.066  57.460 -60.572  1.00  0.00     0.028 A 
HETATM   29  C   UNL     1     -46.561  56.189 -60.947  1.00  0.00     0.028 A 
HETATM   30  C   UNL     1     -45.610  55.818 -60.012  1.00  0.00     0.030 A 
HETATM   31  C   UNL     1     -44.775  54.593 -59.940  1.00  0.00     0.070 C 
ENDBRANCH  22  25
ENDBRANCH   1  21
TORSDOF 7
ENDMDL
MODEL 2
REMARK VINA RESULT:      -7.7      2.479      8.448
REMARK  7 active torsions:
REMARK  status: ('A' for Active; 'I' for Inactive)
REMARK    1  A    between atoms: N_3  and  N_4 
REMARK       I    between atoms: N_4  and  C_5 
REMARK    2  A    between atoms: C_5  and  C_6 
REMARK    3  A    between atoms: C_9  and  O_10 
REMARK    4  A    between atoms: O_10  and  C_11 
REMARK    5  A    between atoms: C_11  and  C_12 
REMARK       I    between atoms: C_12  and  N_13 
REMARK    6  A    between atoms: N_13  and  C_14 
REMARK    7  A    between atoms: C_16  and  O_17 
ROOT
HETATM    1  C   UNL     1     -42.427  56.054 -52.659  1.00  0.00     0.033 A 
HETATM    2  C   UNL     1     -41.436  57.041 -52.594  1.00  0.00     0.020 A 
HETATM    3  C   UNL     1     -41.749  58.360 -52.936  1.00  0.00     0.038 A 
HETATM    4  C   UNL     1     -43.038  58.700 -53.359  1.00  0.00     0.069 A 
HETATM    5  C   UNL     1     -44.029  57.718 -53.399  1.00  0.00     0.038 A 
HETATM    6  C   UNL     1     -43.726  56.400 -53.045  1.00  0.00     0.020 A 
ENDROOT
BRANCH   4   7
HETATM    7  O   UNL     1     -43.222  60.020 -53.671  1.00  0.00    -0.342 OA
BRANCH   7   8
HETATM    8  C   UNL     1     -42.607  60.453 -54.883  1.00  0.00     0.278 C 
BRANCH   8   9
HETATM    9  C   UNL     1     -43.158  59.695 -56.093  1.00  0.00     0.246 C 
HETATM   10  N   UNL     1     -42.296  58.714 -56.550  1.00  0.00    -0.325 N 
HETATM   11  H   UNL     1     -41.468  58.570 -55.979  1.00  0.00     0.169 HD
HETATM   12  O   UNL     1     -44.230  60.022 -56.596  1.00  0.00    -0.271 OA
BRANCH  10  13
HETATM   13  C   UNL     1     -42.436  57.896 -57.690  1.00  0.00     0.037 A 
HETATM   14  C   UNL     1     -43.176  56.708 -57.712  1.00  0.00     0.066 A 
HETATM   15  C   UNL     1     -43.281  55.956 -58.886  1.00  0.00     0.070 A 
HETATM   16  C   UNL     1     -42.645  56.400 -60.046  1.00  0.00     0.037 A 
HETATM   17  C   UNL     1     -41.904  57.579 -60.037  1.00  0.00     0.005 A 
HETATM   18  C   UNL     1     -41.799  58.323 -58.861  1.00  0.00     0.029 A 
BRANCH  15  19
HETATM   19  O   UNL     1     -43.973  54.783 -59.030  1.00  0.00    -0.356 OA
HETATM   20  C   UNL     1     -44.847  54.686 -60.150  1.00  0.00     0.210 C 
ENDBRANCH  15  19
ENDBRANCH  10  13
ENDBRANCH   8   9
ENDBRANCH   7   8
ENDBRANCH   4   7
BRANCH   1  21
HETATM   21  C   UNL     1     -42.146  54.639 -52.307  1.00  0.00     0.270 C 
HETATM   22  N   UNL     1     -40.814  54.301 -52.288  1.00  0.00    -0.259 N 
HETATM   23  H   UNL     1     -40.087  54.897 -52.652  1.00  0.00     0.191 HD
HETATM   24  O   UNL     1     -43.081  53.875 -52.102  1.00  0.00    -0.266 OA
BRANCH  22  25
HETATM   25  N   UNL     1     -40.456  53.016 -52.105  1.00  0.00    -0.263 N 
HETATM   26  C   UNL     1     -40.175  52.487 -50.876  1.00  0.00     0.030 A 
HETATM   27  C   UNL     1     -40.426  53.203 -49.601  1.00  0.00     0.070 C 
HETATM   28  C   UNL     1     -39.663  51.221 -51.102  1.00  0.00     0.028 A 
HETATM   29  C   UNL     1     -39.612  51.021 -52.505  1.00  0.00     0.028 A 
HETATM   30  C   UNL     1     -40.092  52.167 -53.114  1.00  0.00     0.030 A 
HETATM   31  C   UNL     1     -40.261  52.477 -54.556  1.00  0.00     0.070 C 
ENDBRANCH  22  25
ENDBRANCH   1  21
TORSDOF 7
ENDMDL
MODEL 3
REMARK VINA RESULT:      -7.6      1.362      2.154
REMARK  7 active torsions:
REMARK  status: ('A' for Active; 'I' for Inactive)
REMARK    1  A    between atoms: N_3  and  N_4 
REMARK       I    between atoms: N_4  and  C_5 
REMARK    2  A    between atoms: C_5  and  C_6 
REMARK    3  A    between atoms: C_9  and  O_10 
REMARK    4  A    between atoms: O_10  and  C_11 
REMARK    5  A    between atoms: C_11  and  C_12 
REMARK       I    between atoms: C_12  and  N_13 
REMARK    6  A    between atoms: N_13  and  C_14 
REMARK    7  A    between atoms: C_16  and  O_17 
ROOT
HETATM    1  C   UNL     1     -43.413  58.015 -55.511  1.00  0.00     0.033 A 
HETATM    2  C   UNL     1     -44.108  58.389 -54.356  1.00  0.00     0.020 A 
HETATM    3  C   UNL     1     -43.505  58.232 -53.103  1.00  0.00     0.038 A 
HETATM    4  C   UNL     1     -42.221  57.691 -52.994  1.00  0.00     0.069 A 
HETATM    5  C   UNL     1     -41.521  57.343 -54.150  1.00  0.00     0.038 A 
HETATM    6  C   UNL     1     -42.113  57.509 -55.405  1.00  0.00     0.020 A 
ENDROOT
BRANCH   4   7
HETATM    7  O   UNL     1     -41.738  57.583 -51.717  1.00  0.00    -0.342 OA
BRANCH   7   8
HETATM    8  C   UNL     1     -42.391  56.615 -50.898  1.00  0.00     0.278 C 
BRANCH   8   9
HETATM    9  C   UNL     1     -42.315  55.216 -51.515  1.00  0.00     0.246 C 
HETATM   10  N   UNL     1     -41.015  54.805 -51.753  1.00  0.00    -0.325 N 
HETATM   11  H   UNL     1     -40.296  55.436 -51.412  1.00  0.00     0.169 HD
HETATM   12  O   UNL     1     -43.342  54.608 -51.804  1.00  0.00    -0.271 OA
BRANCH  10  13
HETATM   13  C   UNL     1     -40.581  53.626 -52.393  1.00  0.00     0.037 A 
HETATM   14  C   UNL     1     -40.119  52.494 -51.712  1.00  0.00     0.066 A 
HETATM   15  C   UNL     1     -39.717  51.353 -52.416  1.00  0.00     0.070 A 
HETATM   16  C   UNL     1     -39.784  51.347 -53.810  1.00  0.00     0.037 A 
HETATM   17  C   UNL     1     -40.240  52.468 -54.499  1.00  0.00     0.005 A 
HETATM   18  C   UNL     1     -40.635  53.604 -53.792  1.00  0.00     0.029 A 
BRANCH  15  19
HETATM   19  O   UNL     1     -39.249  50.191 -51.864  1.00  0.00    -0.356 OA
HETATM   20  C   UNL     1     -39.755  49.841 -50.580  1.00  0.00     0.210 C 
ENDBRANCH  15  19
ENDBRANCH  10  13
ENDBRANCH   8   9
ENDBRANCH   7   8
ENDBRANCH   4   7
BRANCH   1  21
HETATM   21  C   UNL     1     -44.009  58.159 -56.864  1.00  0.00     0.270 C 
HETATM   22  N   UNL     1     -44.802  57.111 -57.263  1.00  0.00    -0.259 N 
HETATM   23  H   UNL     1     -44.845  56.232 -56.771  1.00  0.00     0.191 HD
HETATM   24  O   UNL     1     -43.737  59.146 -57.536  1.00  0.00    -0.266 OA
BRANCH  22  25
HETATM   25  N   UNL     1     -45.287  57.082 -58.518  1.00  0.00    -0.263 N 
HETATM   26  C   UNL     1     -46.501  57.611 -58.861  1.00  0.00     0.030 A 
HETATM   27  C   UNL     1     -47.319  58.443 -57.944  1.00  0.00     0.070 C 
HETATM   28  C   UNL     1     -46.741  57.224 -60.168  1.00  0.00     0.028 A 
HETATM   29  C   UNL     1     -45.651  56.419 -60.587  1.00  0.00     0.028 A 
HETATM   30  C   UNL     1     -44.764  56.324 -59.530  1.00  0.00     0.030 A 
HETATM   31  C   UNL     1     -43.464  55.613 -59.441  1.00  0.00     0.070 C 
ENDBRANCH  22  25
ENDBRANCH   1  21
TORSDOF 7
ENDMDL
MODEL 4
REMARK VINA RESULT:      -7.6      5.714      9.896
REMARK  7 active torsions:
REMARK  status: ('A' for Active; 'I' for Inactive)
REMARK    1  A    between atoms: N_3  and  N_4 
REMARK       I    between atoms: N_4  and  C_5 
REMARK    2  A    between atoms: C_5  and  C_6 
REMARK    3  A    between atoms: C_9  and  O_10 
REMARK    4  A    between atoms: O_10  and  C_11 
REMARK    5  A    between atoms: C_11  and  C_12 
REMARK       I    between atoms: C_12  and  N_13 
REMARK    6  A    between atoms: N_13  and  C_14 
REMARK    7  A    between atoms: C_16  and  O_17 
ROOT
HETATM    1  C   UNL     1     -42.763  56.177 -52.293  1.00  0.00     0.033 A 
HETATM    2  C   UNL     1     -42.211  57.062 -51.360  1.00  0.00     0.020 A 
HETATM    3  C   UNL     1     -42.641  58.393 -51.329  1.00  0.00     0.038 A 
HETATM    4  C   UNL     1     -43.605  58.851 -52.231  1.00  0.00     0.069 A 
HETATM    5  C   UNL     1     -44.172  57.959 -53.144  1.00  0.00     0.038 A 
HETATM    6  C   UNL     1     -43.755  56.625 -53.171  1.00  0.00     0.020 A 
ENDROOT
BRANCH   4   7
HETATM    7  O   UNL     1     -43.943  60.172 -52.108  1.00  0.00    -0.342 OA
BRANCH   7   8
HETATM    8  C   UNL     1     -45.336  60.434 -51.949  1.00  0.00     0.278 C 
BRANCH   8   9
HETATM    9  C   UNL     1     -45.761  60.333 -50.482  1.00  0.00     0.246 C 
HETATM   10  N   UNL     1     -45.500  61.488 -49.766  1.00  0.00    -0.325 N 
HETATM   11  H   UNL     1     -45.150  62.265 -50.319  1.00  0.00     0.169 HD
HETATM   12  O   UNL     1     -46.217  59.282 -50.038  1.00  0.00    -0.271 OA
BRANCH  10  13
HETATM   13  C   UNL     1     -45.672  61.712 -48.385  1.00  0.00     0.037 A 
HETATM   14  C   UNL     1     -44.825  61.194 -47.399  1.00  0.00     0.066 A 
HETATM   15  C   UNL     1     -45.051  61.471 -46.047  1.00  0.00     0.070 A 
HETATM   16  C   UNL     1     -46.132  62.275 -45.683  1.00  0.00     0.037 A 
HETATM   17  C   UNL     1     -46.984  62.795 -46.654  1.00  0.00     0.005 A 
HETATM   18  C   UNL     1     -46.756  62.512 -48.001  1.00  0.00     0.029 A 
BRANCH  15  19
HETATM   19  O   UNL     1     -44.295  61.024 -44.997  1.00  0.00    -0.356 OA
HETATM   20  C   UNL     1     -44.108  61.925 -43.910  1.00  0.00     0.210 C 
ENDBRANCH  15  19
ENDBRANCH  10  13
ENDBRANCH   8   9
ENDBRANCH   7   8
ENDBRANCH   4   7
BRANCH   1  21
HETATM   21  C   UNL     1     -42.340  54.755 -52.367  1.00  0.00     0.270 C 
HETATM   22  N   UNL     1     -40.980  54.554 -52.358  1.00  0.00    -0.259 N 
HETATM   23  H   UNL     1     -40.311  55.299 -52.472  1.00  0.00     0.191 HD
HETATM   24  O   UNL     1     -43.191  53.881 -52.471  1.00  0.00    -0.266 OA
BRANCH  22  25
HETATM   25  N   UNL     1     -40.489  53.315 -52.548  1.00  0.00    -0.263 N 
HETATM   26  C   UNL     1     -40.101  52.501 -51.521  1.00  0.00     0.030 A 
HETATM   27  C   UNL     1     -40.363  52.804 -50.093  1.00  0.00     0.070 C 
HETATM   28  C   UNL     1     -39.477  51.410 -52.101  1.00  0.00     0.028 A 
HETATM   29  C   UNL     1     -39.471  51.612 -53.505  1.00  0.00     0.028 A 
HETATM   30  C   UNL     1     -40.090  52.823 -53.761  1.00  0.00     0.030 A 
HETATM   31  C   UNL     1     -40.354  53.500 -55.055  1.00  0.00     0.070 C 
ENDBRANCH  22  25
ENDBRANCH   1  21
TORSDOF 7
ENDMDL
MODEL 5
REMARK VINA RESULT:      -7.4      2.006      9.120
REMARK  7 active torsions:
REMARK  status: ('A' for Active; 'I' for Inactive)
REMARK    1  A    between atoms: N_3  and  N_4 
REMARK       I    between atoms: N_4  and  C_5 
REMARK    2  A    between atoms: C_5  and  C_6 
REMARK    3  A    between atoms: C_9  and  O_10 
REMARK    4  A    between atoms: O_10  and  C_11 
REMARK    5  A    between atoms: C_11  and  C_12 
REMARK       I    between atoms: C_12  and  N_13 
REMARK    6  A    between atoms: N_13  and  C_14 
REMARK    7  A    between atoms: C_16  and  O_17 
ROOT
HETATM    1  C   UNL     1     -42.695  56.198 -53.433  1.00  0.00     0.033 A 
HETATM    2  C   UNL     1     -43.876  56.835 -53.034  1.00  0.00     0.020 A 
HETATM    3  C   UNL     1     -44.271  58.020 -53.665  1.00  0.00     0.038 A 
HETATM    4  C   UNL     1     -43.489  58.582 -54.678  1.00  0.00     0.069 A 
HETATM    5  C   UNL     1     -42.325  57.930 -55.090  1.00  0.00     0.038 A 
HETATM    6  C   UNL     1     -41.933  56.739 -54.473  1.00  0.00     0.020 A 
ENDROOT
BRANCH   4   7
HETATM    7  O   UNL     1     -43.975  59.743 -55.217  1.00  0.00    -0.342 OA
BRANCH   7   8
HETATM    8  C   UNL     1     -45.207  59.619 -55.925  1.00  0.00     0.278 C 
BRANCH   8   9
HETATM    9  C   UNL     1     -44.985  59.110 -57.351  1.00  0.00     0.246 C 
HETATM   10  N   UNL     1     -45.446  57.819 -57.538  1.00  0.00    -0.325 N 
HETATM   11  H   UNL     1     -45.941  57.422 -56.745  1.00  0.00     0.169 HD
HETATM   12  O   UNL     1     -44.391  59.803 -58.173  1.00  0.00    -0.271 OA
BRANCH  10  13
HETATM   13  C   UNL     1     -45.322  57.010 -58.686  1.00  0.00     0.037 A 
HETATM   14  C   UNL     1     -46.325  56.867 -59.651  1.00  0.00     0.066 A 
HETATM   15  C   UNL     1     -46.124  56.056 -60.773  1.00  0.00     0.070 A 
HETATM   16  C   UNL     1     -44.908  55.388 -60.929  1.00  0.00     0.037 A 
HETATM   17  C   UNL     1     -43.903  55.521 -59.975  1.00  0.00     0.005 A 
HETATM   18  C   UNL     1     -44.111  56.328 -58.855  1.00  0.00     0.029 A 
BRANCH  15  19
HETATM   19  O   UNL     1     -47.026  55.838 -61.780  1.00  0.00    -0.356 OA
HETATM   20  C   UNL     1     -48.109  56.757 -61.883  1.00  0.00     0.210 C 
ENDBRANCH  15  19
ENDBRANCH  10  13
ENDBRANCH   8   9
ENDBRANCH   7   8
ENDBRANCH   4   7
BRANCH   1  21
HETATM   21  C   UNL     1     -42.232  54.939 -52.795  1.00  0.00     0.270 C 
HETATM   22  N   UNL     1     -40.867  54.790 -52.733  1.00  0.00    -0.259 N 
HETATM   23  H   UNL     1     -40.223  55.384 -53.230  1.00  0.00     0.191 HD
HETATM   24  O   UNL     1     -43.059  54.122 -52.413  1.00  0.00    -0.266 OA
BRANCH  22  25
HETATM   25  N   UNL     1     -40.344  53.631 -52.290  1.00  0.00    -0.263 N 
HETATM   26  C   UNL     1     -40.144  52.546 -53.098  1.00  0.00     0.030 A 
HETATM   27  C   UNL     1     -40.288  52.588 -54.574  1.00  0.00     0.070 C 
HETATM   28  C   UNL     1     -39.784  51.500 -52.266  1.00  0.00     0.028 A 
HETATM   29  C   UNL     1     -39.809  51.981 -50.932  1.00  0.00     0.028 A 
HETATM   30  C   UNL     1     -40.185  53.313 -50.969  1.00  0.00     0.030 A 
HETATM   31  C   UNL     1     -40.355  54.283 -49.859  1.00  0.00     0.070 C 
ENDBRANCH  22  25
ENDBRANCH   1  21
TORSDOF 7
ENDMDL
MODEL 6
REMARK VINA RESULT:      -7.4      2.282      8.748
REMARK  7 active torsions:
REMARK  status: ('A' for Active; 'I' for Inactive)
REMARK    1  A    between atoms: N_3  and  N_4 
REMARK       I    between atoms: N_4  and  C_5 
REMARK    2  A    between atoms: C_5  and  C_6 
REMARK    3  A    between atoms: C_9  and  O_10 
REMARK    4  A    between atoms: O_10  and  C_11 
REMARK    5  A    between atoms: C_11  and  C_12 
REMARK       I    between atoms: C_12  and  N_13 
REMARK    6  A    between atoms: N_13  and  C_14 
REMARK    7  A    between atoms: C_16  and  O_17 
ROOT
HETATM    1  C   UNL     1     -42.823  56.192 -52.272  1.00  0.00     0.033 A 
HETATM    2  C   UNL     1     -44.064  56.633 -51.797  1.00  0.00     0.020 A 
HETATM    3  C   UNL     1     -44.441  57.967 -51.979  1.00  0.00     0.038 A 
HETATM    4  C   UNL     1     -43.584  58.868 -52.618  1.00  0.00     0.069 A 
HETATM    5  C   UNL     1     -42.358  58.419 -53.112  1.00  0.00     0.038 A 
HETATM    6  C   UNL     1     -41.981  57.084 -52.944  1.00  0.00     0.020 A 
ENDROOT
BRANCH   4   7
HETATM    7  O   UNL     1     -44.061  60.147 -52.734  1.00  0.00    -0.342 OA
BRANCH   7   8
HETATM    8  C   UNL     1     -45.308  60.273 -53.414  1.00  0.00     0.278 C 
BRANCH   8   9
HETATM    9  C   UNL     1     -45.148  60.071 -54.923  1.00  0.00     0.246 C 
HETATM   10  N   UNL     1     -45.703  58.885 -55.367  1.00  0.00    -0.325 N 
HETATM   11  H   UNL     1     -46.212  58.359 -54.663  1.00  0.00     0.169 HD
HETATM   12  O   UNL     1     -44.520  60.885 -55.595  1.00  0.00    -0.271 OA
BRANCH  10  13
HETATM   13  C   UNL     1     -45.657  58.337 -56.666  1.00  0.00     0.037 A 
HETATM   14  C   UNL     1     -44.490  57.854 -57.267  1.00  0.00     0.066 A 
HETATM   15  C   UNL     1     -44.524  57.310 -58.556  1.00  0.00     0.070 A 
HETATM   16  C   UNL     1     -45.737  57.248 -59.242  1.00  0.00     0.037 A 
HETATM   17  C   UNL     1     -46.905  57.728 -58.656  1.00  0.00     0.005 A 
HETATM   18  C   UNL     1     -46.864  58.273 -57.372  1.00  0.00     0.029 A 
BRANCH  15  19
HETATM   19  O   UNL     1     -43.453  56.808 -59.246  1.00  0.00    -0.356 OA
HETATM   20  C   UNL     1     -43.559  55.464 -59.706  1.00  0.00     0.210 C 
ENDBRANCH  15  19
ENDBRANCH  10  13
ENDBRANCH   8   9
ENDBRANCH   7   8
ENDBRANCH   4   7
BRANCH   1  21
HETATM   21  C   UNL     1     -42.375  54.786 -52.102  1.00  0.00     0.270 C 
HETATM   22  N   UNL     1     -41.025  54.585 -52.263  1.00  0.00    -0.259 N 
HETATM   23  H   UNL     1     -40.403  55.284 -52.639  1.00  0.00     0.191 HD
HETATM   24  O   UNL     1     -43.206  53.915 -51.879  1.00  0.00    -0.266 OA
BRANCH  22  25
HETATM   25  N   UNL     1     -40.533  53.332 -52.256  1.00  0.00    -0.263 N 
HETATM   26  C   UNL     1     -40.101  52.706 -51.119  1.00  0.00     0.030 A 
HETATM   27  C   UNL     1     -40.312  53.252 -49.755  1.00  0.00     0.070 C 
HETATM   28  C   UNL     1     -39.492  51.532 -51.526  1.00  0.00     0.028 A 
HETATM   29  C   UNL     1     -39.540  51.489 -52.942  1.00  0.00     0.028 A 
HETATM   30  C   UNL     1     -40.176  52.638 -53.380  1.00  0.00     0.030 A 
HETATM   31  C   UNL     1     -40.493  53.082 -54.760  1.00  0.00     0.070 C 
ENDBRANCH  22  25
ENDBRANCH   1  21
TORSDOF 7
ENDMDL
MODEL 7
REMARK VINA RESULT:      -7.3      5.407      7.824
REMARK  7 active torsions:
REMARK  status: ('A' for Active; 'I' for Inactive)
REMARK    1  A    between atoms: N_3  and  N_4 
REMARK       I    between atoms: N_4  and  C_5 
REMARK    2  A    between atoms: C_5  and  C_6 
REMARK    3  A    between atoms: C_9  and  O_10 
REMARK    4  A    between atoms: O_10  and  C_11 
REMARK    5  A    between atoms: C_11  and  C_12 
REMARK       I    between atoms: C_12  and  N_13 
REMARK    6  A    between atoms: N_13  and  C_14 
REMARK    7  A    between atoms: C_16  and  O_17 
ROOT
HETATM    1  C   UNL     1     -45.212  59.863 -51.490  1.00  0.00     0.033 A 
HETATM    2  C   UNL     1     -45.265  59.979 -52.884  1.00  0.00     0.020 A 
HETATM    3  C   UNL     1     -44.977  58.867 -53.682  1.00  0.00     0.038 A 
HETATM    4  C   UNL     1     -44.622  57.646 -53.101  1.00  0.00     0.069 A 
HETATM    5  C   UNL     1     -44.595  57.528 -51.710  1.00  0.00     0.038 A 
HETATM    6  C   UNL     1     -44.894  58.632 -50.907  1.00  0.00     0.020 A 
ENDROOT
BRANCH   4   7
HETATM    7  O   UNL     1     -44.359  56.632 -53.983  1.00  0.00    -0.342 OA
BRANCH   7   8
HETATM    8  C   UNL     1     -43.189  56.804 -54.780  1.00  0.00     0.278 C 
BRANCH   8   9
HETATM    9  C   UNL     1     -41.983  56.086 -54.168  1.00  0.00     0.246 C 
HETATM   10  N   UNL     1     -42.237  54.755 -53.888  1.00  0.00    -0.325 N 
HETATM   11  H   UNL     1     -43.142  54.416 -54.201  1.00  0.00     0.169 HD
HETATM   12  O   UNL     1     -40.953  56.706 -53.916  1.00  0.00    -0.271 OA
BRANCH  10  13
HETATM   13  C   UNL     1     -41.396  53.828 -53.240  1.00  0.00     0.037 A 
HETATM   14  C   UNL     1     -40.732  52.786 -53.896  1.00  0.00     0.066 A 
HETATM   15  C   UNL     1     -39.900  51.912 -53.188  1.00  0.00     0.070 A 
HETATM   16  C   UNL     1     -39.731  52.088 -51.814  1.00  0.00     0.037 A 
HETATM   17  C   UNL     1     -40.388  53.120 -51.148  1.00  0.00     0.005 A 
HETATM   18  C   UNL     1     -41.219  53.986 -51.860  1.00  0.00     0.029 A 
BRANCH  15  19
HETATM   19  O   UNL     1     -39.202  50.860 -53.717  1.00  0.00    -0.356 OA
HETATM   20  C   UNL     1     -39.933  49.947 -54.529  1.00  0.00     0.210 C 
ENDBRANCH  15  19
ENDBRANCH  10  13
ENDBRANCH   8   9
ENDBRANCH   7   8
ENDBRANCH   4   7
BRANCH   1  21
HETATM   21  C   UNL     1     -45.507  61.014 -50.598  1.00  0.00     0.270 C 
HETATM   22  N   UNL     1     -44.575  61.239 -49.614  1.00  0.00    -0.259 N 
HETATM   23  H   UNL     1     -43.841  60.585 -49.388  1.00  0.00     0.191 HD
HETATM   24  O   UNL     1     -46.543  61.646 -50.759  1.00  0.00    -0.266 OA
BRANCH  22  25
HETATM   25  N   UNL     1     -44.809  62.175 -48.676  1.00  0.00    -0.263 N 
HETATM   26  C   UNL     1     -44.354  63.461 -48.775  1.00  0.00     0.030 A 
HETATM   27  C   UNL     1     -43.733  64.016 -50.004  1.00  0.00     0.070 C 
HETATM   28  C   UNL     1     -44.613  64.063 -47.557  1.00  0.00     0.028 A 
HETATM   29  C   UNL     1     -45.206  63.090 -46.712  1.00  0.00     0.028 A 
HETATM   30  C   UNL     1     -45.298  61.908 -47.426  1.00  0.00     0.030 A 
HETATM   31  C   UNL     1     -45.846  60.591 -47.018  1.00  0.00     0.070 C 
ENDBRANCH  22  25
ENDBRANCH   1  21
TORSDOF 7
ENDMDL
MODEL 8
REMARK VINA RESULT:      -7.2      1.663      2.838
REMARK  7 active torsions:
REMARK  status: ('A' for Active; 'I' for Inactive)
REMARK    1  A    between atoms: N_3  and  N_4 
REMARK       I    between atoms: N_4  and  C_5 
REMARK    2  A    between atoms: C_5  and  C_6 
REMARK    3  A    between atoms: C_9  and  O_10 
REMARK    4  A    between atoms: O_10  and  C_11 
REMARK    5  A    between atoms: C_11  and  C_12 
REMARK       I    between atoms: C_12  and  N_13 
REMARK    6  A    between atoms: N_13  and  C_14 
REMARK    7  A    between atoms: C_16  and  O_17 
ROOT
HETATM    1  C   UNL     1     -43.593  57.939 -54.796  1.00  0.00     0.033 A 
HETATM    2  C   UNL     1     -42.396  58.326 -54.182  1.00  0.00     0.020 A 
HETATM    3  C   UNL     1     -42.189  58.045 -52.827  1.00  0.00     0.038 A 
HETATM    4  C   UNL     1     -43.173  57.394 -52.077  1.00  0.00     0.069 A 
HETATM    5  C   UNL     1     -44.355  56.987 -52.699  1.00  0.00     0.038 A 
HETATM    6  C   UNL     1     -44.561  57.254 -54.055  1.00  0.00     0.020 A 
ENDROOT
BRANCH   4   7
HETATM    7  O   UNL     1     -42.859  57.178 -50.762  1.00  0.00    -0.342 OA
BRANCH   7   8
HETATM    8  C   UNL     1     -41.608  56.532 -50.532  1.00  0.00     0.278 C 
BRANCH   8   9
HETATM    9  C   UNL     1     -41.638  55.072 -50.990  1.00  0.00     0.246 C 
HETATM   10  N   UNL     1     -40.628  54.770 -51.885  1.00  0.00    -0.325 N 
HETATM   11  H   UNL     1     -39.960  55.518 -52.047  1.00  0.00     0.169 HD
HETATM   12  O   UNL     1     -42.535  54.322 -50.615  1.00  0.00    -0.271 OA
BRANCH  10  13
HETATM   13  C   UNL     1     -40.413  53.560 -52.577  1.00  0.00     0.037 A 
HETATM   14  C   UNL     1     -40.087  52.351 -51.953  1.00  0.00     0.066 A 
HETATM   15  C   UNL     1     -39.903  51.187 -52.705  1.00  0.00     0.070 A 
HETATM   16  C   UNL     1     -40.051  51.235 -54.092  1.00  0.00     0.037 A 
HETATM   17  C   UNL     1     -40.373  52.432 -54.726  1.00  0.00     0.005 A 
HETATM   18  C   UNL     1     -40.552  53.591 -53.971  1.00  0.00     0.029 A 
BRANCH  15  19
HETATM   19  O   UNL     1     -39.583  49.951 -52.210  1.00  0.00    -0.356 OA
HETATM   20  C   UNL     1     -39.457  49.839 -50.796  1.00  0.00     0.210 C 
ENDBRANCH  15  19
ENDBRANCH  10  13
ENDBRANCH   8   9
ENDBRANCH   7   8
ENDBRANCH   4   7
BRANCH   1  21
HETATM   21  C   UNL     1     -43.861  58.215 -56.230  1.00  0.00     0.270 C 
HETATM   22  N   UNL     1     -44.678  57.301 -56.853  1.00  0.00    -0.259 N 
HETATM   23  H   UNL     1     -44.937  56.419 -56.439  1.00  0.00     0.191 HD
HETATM   24  O   UNL     1     -43.327  59.178 -56.765  1.00  0.00    -0.266 OA
BRANCH  22  25
HETATM   25  N   UNL     1     -44.882  57.387 -58.181  1.00  0.00    -0.263 N 
HETATM   26  C   UNL     1     -44.029  56.846 -59.102  1.00  0.00     0.030 A 
HETATM   27  C   UNL     1     -42.906  55.944 -58.748  1.00  0.00     0.070 C 
HETATM   28  C   UNL     1     -44.454  57.298 -60.340  1.00  0.00     0.028 A 
HETATM   29  C   UNL     1     -45.565  58.154 -60.129  1.00  0.00     0.028 A 
HETATM   30  C   UNL     1     -45.802  58.213 -58.767  1.00  0.00     0.030 A 
HETATM   31  C   UNL     1     -46.846  58.952 -58.016  1.00  0.00     0.070 C 
ENDBRANCH  22  25
ENDBRANCH   1  21
TORSDOF 7
ENDMDL
MODEL 9
REMARK VINA RESULT:      -7.2      2.596      3.368
REMARK  7 active torsions:
REMARK  status: ('A' for Active; 'I' for Inactive)
REMARK    1  A    between atoms: N_3  and  N_4 
REMARK       I    between atoms: N_4  and  C_5 
REMARK    2  A    between atoms: C_5  and  C_6 
REMARK    3  A    between atoms: C_9  and  O_10 
REMARK    4  A    between atoms: O_10  and  C_11 
REMARK    5  A    between atoms: C_11  and  C_12 
REMARK       I    between atoms: C_12  and  N_13 
REMARK    6  A    between atoms: N_13  and  C_14 
REMARK    7  A    between atoms: C_16  and  O_17 
ROOT
HETATM    1  C   UNL     1     -43.743  58.002 -55.650  1.00  0.00     0.033 A 
HETATM    2  C   UNL     1     -43.802  58.964 -54.635  1.00  0.00     0.020 A 
HETATM    3  C   UNL     1     -43.967  58.560 -53.306  1.00  0.00     0.038 A 
HETATM    4  C   UNL     1     -44.088  57.205 -52.983  1.00  0.00     0.069 A 
HETATM    5  C   UNL     1     -44.003  56.247 -53.996  1.00  0.00     0.038 A 
HETATM    6  C   UNL     1     -43.826  56.644 -55.324  1.00  0.00     0.020 A 
ENDROOT
BRANCH   4   7
HETATM    7  O   UNL     1     -44.249  56.932 -51.652  1.00  0.00    -0.342 OA
BRANCH   7   8
HETATM    8  C   UNL     1     -43.060  56.558 -50.957  1.00  0.00     0.278 C 
BRANCH   8   9
HETATM    9  C   UNL     1     -42.673  55.107 -51.250  1.00  0.00     0.246 C 
HETATM   10  N   UNL     1     -41.451  54.995 -51.889  1.00  0.00    -0.325 N 
HETATM   11  H   UNL     1     -40.942  55.867 -51.996  1.00  0.00     0.169 HD
HETATM   12  O   UNL     1     -43.447  54.191 -50.980  1.00  0.00    -0.271 OA
BRANCH  10  13
HETATM   13  C   UNL     1     -40.835  53.829 -52.387  1.00  0.00     0.037 A 
HETATM   14  C   UNL     1     -40.366  52.787 -51.579  1.00  0.00     0.066 A 
HETATM   15  C   UNL     1     -39.777  51.653 -52.148  1.00  0.00     0.070 A 
HETATM   16  C   UNL     1     -39.663  51.562 -53.536  1.00  0.00     0.037 A 
HETATM   17  C   UNL     1     -40.124  52.592 -54.351  1.00  0.00     0.005 A 
HETATM   18  C   UNL     1     -40.706  53.723 -53.778  1.00  0.00     0.029 A 
BRANCH  15  19
HETATM   19  O   UNL     1     -39.283  50.575 -51.464  1.00  0.00    -0.356 OA
HETATM   20  C   UNL     1     -39.460  49.296 -52.066  1.00  0.00     0.210 C 
ENDBRANCH  15  19
ENDBRANCH  10  13
ENDBRANCH   8   9
ENDBRANCH   7   8
ENDBRANCH   4   7
BRANCH   1  21
HETATM   21  C   UNL     1     -43.571  58.379 -57.076  1.00  0.00     0.270 C 
HETATM   22  N   UNL     1     -42.267  58.521 -57.484  1.00  0.00    -0.259 N 
HETATM   23  H   UNL     1     -41.487  58.547 -56.845  1.00  0.00     0.191 HD
HETATM   24  O   UNL     1     -44.562  58.574 -57.768  1.00  0.00    -0.266 OA
BRANCH  22  25
HETATM   25  N   UNL     1     -42.002  58.983 -58.720  1.00  0.00    -0.263 N 
HETATM   26  C   UNL     1     -41.901  60.315 -59.013  1.00  0.00     0.030 A 
HETATM   27  C   UNL     1     -41.870  61.379 -57.980  1.00  0.00     0.070 C 
HETATM   28  C   UNL     1     -41.821  60.408 -60.392  1.00  0.00     0.028 A 
HETATM   29  C   UNL     1     -41.913  59.094 -60.919  1.00  0.00     0.028 A 
HETATM   30  C   UNL     1     -42.049  58.220 -59.855  1.00  0.00     0.030 A 
HETATM   31  C   UNL     1     -42.174  56.741 -59.851  1.00  0.00     0.070 C 
ENDBRANCH  22  25
ENDBRANCH   1  21
TORSDOF 7
ENDMDL
MODEL 10
REMARK VINA RESULT:      -7.1      3.485     10.115
REMARK  7 active torsions:
REMARK  status: ('A' for Active; 'I' for Inactive)
REMARK    1  A    between atoms: N_3  and  N_4 
REMARK       I    between atoms: N_4  and  C_5 
REMARK    2  A    between atoms: C_5  and  C_6 
REMARK    3  A    between atoms: C_9  and  O_10 
REMARK    4  A    between atoms: O_10  and  C_11 
REMARK    5  A    between atoms: C_11  and  C_12 
REMARK       I    between atoms: C_12  and  N_13 
REMARK    6  A    between atoms: N_13  and  C_14 
REMARK    7  A    between atoms: C_16  and  O_17 
ROOT
HETATM    1  C   UNL     1     -42.087  55.864 -55.242  1.00  0.00     0.033 A 
HETATM    2  C   UNL     1     -42.522  57.194 -55.230  1.00  0.00     0.020 A 
HETATM    3  C   UNL     1     -43.293  57.680 -56.292  1.00  0.00     0.038 A 
HETATM    4  C   UNL     1     -43.620  56.853 -57.371  1.00  0.00     0.069 A 
HETATM    5  C   UNL     1     -43.205  55.520 -57.366  1.00  0.00     0.038 A 
HETATM    6  C   UNL     1     -42.446  55.026 -56.302  1.00  0.00     0.020 A 
ENDROOT
BRANCH   4   7
HETATM    7  O   UNL     1     -44.374  57.441 -58.351  1.00  0.00    -0.342 OA
BRANCH   7   8
HETATM    8  C   UNL     1     -43.884  57.275 -59.680  1.00  0.00     0.278 C 
BRANCH   8   9
HETATM    9  C   UNL     1     -42.661  58.158 -59.940  1.00  0.00     0.246 C 
HETATM   10  N   UNL     1     -42.868  59.480 -59.588  1.00  0.00    -0.325 N 
HETATM   11  H   UNL     1     -43.755  59.668 -59.130  1.00  0.00     0.169 HD
HETATM   12  O   UNL     1     -41.658  57.689 -60.472  1.00  0.00    -0.271 OA
BRANCH  10  13
HETATM   13  C   UNL     1     -42.001  60.575 -59.776  1.00  0.00     0.037 A 
HETATM   14  C   UNL     1     -41.771  61.185 -61.015  1.00  0.00     0.066 A 
HETATM   15  C   UNL     1     -40.906  62.279 -61.121  1.00  0.00     0.070 A 
HETATM   16  C   UNL     1     -40.271  62.766 -59.978  1.00  0.00     0.037 A 
HETATM   17  C   UNL     1     -40.490  62.168 -58.740  1.00  0.00     0.005 A 
HETATM   18  C   UNL     1     -41.351  61.074 -58.640  1.00  0.00     0.029 A 
BRANCH  15  19
HETATM   19  O   UNL     1     -40.603  62.955 -62.273  1.00  0.00    -0.356 OA
HETATM   20  C   UNL     1     -39.221  63.102 -62.586  1.00  0.00     0.210 C 
ENDBRANCH  15  19
ENDBRANCH  10  13
ENDBRANCH   8   9
ENDBRANCH   7   8
ENDBRANCH   4   7
BRANCH   1  21
HETATM   21  C   UNL     1     -41.266  55.300 -54.140  1.00  0.00     0.270 C 
HETATM   22  N   UNL     1     -41.725  54.111 -53.625  1.00  0.00    -0.259 N 
HETATM   23  H   UNL     1     -42.633  53.730 -53.840  1.00  0.00     0.191 HD
HETATM   24  O   UNL     1     -40.290  55.923 -53.741  1.00  0.00    -0.266 OA
BRANCH  22  25
HETATM   25  N   UNL     1     -41.128  53.580 -52.542  1.00  0.00    -0.263 N 
HETATM   26  C   UNL     1     -40.264  52.523 -52.609  1.00  0.00     0.030 A 
HETATM   27  C   UNL     1     -39.736  51.978 -53.884  1.00  0.00     0.070 C 
HETATM   28  C   UNL     1     -40.014  52.137 -51.304  1.00  0.00     0.028 A 
HETATM   29  C   UNL     1     -40.782  52.973 -50.453  1.00  0.00     0.028 A 
HETATM   30  C   UNL     1     -41.489  53.855 -51.251  1.00  0.00     0.030 A 
HETATM   31  C   UNL     1     -42.428  54.939 -50.869  1.00  0.00     0.070 C 
ENDBRANCH  22  25
ENDBRANCH   1  21
TORSDOF 7
ENDMDL
