MODEL 1
REMARK VINA RESULT:      -7.3      0.000      0.000
REMARK  5 active torsions:
REMARK  status: ('A' for Active; 'I' for Inactive)
REMARK    1  A    between atoms: C_2  and  O_3 
REMARK    2  A    between atoms: C_2  and  C_5 
REMARK    3  A    between atoms: C_7  and  N_8 
REMARK    4  A    between atoms: N_8  and  C_9 
REMARK    5  A    between atoms: C_9  and  C_10 
ROOT
HETATM    1  N   UNL     1     -43.218  54.944 -55.931  1.00  0.00    -0.289 NA
HETATM    2  H   UNL     1     -44.163  54.609 -56.116  1.00  0.00     0.128 HD
ENDROOT
BRANCH   1   3
HETATM    3  C   UNL     1     -42.761  54.435 -54.702  1.00  0.00     0.009 A 
HETATM    4  C   UNL     1     -41.636  53.594 -54.703  1.00  0.00     0.033 A 
HETATM    5  C   UNL     1     -41.072  53.095 -53.512  1.00  0.00    -0.028 A 
HETATM    6  C   UNL     1     -41.660  53.460 -52.297  1.00  0.00     0.010 A 
HETATM    7  C   UNL     1     -42.739  54.343 -52.272  1.00  0.00     0.002 A 
HETATM    8  C   UNL     1     -43.268  54.842 -53.465  1.00  0.00     0.023 A 
BRANCH   5   9
HETATM    9  C   UNL     1     -39.884  52.154 -53.588  1.00  0.00     0.149 C 
HETATM   10  C   UNL     1     -39.490  51.555 -52.236  1.00  0.00     0.045 C 
BRANCH   9  11
HETATM   11  O   UNL     1     -40.232  51.121 -54.514  1.00  0.00    -0.386 OA
HETATM   12  C   UNL     1     -39.623  49.872 -54.222  1.00  0.00     0.202 C 
ENDBRANCH   9  11
ENDBRANCH   5   9
ENDBRANCH   1   3
BRANCH   1  13
HETATM   13  C   UNL     1     -43.143  56.393 -56.158  1.00  0.00     0.133 C 
BRANCH  13  14
HETATM   14  C   UNL     1     -42.990  56.763 -57.618  1.00  0.00    -0.016 A 
HETATM   15  C   UNL     1     -43.596  56.100 -58.699  1.00  0.00     0.069 A 
HETATM   16  C   UNL     1     -43.472  56.496 -60.025  1.00  0.00     0.012 A 
HETATM   17  N   UNL     1     -44.394  54.984 -58.736  1.00  0.00    -0.277 N 
HETATM   18  C   UNL     1     -44.245  55.561 -60.749  1.00  0.00     0.152 A 
HETATM   19  C   UNL     1     -42.692  57.621 -60.336  1.00  0.00     0.015 A 
HETATM   20  N   UNL     1     -44.816  54.642 -59.968  1.00  0.00    -0.186 NA
HETATM   21  C   UNL     1     -42.067  58.310 -59.293  1.00  0.00     0.002 A 
HETATM   22  C   UNL     1     -42.217  57.890 -57.969  1.00  0.00     0.011 A 
HETATM   23  H   UNL     1     -44.666  54.423 -57.933  1.00  0.00     0.189 HD
ENDBRANCH  13  14
ENDBRANCH   1  13
TORSDOF 5
ENDMDL
MODEL 2
REMARK VINA RESULT:      -7.2      4.716      6.229
REMARK  5 active torsions:
REMARK  status: ('A' for Active; 'I' for Inactive)
REMARK    1  A    between atoms: C_2  and  O_3 
REMARK    2  A    between atoms: C_2  and  C_5 
REMARK    3  A    between atoms: C_7  and  N_8 
REMARK    4  A    between atoms: N_8  and  C_9 
REMARK    5  A    between atoms: C_9  and  C_10 
ROOT
HETATM    1  N   UNL     1     -41.397  55.260 -51.376  1.00  0.00    -0.289 NA
HETATM    2  H   UNL     1     -40.836  56.103 -51.256  1.00  0.00     0.128 HD
ENDROOT
BRANCH   1   3
HETATM    3  C   UNL     1     -40.925  54.526 -52.479  1.00  0.00     0.009 A 
HETATM    4  C   UNL     1     -40.704  53.147 -52.319  1.00  0.00     0.033 A 
HETATM    5  C   UNL     1     -40.298  52.324 -53.388  1.00  0.00    -0.028 A 
HETATM    6  C   UNL     1     -40.116  52.912 -54.644  1.00  0.00     0.010 A 
HETATM    7  C   UNL     1     -40.390  54.266 -54.837  1.00  0.00     0.002 A 
HETATM    8  C   UNL     1     -40.813  55.058 -53.766  1.00  0.00     0.023 A 
BRANCH   5   9
HETATM    9  C   UNL     1     -40.033  50.852 -53.136  1.00  0.00     0.149 C 
HETATM   10  C   UNL     1     -39.446  50.119 -54.343  1.00  0.00     0.045 C 
BRANCH   9  11
HETATM   11  O   UNL     1     -39.142  50.777 -52.019  1.00  0.00    -0.386 OA
HETATM   12  C   UNL     1     -39.531  49.814 -51.050  1.00  0.00     0.202 C 
ENDBRANCH   9  11
ENDBRANCH   5   9
ENDBRANCH   1   3
BRANCH   1  13
HETATM   13  C   UNL     1     -42.826  55.594 -51.318  1.00  0.00     0.133 C 
BRANCH  13  14
HETATM   14  C   UNL     1     -43.111  57.053 -51.603  1.00  0.00    -0.016 A 
HETATM   15  C   UNL     1     -42.403  58.145 -51.073  1.00  0.00     0.069 A 
HETATM   16  C   UNL     1     -42.662  59.472 -51.392  1.00  0.00     0.012 A 
HETATM   17  N   UNL     1     -41.366  58.193 -50.174  1.00  0.00    -0.277 N 
HETATM   18  C   UNL     1     -41.714  60.209 -50.647  1.00  0.00     0.152 A 
HETATM   19  C   UNL     1     -43.695  59.773 -52.294  1.00  0.00     0.015 A 
HETATM   20  N   UNL     1     -40.917  59.434 -49.909  1.00  0.00    -0.186 NA
HETATM   21  C   UNL     1     -44.429  58.718 -52.844  1.00  0.00     0.002 A 
HETATM   22  C   UNL     1     -44.140  57.394 -52.507  1.00  0.00     0.011 A 
HETATM   23  H   UNL     1     -40.942  57.392 -49.715  1.00  0.00     0.189 HD
ENDBRANCH  13  14
ENDBRANCH   1  13
TORSDOF 5
ENDMDL
MODEL 3
REMARK VINA RESULT:      -7.1      4.294      5.753
REMARK  5 active torsions:
REMARK  status: ('A' for Active; 'I' for Inactive)
REMARK    1  A    between atoms: C_2  and  O_3 
REMARK    2  A    between atoms: C_2  and  C_5 
REMARK    3  A    between atoms: C_7  and  N_8 
REMARK    4  A    between atoms: N_8  and  C_9 
REMARK    5  A    between atoms: C_9  and  C_10 
ROOT
HETATM    1  N   UNL     1     -44.008  54.990 -51.243  1.00  0.00    -0.289 NA
HETATM    2  H   UNL     1     -44.609  54.481 -50.597  1.00  0.00     0.128 HD
ENDROOT
BRANCH   1   3
HETATM    3  C   UNL     1     -42.748  54.369 -51.315  1.00  0.00     0.009 A 
HETATM    4  C   UNL     1     -42.310  53.888 -52.560  1.00  0.00     0.033 A 
HETATM    5  C   UNL     1     -41.035  53.314 -52.735  1.00  0.00    -0.028 A 
HETATM    6  C   UNL     1     -40.188  53.230 -51.625  1.00  0.00     0.010 A 
HETATM    7  C   UNL     1     -40.581  53.758 -50.395  1.00  0.00     0.002 A 
HETATM    8  C   UNL     1     -41.842  54.342 -50.251  1.00  0.00     0.023 A 
BRANCH   5   9
HETATM    9  C   UNL     1     -40.643  52.772 -54.097  1.00  0.00     0.149 C 
HETATM   10  C   UNL     1     -40.159  53.850 -55.069  1.00  0.00     0.045 C 
BRANCH   9  11
HETATM   11  O   UNL     1     -39.620  51.798 -53.876  1.00  0.00    -0.386 OA
HETATM   12  C   UNL     1     -39.993  50.487 -54.275  1.00  0.00     0.202 C 
ENDBRANCH   9  11
ENDBRANCH   5   9
ENDBRANCH   1   3
BRANCH   1  13
HETATM   13  C   UNL     1     -44.061  56.429 -50.953  1.00  0.00     0.133 C 
BRANCH  13  14
HETATM   14  C   UNL     1     -43.208  57.260 -51.888  1.00  0.00    -0.016 A 
HETATM   15  C   UNL     1     -42.042  57.959 -51.531  1.00  0.00     0.069 A 
HETATM   16  C   UNL     1     -41.256  58.673 -52.425  1.00  0.00     0.012 A 
HETATM   17  N   UNL     1     -41.426  58.116 -50.314  1.00  0.00    -0.277 N 
HETATM   18  C   UNL     1     -40.202  59.191 -51.639  1.00  0.00     0.152 A 
HETATM   19  C   UNL     1     -41.628  58.725 -53.778  1.00  0.00     0.015 A 
HETATM   20  N   UNL     1     -40.297  58.847 -50.352  1.00  0.00    -0.186 NA
HETATM   21  C   UNL     1     -42.783  58.047 -54.179  1.00  0.00     0.002 A 
HETATM   22  C   UNL     1     -43.549  57.332 -53.256  1.00  0.00     0.011 A 
HETATM   23  H   UNL     1     -41.756  57.740 -49.429  1.00  0.00     0.189 HD
ENDBRANCH  13  14
ENDBRANCH   1  13
TORSDOF 5
ENDMDL
MODEL 4
REMARK VINA RESULT:      -7.1      1.612      2.635
REMARK  5 active torsions:
REMARK  status: ('A' for Active; 'I' for Inactive)
REMARK    1  A    between atoms: C_2  and  O_3 
REMARK    2  A    between atoms: C_2  and  C_5 
REMARK    3  A    between atoms: C_7  and  N_8 
REMARK    4  A    between atoms: N_8  and  C_9 
REMARK    5  A    between atoms: C_9  and  C_10 
ROOT
HETATM    1  N   UNL     1     -41.401  55.742 -55.849  1.00  0.00    -0.289 NA
HETATM    2  H   UNL     1     -40.743  55.706 -56.628  1.00  0.00     0.128 HD
ENDROOT
BRANCH   1   3
HETATM    3  C   UNL     1     -41.033  54.803 -54.869  1.00  0.00     0.009 A 
HETATM    4  C   UNL     1     -41.507  54.984 -53.558  1.00  0.00     0.033 A 
HETATM    5  C   UNL     1     -41.243  54.057 -52.531  1.00  0.00    -0.028 A 
HETATM    6  C   UNL     1     -40.487  52.921 -52.842  1.00  0.00     0.010 A 
HETATM    7  C   UNL     1     -40.061  52.693 -54.150  1.00  0.00     0.002 A 
HETATM    8  C   UNL     1     -40.353  53.616 -55.157  1.00  0.00     0.023 A 
BRANCH   5   9
HETATM    9  C   UNL     1     -41.746  54.337 -51.127  1.00  0.00     0.149 C 
HETATM   10  C   UNL     1     -43.256  54.153 -50.969  1.00  0.00     0.045 C 
BRANCH   9  11
HETATM   11  O   UNL     1     -41.036  53.459 -50.250  1.00  0.00    -0.386 OA
HETATM   12  C   UNL     1     -40.169  54.136 -49.352  1.00  0.00     0.202 C 
ENDBRANCH   9  11
ENDBRANCH   5   9
ENDBRANCH   1   3
BRANCH   1  13
HETATM   13  C   UNL     1     -42.780  55.721 -56.354  1.00  0.00     0.133 C 
BRANCH  13  14
HETATM   14  C   UNL     1     -42.921  56.329 -57.733  1.00  0.00    -0.016 A 
HETATM   15  C   UNL     1     -43.646  55.776 -58.803  1.00  0.00     0.069 A 
HETATM   16  C   UNL     1     -43.793  56.385 -60.043  1.00  0.00     0.012 A 
HETATM   17  N   UNL     1     -44.334  54.592 -58.905  1.00  0.00    -0.277 N 
HETATM   18  C   UNL     1     -44.596  55.490 -60.786  1.00  0.00     0.152 A 
HETATM   19  C   UNL     1     -43.185  57.629 -60.275  1.00  0.00     0.015 A 
HETATM   20  N   UNL     1     -44.935  54.399 -60.095  1.00  0.00    -0.186 NA
HETATM   21  C   UNL     1     -42.450  58.215 -59.240  1.00  0.00     0.002 A 
HETATM   22  C   UNL     1     -42.325  57.580 -58.002  1.00  0.00     0.011 A 
HETATM   23  H   UNL     1     -44.410  53.886 -58.179  1.00  0.00     0.189 HD
ENDBRANCH  13  14
ENDBRANCH   1  13
TORSDOF 5
ENDMDL
MODEL 5
REMARK VINA RESULT:      -7.1      2.734      7.510
REMARK  5 active torsions:
REMARK  status: ('A' for Active; 'I' for Inactive)
REMARK    1  A    between atoms: C_2  and  O_3 
REMARK    2  A    between atoms: C_2  and  C_5 
REMARK    3  A    between atoms: C_7  and  N_8 
REMARK    4  A    between atoms: N_8  and  C_9 
REMARK    5  A    between atoms: C_9  and  C_10 
ROOT
HETATM    1  N   UNL     1     -42.052  54.169 -54.966  1.00  0.00    -0.289 NA
HETATM    2  H   UNL     1     -42.643  53.440 -55.363  1.00  0.00     0.128 HD
ENDROOT
BRANCH   1   3
HETATM    3  C   UNL     1     -42.300  55.392 -55.615  1.00  0.00     0.009 A 
HETATM    4  C   UNL     1     -42.682  55.366 -56.967  1.00  0.00     0.033 A 
HETATM    5  C   UNL     1     -43.016  56.538 -57.674  1.00  0.00    -0.028 A 
HETATM    6  C   UNL     1     -42.963  57.759 -56.994  1.00  0.00     0.010 A 
HETATM    7  C   UNL     1     -42.647  57.799 -55.636  1.00  0.00     0.002 A 
HETATM    8  C   UNL     1     -42.340  56.621 -54.951  1.00  0.00     0.023 A 
BRANCH   5   9
HETATM    9  C   UNL     1     -43.376  56.443 -59.145  1.00  0.00     0.149 C 
HETATM   10  C   UNL     1     -42.265  56.926 -60.079  1.00  0.00     0.045 C 
BRANCH   9  11
HETATM   11  O   UNL     1     -43.694  55.074 -59.406  1.00  0.00    -0.386 OA
HETATM   12  C   UNL     1     -44.960  54.896 -60.024  1.00  0.00     0.202 C 
ENDBRANCH   9  11
ENDBRANCH   5   9
ENDBRANCH   1   3
BRANCH   1  13
HETATM   13  C   UNL     1     -40.664  53.697 -54.872  1.00  0.00     0.133 C 
BRANCH  13  14
HETATM   14  C   UNL     1     -40.381  52.919 -53.605  1.00  0.00    -0.016 A 
HETATM   15  C   UNL     1     -40.054  51.554 -53.537  1.00  0.00     0.069 A 
HETATM   16  C   UNL     1     -39.754  50.881 -52.359  1.00  0.00     0.012 A 
HETATM   17  N   UNL     1     -39.958  50.603 -54.522  1.00  0.00    -0.277 N 
HETATM   18  C   UNL     1     -39.481  49.556 -52.765  1.00  0.00     0.152 A 
HETATM   19  C   UNL     1     -39.778  51.582 -51.142  1.00  0.00     0.015 A 
HETATM   20  N   UNL     1     -39.596  49.382 -54.084  1.00  0.00    -0.186 NA
HETATM   21  C   UNL     1     -40.102  52.941 -51.161  1.00  0.00     0.002 A 
HETATM   22  C   UNL     1     -40.393  53.591 -52.363  1.00  0.00     0.011 A 
HETATM   23  H   UNL     1     -40.141  50.753 -55.510  1.00  0.00     0.189 HD
ENDBRANCH  13  14
ENDBRANCH   1  13
TORSDOF 5
ENDMDL
MODEL 6
REMARK VINA RESULT:      -7.0      3.772      5.781
REMARK  5 active torsions:
REMARK  status: ('A' for Active; 'I' for Inactive)
REMARK    1  A    between atoms: C_2  and  O_3 
REMARK    2  A    between atoms: C_2  and  C_5 
REMARK    3  A    between atoms: C_7  and  N_8 
REMARK    4  A    between atoms: N_8  and  C_9 
REMARK    5  A    between atoms: C_9  and  C_10 
ROOT
HETATM    1  N   UNL     1     -43.619  54.602 -52.267  1.00  0.00    -0.289 NA
HETATM    2  H   UNL     1     -44.140  53.732 -52.167  1.00  0.00     0.128 HD
ENDROOT
BRANCH   1   3
HETATM    3  C   UNL     1     -42.585  54.435 -53.206  1.00  0.00     0.009 A 
HETATM    4  C   UNL     1     -41.638  53.420 -52.984  1.00  0.00     0.033 A 
HETATM    5  C   UNL     1     -40.611  53.140 -53.907  1.00  0.00    -0.028 A 
HETATM    6  C   UNL     1     -40.546  53.902 -55.078  1.00  0.00     0.010 A 
HETATM    7  C   UNL     1     -41.513  54.871 -55.344  1.00  0.00     0.002 A 
HETATM    8  C   UNL     1     -42.535  55.117 -54.424  1.00  0.00     0.023 A 
BRANCH   5   9
HETATM    9  C   UNL     1     -39.594  52.061 -53.584  1.00  0.00     0.149 C 
HETATM   10  C   UNL     1     -39.563  51.672 -52.105  1.00  0.00     0.045 C 
BRANCH   9  11
HETATM   11  O   UNL     1     -39.919  50.929 -54.396  1.00  0.00    -0.386 OA
HETATM   12  C   UNL     1     -39.675  49.686 -53.755  1.00  0.00     0.202 C 
ENDBRANCH   9  11
ENDBRANCH   5   9
ENDBRANCH   1   3
BRANCH   1  13
HETATM   13  C   UNL     1     -43.280  55.141 -50.943  1.00  0.00     0.133 C 
BRANCH  13  14
HETATM   14  C   UNL     1     -42.741  56.554 -50.993  1.00  0.00    -0.016 A 
HETATM   15  C   UNL     1     -43.433  57.679 -51.474  1.00  0.00     0.069 A 
HETATM   16  C   UNL     1     -42.924  58.972 -51.462  1.00  0.00     0.012 A 
HETATM   17  N   UNL     1     -44.679  57.794 -52.039  1.00  0.00    -0.277 N 
HETATM   18  C   UNL     1     -43.952  59.765 -52.020  1.00  0.00     0.152 A 
HETATM   19  C   UNL     1     -41.637  59.200 -50.949  1.00  0.00     0.015 A 
HETATM   20  N   UNL     1     -45.027  59.053 -52.366  1.00  0.00    -0.186 NA
HETATM   21  C   UNL     1     -40.910  58.109 -50.464  1.00  0.00     0.002 A 
HETATM   22  C   UNL     1     -41.451  56.822 -50.484  1.00  0.00     0.011 A 
HETATM   23  H   UNL     1     -45.319  57.027 -52.222  1.00  0.00     0.189 HD
ENDBRANCH  13  14
ENDBRANCH   1  13
TORSDOF 5
ENDMDL
MODEL 7
REMARK VINA RESULT:      -7.0      3.248      4.738
REMARK  5 active torsions:
REMARK  status: ('A' for Active; 'I' for Inactive)
REMARK    1  A    between atoms: C_2  and  O_3 
REMARK    2  A    between atoms: C_2  and  C_5 
REMARK    3  A    between atoms: C_7  and  N_8 
REMARK    4  A    between atoms: N_8  and  C_9 
REMARK    5  A    between atoms: C_9  and  C_10 
ROOT
HETATM    1  N   UNL     1     -43.797  55.192 -51.332  1.00  0.00    -0.289 NA
HETATM    2  H   UNL     1     -44.498  54.744 -50.744  1.00  0.00     0.128 HD
ENDROOT
BRANCH   1   3
HETATM    3  C   UNL     1     -42.633  54.403 -51.376  1.00  0.00     0.009 A 
HETATM    4  C   UNL     1     -42.203  53.915 -52.621  1.00  0.00     0.033 A 
HETATM    5  C   UNL     1     -41.013  53.175 -52.766  1.00  0.00    -0.028 A 
HETATM    6  C   UNL     1     -40.244  52.929 -51.624  1.00  0.00     0.010 A 
HETATM    7  C   UNL     1     -40.622  53.458 -50.390  1.00  0.00     0.002 A 
HETATM    8  C   UNL     1     -41.795  54.207 -50.275  1.00  0.00     0.023 A 
BRANCH   5   9
HETATM    9  C   UNL     1     -40.631  52.638 -54.133  1.00  0.00     0.149 C 
HETATM   10  C   UNL     1     -40.143  53.717 -55.100  1.00  0.00     0.045 C 
BRANCH   9  11
HETATM   11  O   UNL     1     -39.616  51.653 -53.922  1.00  0.00    -0.386 OA
HETATM   12  C   UNL     1     -39.971  50.364 -54.401  1.00  0.00     0.202 C 
ENDBRANCH   9  11
ENDBRANCH   5   9
ENDBRANCH   1   3
BRANCH   1  13
HETATM   13  C   UNL     1     -43.667  56.610 -50.968  1.00  0.00     0.133 C 
BRANCH  13  14
HETATM   14  C   UNL     1     -42.660  57.355 -51.817  1.00  0.00    -0.016 A 
HETATM   15  C   UNL     1     -42.742  57.548 -53.207  1.00  0.00     0.069 A 
HETATM   16  C   UNL     1     -41.823  58.279 -53.949  1.00  0.00     0.012 A 
HETATM   17  N   UNL     1     -43.663  57.102 -54.123  1.00  0.00    -0.277 N 
HETATM   18  C   UNL     1     -42.305  58.215 -55.275  1.00  0.00     0.152 A 
HETATM   19  C   UNL     1     -40.727  58.868 -53.298  1.00  0.00     0.015 A 
HETATM   20  N   UNL     1     -43.431  57.505 -55.386  1.00  0.00    -0.186 NA
HETATM   21  C   UNL     1     -40.602  58.700 -51.916  1.00  0.00     0.002 A 
HETATM   22  C   UNL     1     -41.547  57.964 -51.197  1.00  0.00     0.011 A 
HETATM   23  H   UNL     1     -44.464  56.511 -53.918  1.00  0.00     0.189 HD
ENDBRANCH  13  14
ENDBRANCH   1  13
TORSDOF 5
ENDMDL
MODEL 8
REMARK VINA RESULT:      -7.0      2.545      7.443
REMARK  5 active torsions:
REMARK  status: ('A' for Active; 'I' for Inactive)
REMARK    1  A    between atoms: C_2  and  O_3 
REMARK    2  A    between atoms: C_2  and  C_5 
REMARK    3  A    between atoms: C_7  and  N_8 
REMARK    4  A    between atoms: N_8  and  C_9 
REMARK    5  A    between atoms: C_9  and  C_10 
ROOT
HETATM    1  N   UNL     1     -42.419  55.225 -54.200  1.00  0.00    -0.289 NA
HETATM    2  H   UNL     1     -43.252  55.283 -53.616  1.00  0.00     0.128 HD
ENDROOT
BRANCH   1   3
HETATM    3  C   UNL     1     -42.463  56.217 -55.196  1.00  0.00     0.009 A 
HETATM    4  C   UNL     1     -42.889  55.853 -56.484  1.00  0.00     0.033 A 
HETATM    5  C   UNL     1     -43.028  56.796 -57.522  1.00  0.00    -0.028 A 
HETATM    6  C   UNL     1     -42.731  58.135 -57.245  1.00  0.00     0.010 A 
HETATM    7  C   UNL     1     -42.366  58.525 -55.956  1.00  0.00     0.002 A 
HETATM    8  C   UNL     1     -42.256  57.575 -54.938  1.00  0.00     0.023 A 
BRANCH   5   9
HETATM    9  C   UNL     1     -43.449  56.328 -58.903  1.00  0.00     0.149 C 
HETATM   10  C   UNL     1     -42.369  56.518 -59.969  1.00  0.00     0.045 C 
BRANCH   9  11
HETATM   11  O   UNL     1     -43.800  54.947 -58.782  1.00  0.00    -0.386 OA
HETATM   12  C   UNL     1     -44.644  54.485 -59.827  1.00  0.00     0.202 C 
ENDBRANCH   9  11
ENDBRANCH   5   9
ENDBRANCH   1   3
BRANCH   1  13
HETATM   13  C   UNL     1     -42.188  53.833 -54.611  1.00  0.00     0.133 C 
BRANCH  13  14
HETATM   14  C   UNL     1     -41.189  53.110 -53.733  1.00  0.00    -0.016 A 
HETATM   15  C   UNL     1     -40.883  53.433 -52.400  1.00  0.00     0.069 A 
HETATM   16  C   UNL     1     -39.994  52.717 -51.608  1.00  0.00     0.012 A 
HETATM   17  N   UNL     1     -41.332  54.451 -51.597  1.00  0.00    -0.277 N 
HETATM   18  C   UNL     1     -40.010  53.384 -50.363  1.00  0.00     0.152 A 
HETATM   19  C   UNL     1     -39.339  51.598 -52.149  1.00  0.00     0.015 A 
HETATM   20  N   UNL     1     -40.829  54.437 -50.348  1.00  0.00    -0.186 NA
HETATM   21  C   UNL     1     -39.610  51.242 -53.473  1.00  0.00     0.002 A 
HETATM   22  C   UNL     1     -40.514  51.979 -54.242  1.00  0.00     0.011 A 
HETATM   23  H   UNL     1     -41.981  55.182 -51.874  1.00  0.00     0.189 HD
ENDBRANCH  13  14
ENDBRANCH   1  13
TORSDOF 5
ENDMDL
MODEL 9
REMARK VINA RESULT:      -6.9      4.169      6.804
REMARK  5 active torsions:
REMARK  status: ('A' for Active; 'I' for Inactive)
REMARK    1  A    between atoms: C_2  and  O_3 
REMARK    2  A    between atoms: C_2  and  C_5 
REMARK    3  A    between atoms: C_7  and  N_8 
REMARK    4  A    between atoms: N_8  and  C_9 
REMARK    5  A    between atoms: C_9  and  C_10 
ROOT
HETATM    1  N   UNL     1     -40.575  54.294 -50.513  1.00  0.00    -0.289 NA
HETATM    2  H   UNL     1     -39.990  55.118 -50.645  1.00  0.00     0.128 HD
ENDROOT
BRANCH   1   3
HETATM    3  C   UNL     1     -40.636  53.556 -51.709  1.00  0.00     0.009 A 
HETATM    4  C   UNL     1     -41.468  54.022 -52.741  1.00  0.00     0.033 A 
HETATM    5  C   UNL     1     -41.537  53.382 -53.994  1.00  0.00    -0.028 A 
HETATM    6  C   UNL     1     -40.743  52.249 -54.204  1.00  0.00     0.010 A 
HETATM    7  C   UNL     1     -39.866  51.809 -53.214  1.00  0.00     0.002 A 
HETATM    8  C   UNL     1     -39.799  52.472 -51.987  1.00  0.00     0.023 A 
BRANCH   5   9
HETATM    9  C   UNL     1     -42.491  53.911 -55.049  1.00  0.00     0.149 C 
HETATM   10  C   UNL     1     -43.692  54.659 -54.468  1.00  0.00     0.045 C 
BRANCH   9  11
HETATM   11  O   UNL     1     -41.729  54.767 -55.904  1.00  0.00    -0.386 OA
HETATM   12  C   UNL     1     -42.159  56.121 -55.876  1.00  0.00     0.202 C 
ENDBRANCH   9  11
ENDBRANCH   5   9
ENDBRANCH   1   3
BRANCH   1  13
HETATM   13  C   UNL     1     -41.836  54.671 -49.860  1.00  0.00     0.133 C 
BRANCH  13  14
HETATM   14  C   UNL     1     -42.454  55.927 -50.434  1.00  0.00    -0.016 A 
HETATM   15  C   UNL     1     -41.764  57.109 -50.754  1.00  0.00     0.069 A 
HETATM   16  C   UNL     1     -42.356  58.229 -51.325  1.00  0.00     0.012 A 
HETATM   17  N   UNL     1     -40.443  57.448 -50.597  1.00  0.00    -0.277 N 
HETATM   18  C   UNL     1     -41.298  59.153 -51.477  1.00  0.00     0.152 A 
HETATM   19  C   UNL     1     -43.732  58.211 -51.605  1.00  0.00     0.015 A 
HETATM   20  N   UNL     1     -40.128  58.679 -51.043  1.00  0.00    -0.186 NA
HETATM   21  C   UNL     1     -44.460  57.058 -51.300  1.00  0.00     0.002 A 
HETATM   22  C   UNL     1     -43.834  55.946 -50.732  1.00  0.00     0.011 A 
HETATM   23  H   UNL     1     -39.726  56.861 -50.181  1.00  0.00     0.189 HD
ENDBRANCH  13  14
ENDBRANCH   1  13
TORSDOF 5
ENDMDL
MODEL 10
REMARK VINA RESULT:      -6.9      2.319      3.582
REMARK  5 active torsions:
REMARK  status: ('A' for Active; 'I' for Inactive)
REMARK    1  A    between atoms: C_2  and  O_3 
REMARK    2  A    between atoms: C_2  and  C_5 
REMARK    3  A    between atoms: C_7  and  N_8 
REMARK    4  A    between atoms: N_8  and  C_9 
REMARK    5  A    between atoms: C_9  and  C_10 
ROOT
HETATM    1  N   UNL     1     -41.384  55.179 -55.997  1.00  0.00    -0.289 NA
HETATM    2  H   UNL     1     -40.784  54.861 -56.757  1.00  0.00     0.128 HD
ENDROOT
BRANCH   1   3
HETATM    3  C   UNL     1     -41.033  54.522 -54.803  1.00  0.00     0.009 A 
HETATM    4  C   UNL     1     -41.422  55.100 -53.583  1.00  0.00     0.033 A 
HETATM    5  C   UNL     1     -41.171  54.476 -52.345  1.00  0.00    -0.028 A 
HETATM    6  C   UNL     1     -40.517  53.240 -52.347  1.00  0.00     0.010 A 
HETATM    7  C   UNL     1     -40.179  52.622 -53.550  1.00  0.00     0.002 A 
HETATM    8  C   UNL     1     -40.457  53.250 -54.767  1.00  0.00     0.023 A 
BRANCH   5   9
HETATM    9  C   UNL     1     -41.577  55.177 -51.062  1.00  0.00     0.149 C 
HETATM   10  C   UNL     1     -42.883  54.652 -50.464  1.00  0.00     0.045 C 
BRANCH   9  11
HETATM   11  O   UNL     1     -40.497  55.010 -50.139  1.00  0.00    -0.386 OA
HETATM   12  C   UNL     1     -40.921  54.634 -48.837  1.00  0.00     0.202 C 
ENDBRANCH   9  11
ENDBRANCH   5   9
ENDBRANCH   1   3
BRANCH   1  13
HETATM   13  C   UNL     1     -42.790  55.154 -56.421  1.00  0.00     0.133 C 
BRANCH  13  14
HETATM   14  C   UNL     1     -43.034  55.885 -57.724  1.00  0.00    -0.016 A 
HETATM   15  C   UNL     1     -42.690  57.221 -57.992  1.00  0.00     0.069 A 
HETATM   16  C   UNL     1     -42.887  57.847 -59.216  1.00  0.00     0.012 A 
HETATM   17  N   UNL     1     -42.127  58.182 -57.189  1.00  0.00    -0.277 N 
HETATM   18  C   UNL     1     -42.390  59.156 -59.031  1.00  0.00     0.152 A 
HETATM   19  C   UNL     1     -43.470  57.126 -60.271  1.00  0.00     0.015 A 
HETATM   20  N   UNL     1     -41.919  59.364 -57.799  1.00  0.00    -0.186 NA
HETATM   21  C   UNL     1     -43.832  55.794 -60.049  1.00  0.00     0.002 A 
HETATM   22  C   UNL     1     -43.616  55.191 -58.807  1.00  0.00     0.011 A 
HETATM   23  H   UNL     1     -41.876  58.065 -56.211  1.00  0.00     0.189 HD
ENDBRANCH  13  14
ENDBRANCH   1  13
TORSDOF 5
ENDMDL
