MODEL 1
REMARK VINA RESULT:      -7.5      0.000      0.000
REMARK  7 active torsions:
REMARK  status: ('A' for Active; 'I' for Inactive)
REMARK    1  A    between atoms: C_4  and  C_5 
REMARK    2  A    between atoms: C_10  and  C_11 
REMARK       I    between atoms: C_11  and  N_12 
REMARK    3  A    between atoms: N_12  and  C_13 
REMARK    4  A    between atoms: C_13  and  C_14 
REMARK    5  A    between atoms: C_14  and  C_15 
REMARK    6  A    between atoms: C_15  and  N_16 
REMARK    7  A    between atoms: C_26  and  C_27 
ROOT
HETATM    1  C   UNL     1     -40.213  53.450 -53.625  1.00  0.00     0.125 C 
HETATM    2  N   UNL     1     -40.805  53.995 -52.400  1.00  0.00    -0.365 N 
HETATM    3  C   UNL     1     -41.190  55.294 -52.384  1.00  0.00     0.141 A 
HETATM    4  N   UNL     1     -41.444  55.964 -53.553  1.00  0.00    -0.238 N 
HETATM    5  N   UNL     1     -41.727  57.268 -53.372  1.00  0.00    -0.163 NA
HETATM    6  C   UNL     1     -41.746  57.419 -52.027  1.00  0.00     0.165 A 
HETATM    7  C   UNL     1     -41.419  56.202 -51.383  1.00  0.00     0.092 A 
HETATM    8 BR   UNL     1     -41.294  55.899 -49.540  1.00  0.00    -0.044 Br
HETATM    9  C   UNL     1     -41.259  55.390 -54.878  1.00  0.00     0.221 C 
HETATM   10  C   UNL     1     -41.110  53.856 -54.806  1.00  0.00     0.067 C 
HETATM   11  H   UNL     1     -40.433  53.573 -51.545  1.00  0.00     0.162 HD
ENDROOT
BRANCH   6  12
HETATM   12  C   UNL     1     -42.074  58.723 -51.441  1.00  0.00     0.273 C 
HETATM   13  N   UNL     1     -43.404  58.860 -51.096  1.00  0.00    -0.355 N 
HETATM   14  H   UNL     1     -43.998  58.075 -51.372  1.00  0.00     0.162 HD
HETATM   15  O   UNL     1     -41.265  59.626 -51.220  1.00  0.00    -0.266 OA
BRANCH  13  16
HETATM   16  C   UNL     1     -43.991  60.108 -50.674  1.00  0.00     0.124 C 
BRANCH  16  17
HETATM   17  C   UNL     1     -44.689  60.875 -51.797  1.00  0.00     0.047 C 
BRANCH  17  18
HETATM   18  C   UNL     1     -45.960  60.256 -52.381  1.00  0.00     0.236 C 
BRANCH  18  19
HETATM   19  N   UNL     1     -45.923  60.061 -53.872  1.00  0.00    -0.067 N 
HETATM   20  H   UNL     1     -46.880  59.768 -54.161  1.00  0.00     0.280 HD
HETATM   21  C   UNL     1     -45.521  61.283 -54.677  1.00  0.00     0.261 C 
HETATM   22  C   UNL     1     -45.543  60.949 -56.174  1.00  0.00     0.195 C 
HETATM   23  O   UNL     1     -44.687  59.840 -56.468  1.00  0.00    -0.388 OA
HETATM   24  C   UNL     1     -45.106  58.658 -55.775  1.00  0.00     0.195 C 
HETATM   25  C   UNL     1     -45.047  58.869 -54.259  1.00  0.00     0.261 C 
ENDBRANCH  18  19
ENDBRANCH  17  18
ENDBRANCH  16  17
ENDBRANCH  13  16
ENDBRANCH   6  12
BRANCH   9  26
HETATM   26  C   UNL     1     -42.409  55.749 -55.797  1.00  0.00     0.409 C 
HETATM   27  F   UNL     1     -42.264  56.965 -56.369  1.00  0.00    -0.169 F 
HETATM   28  F   UNL     1     -42.491  54.854 -56.813  1.00  0.00    -0.169 F 
HETATM   29  F   UNL     1     -43.599  55.730 -55.156  1.00  0.00    -0.169 F 
ENDBRANCH   9  26
BRANCH   1  30
HETATM   30  C   UNL     1     -40.034  51.954 -53.567  1.00  0.00     0.005 A 
HETATM   31  S   UNL     1     -39.532  51.212 -52.102  1.00  0.00    -0.104 SA
HETATM   32  C   UNL     1     -39.582  49.651 -52.797  1.00  0.00     0.050 A 
HETATM   33  C   UNL     1     -39.972  49.686 -54.116  1.00  0.00     0.008 A 
HETATM   34  C   UNL     1     -40.242  51.014 -54.559  1.00  0.00     0.017 A 
ENDBRANCH   1  30
TORSDOF 7
ENDMDL
MODEL 2
REMARK VINA RESULT:      -7.5      2.454      4.102
REMARK  7 active torsions:
REMARK  status: ('A' for Active; 'I' for Inactive)
REMARK    1  A    between atoms: C_4  and  C_5 
REMARK    2  A    between atoms: C_10  and  C_11 
REMARK       I    between atoms: C_11  and  N_12 
REMARK    3  A    between atoms: N_12  and  C_13 
REMARK    4  A    between atoms: C_13  and  C_14 
REMARK    5  A    between atoms: C_14  and  C_15 
REMARK    6  A    between atoms: C_15  and  N_16 
REMARK    7  A    between atoms: C_26  and  C_27 
ROOT
HETATM    1  C   UNL     1     -40.216  53.459 -53.622  1.00  0.00     0.125 C 
HETATM    2  N   UNL     1     -40.825  53.970 -52.390  1.00  0.00    -0.365 N 
HETATM    3  C   UNL     1     -41.219  55.265 -52.346  1.00  0.00     0.141 A 
HETATM    4  N   UNL     1     -41.465  55.963 -53.502  1.00  0.00    -0.238 N 
HETATM    5  N   UNL     1     -41.759  57.260 -53.292  1.00  0.00    -0.163 NA
HETATM    6  C   UNL     1     -41.794  57.377 -51.944  1.00  0.00     0.165 A 
HETATM    7  C   UNL     1     -41.466  56.147 -51.326  1.00  0.00     0.092 A 
HETATM    8 BR   UNL     1     -41.359  55.799 -49.490  1.00  0.00    -0.044 Br
HETATM    9  C   UNL     1     -41.261  55.423 -54.839  1.00  0.00     0.221 C 
HETATM   10  C   UNL     1     -41.102  53.889 -54.802  1.00  0.00     0.067 C 
HETATM   11  H   UNL     1     -40.460  53.530 -51.542  1.00  0.00     0.162 HD
ENDROOT
BRANCH   6  12
HETATM   12  C   UNL     1     -42.138  58.664 -51.330  1.00  0.00     0.273 C 
HETATM   13  N   UNL     1     -43.476  58.988 -51.427  1.00  0.00    -0.355 N 
HETATM   14  H   UNL     1     -44.033  58.337 -51.986  1.00  0.00     0.162 HD
HETATM   15  O   UNL     1     -41.349  59.402 -50.736  1.00  0.00    -0.266 OA
BRANCH  13  16
HETATM   16  C   UNL     1     -44.011  60.276 -51.058  1.00  0.00     0.124 C 
BRANCH  16  17
HETATM   17  C   UNL     1     -45.332  60.201 -50.292  1.00  0.00     0.047 C 
BRANCH  17  18
HETATM   18  C   UNL     1     -45.857  61.500 -49.675  1.00  0.00     0.236 C 
BRANCH  18  19
HETATM   19  N   UNL     1     -46.001  61.458 -48.179  1.00  0.00    -0.067 N 
HETATM   20  H   UNL     1     -46.670  60.689 -47.962  1.00  0.00     0.280 HD
HETATM   21  C   UNL     1     -44.716  61.220 -47.408  1.00  0.00     0.261 C 
HETATM   22  C   UNL     1     -45.011  61.184 -45.904  1.00  0.00     0.195 C 
HETATM   23  O   UNL     1     -45.647  62.391 -45.473  1.00  0.00    -0.388 OA
HETATM   24  C   UNL     1     -46.902  62.585 -46.136  1.00  0.00     0.195 C 
HETATM   25  C   UNL     1     -46.703  62.709 -47.650  1.00  0.00     0.261 C 
ENDBRANCH  18  19
ENDBRANCH  17  18
ENDBRANCH  16  17
ENDBRANCH  13  16
ENDBRANCH   6  12
BRANCH   9  26
HETATM   26  C   UNL     1     -42.403  55.797 -55.761  1.00  0.00     0.409 C 
HETATM   27  F   UNL     1     -43.598  55.829 -55.133  1.00  0.00    -0.169 F 
HETATM   28  F   UNL     1     -42.203  57.039 -56.270  1.00  0.00    -0.169 F 
HETATM   29  F   UNL     1     -42.507  54.953 -56.811  1.00  0.00    -0.169 F 
ENDBRANCH   9  26
BRANCH   1  30
HETATM   30  C   UNL     1     -40.027  51.964 -53.599  1.00  0.00     0.005 A 
HETATM   31  S   UNL     1     -39.513  51.192 -52.154  1.00  0.00    -0.104 SA
HETATM   32  C   UNL     1     -39.557  49.647 -52.884  1.00  0.00     0.050 A 
HETATM   33  C   UNL     1     -39.953  49.709 -54.200  1.00  0.00     0.008 A 
HETATM   34  C   UNL     1     -40.233  51.045 -54.611  1.00  0.00     0.017 A 
ENDBRANCH   1  30
TORSDOF 7
ENDMDL
MODEL 3
REMARK VINA RESULT:      -7.2      2.108      2.784
REMARK  7 active torsions:
REMARK  status: ('A' for Active; 'I' for Inactive)
REMARK    1  A    between atoms: C_4  and  C_5 
REMARK    2  A    between atoms: C_10  and  C_11 
REMARK       I    between atoms: C_11  and  N_12 
REMARK    3  A    between atoms: N_12  and  C_13 
REMARK    4  A    between atoms: C_13  and  C_14 
REMARK    5  A    between atoms: C_14  and  C_15 
REMARK    6  A    between atoms: C_15  and  N_16 
REMARK    7  A    between atoms: C_26  and  C_27 
ROOT
HETATM    1  C   UNL     1     -40.415  53.377 -53.050  1.00  0.00     0.125 C 
HETATM    2  N   UNL     1     -40.795  54.483 -52.165  1.00  0.00    -0.365 N 
HETATM    3  C   UNL     1     -41.255  55.631 -52.717  1.00  0.00     0.141 A 
HETATM    4  N   UNL     1     -41.775  55.639 -53.986  1.00  0.00    -0.238 N 
HETATM    5  N   UNL     1     -42.105  56.870 -54.422  1.00  0.00    -0.163 NA
HETATM    6  C   UNL     1     -41.874  57.671 -53.356  1.00  0.00     0.165 A 
HETATM    7  C   UNL     1     -41.347  56.925 -52.274  1.00  0.00     0.092 A 
HETATM    8 BR   UNL     1     -40.849  57.575 -50.592  1.00  0.00    -0.044 Br
HETATM    9  C   UNL     1     -41.812  54.475 -54.860  1.00  0.00     0.221 C 
HETATM   10  C   UNL     1     -41.548  53.177 -54.069  1.00  0.00     0.067 C 
HETATM   11  H   UNL     1     -40.237  54.529 -51.309  1.00  0.00     0.162 HD
ENDROOT
BRANCH   6  12
HETATM   12  C   UNL     1     -42.170  59.105 -53.440  1.00  0.00     0.273 C 
HETATM   13  N   UNL     1     -43.477  59.386 -53.785  1.00  0.00    -0.355 N 
HETATM   14  H   UNL     1     -44.040  58.565 -54.021  1.00  0.00     0.162 HD
HETATM   15  O   UNL     1     -41.371  60.011 -53.195  1.00  0.00    -0.266 OA
BRANCH  13  16
HETATM   16  C   UNL     1     -43.949  60.711 -54.101  1.00  0.00     0.124 C 
BRANCH  16  17
HETATM   17  C   UNL     1     -44.020  61.001 -55.601  1.00  0.00     0.047 C 
BRANCH  17  18
HETATM   18  C   UNL     1     -44.843  60.040 -56.461  1.00  0.00     0.236 C 
BRANCH  18  19
HETATM   19  N   UNL     1     -44.067  59.387 -57.572  1.00  0.00    -0.067 N 
HETATM   20  H   UNL     1     -44.214  59.969 -58.423  1.00  0.00     0.280 HD
HETATM   21  C   UNL     1     -42.576  59.244 -57.327  1.00  0.00     0.261 C 
HETATM   22  C   UNL     1     -41.912  58.583 -58.541  1.00  0.00     0.195 C 
HETATM   23  O   UNL     1     -42.506  57.312 -58.826  1.00  0.00    -0.388 OA
HETATM   24  C   UNL     1     -43.897  57.444 -59.138  1.00  0.00     0.195 C 
HETATM   25  C   UNL     1     -44.666  58.033 -57.951  1.00  0.00     0.261 C 
ENDBRANCH  18  19
ENDBRANCH  17  18
ENDBRANCH  16  17
ENDBRANCH  13  16
ENDBRANCH   6  12
BRANCH   9  26
HETATM   26  C   UNL     1     -43.138  54.373 -55.584  1.00  0.00     0.409 C 
HETATM   27  F   UNL     1     -43.454  53.106 -55.929  1.00  0.00    -0.169 F 
HETATM   28  F   UNL     1     -44.141  54.815 -54.784  1.00  0.00    -0.169 F 
HETATM   29  F   UNL     1     -43.166  55.128 -56.705  1.00  0.00    -0.169 F 
ENDBRANCH   9  26
BRANCH   1  30
HETATM   30  C   UNL     1     -40.128  52.104 -52.297  1.00  0.00     0.005 A 
HETATM   31  S   UNL     1     -39.646  50.696 -53.154  1.00  0.00    -0.104 SA
HETATM   32  C   UNL     1     -39.508  49.785 -51.715  1.00  0.00     0.050 A 
HETATM   33  C   UNL     1     -39.821  50.529 -50.601  1.00  0.00     0.008 A 
HETATM   34  C   UNL     1     -40.170  51.870 -50.935  1.00  0.00     0.017 A 
ENDBRANCH   1  30
TORSDOF 7
ENDMDL
MODEL 4
REMARK VINA RESULT:      -7.1      4.204      6.776
REMARK  7 active torsions:
REMARK  status: ('A' for Active; 'I' for Inactive)
REMARK    1  A    between atoms: C_4  and  C_5 
REMARK    2  A    between atoms: C_10  and  C_11 
REMARK       I    between atoms: C_11  and  N_12 
REMARK    3  A    between atoms: N_12  and  C_13 
REMARK    4  A    between atoms: C_13  and  C_14 
REMARK    5  A    between atoms: C_14  and  C_15 
REMARK    6  A    between atoms: C_15  and  N_16 
REMARK    7  A    between atoms: C_26  and  C_27 
ROOT
HETATM    1  C   UNL     1     -41.112  57.619 -53.292  1.00  0.00     0.125 C 
HETATM    2  N   UNL     1     -41.942  58.123 -54.392  1.00  0.00    -0.365 N 
HETATM    3  C   UNL     1     -42.224  57.296 -55.427  1.00  0.00     0.141 A 
HETATM    4  N   UNL     1     -42.139  55.935 -55.280  1.00  0.00    -0.238 N 
HETATM    5  N   UNL     1     -42.362  55.258 -56.422  1.00  0.00    -0.163 NA
HETATM    6  C   UNL     1     -42.694  56.218 -57.317  1.00  0.00     0.165 A 
HETATM    7  C   UNL     1     -42.621  57.501 -56.723  1.00  0.00     0.092 A 
HETATM    8 BR   UNL     1     -42.967  59.146 -57.545  1.00  0.00    -0.044 Br
HETATM    9  C   UNL     1     -41.682  55.273 -54.066  1.00  0.00     0.221 C 
HETATM   10  C   UNL     1     -41.666  56.248 -52.872  1.00  0.00     0.067 C 
HETATM   11  H   UNL     1     -41.818  59.123 -54.570  1.00  0.00     0.162 HD
ENDROOT
BRANCH   6  12
HETATM   12  C   UNL     1     -43.059  55.847 -58.688  1.00  0.00     0.273 C 
HETATM   13  N   UNL     1     -44.283  55.216 -58.788  1.00  0.00    -0.355 N 
HETATM   14  H   UNL     1     -44.731  55.013 -57.891  1.00  0.00     0.162 HD
HETATM   15  O   UNL     1     -42.387  56.091 -59.693  1.00  0.00    -0.266 OA
BRANCH  13  16
HETATM   16  C   UNL     1     -44.765  54.604 -60.002  1.00  0.00     0.124 C 
BRANCH  16  17
HETATM   17  C   UNL     1     -45.551  55.554 -60.905  1.00  0.00     0.047 C 
BRANCH  17  18
HETATM   18  C   UNL     1     -46.520  56.524 -60.224  1.00  0.00     0.236 C 
BRANCH  18  19
HETATM   19  N   UNL     1     -46.373  57.954 -60.664  1.00  0.00    -0.067 N 
HETATM   20  H   UNL     1     -46.466  57.961 -61.702  1.00  0.00     0.280 HD
HETATM   21  C   UNL     1     -47.382  58.922 -60.075  1.00  0.00     0.261 C 
HETATM   22  C   UNL     1     -47.127  60.333 -60.620  1.00  0.00     0.195 C 
HETATM   23  O   UNL     1     -45.790  60.760 -60.343  1.00  0.00    -0.388 OA
HETATM   24  C   UNL     1     -44.828  59.899 -60.963  1.00  0.00     0.195 C 
HETATM   25  C   UNL     1     -44.954  58.470 -60.425  1.00  0.00     0.261 C 
ENDBRANCH  18  19
ENDBRANCH  17  18
ENDBRANCH  16  17
ENDBRANCH  13  16
ENDBRANCH   6  12
BRANCH   9  26
HETATM   26  C   UNL     1     -42.546  54.073 -53.736  1.00  0.00     0.409 C 
HETATM   27  F   UNL     1     -43.847  54.260 -54.050  1.00  0.00    -0.169 F 
HETATM   28  F   UNL     1     -42.132  52.992 -54.442  1.00  0.00    -0.169 F 
HETATM   29  F   UNL     1     -42.478  53.741 -52.428  1.00  0.00    -0.169 F 
ENDBRANCH   9  26
BRANCH   1  30
HETATM   30  C   UNL     1     -41.061  58.569 -52.123  1.00  0.00     0.005 A 
HETATM   31  S   UNL     1     -42.420  59.556 -51.766  1.00  0.00    -0.104 SA
HETATM   32  C   UNL     1     -41.640  60.259 -50.417  1.00  0.00     0.050 A 
HETATM   33  C   UNL     1     -40.372  59.757 -50.235  1.00  0.00     0.008 A 
HETATM   34  C   UNL     1     -40.040  58.775 -51.214  1.00  0.00     0.017 A 
ENDBRANCH   1  30
TORSDOF 7
ENDMDL
MODEL 5
REMARK VINA RESULT:      -7.1      3.217      5.042
REMARK  7 active torsions:
REMARK  status: ('A' for Active; 'I' for Inactive)
REMARK    1  A    between atoms: C_4  and  C_5 
REMARK    2  A    between atoms: C_10  and  C_11 
REMARK       I    between atoms: C_11  and  N_12 
REMARK    3  A    between atoms: N_12  and  C_13 
REMARK    4  A    between atoms: C_13  and  C_14 
REMARK    5  A    between atoms: C_14  and  C_15 
REMARK    6  A    between atoms: C_15  and  N_16 
REMARK    7  A    between atoms: C_26  and  C_27 
ROOT
HETATM    1  C   UNL     1     -41.614  55.632 -51.936  1.00  0.00     0.125 C 
HETATM    2  N   UNL     1     -42.848  56.415 -51.822  1.00  0.00    -0.365 N 
HETATM    3  C   UNL     1     -43.431  56.879 -52.954  1.00  0.00     0.141 A 
HETATM    4  N   UNL     1     -43.169  56.296 -54.167  1.00  0.00    -0.238 N 
HETATM    5  N   UNL     1     -43.755  56.929 -55.203  1.00  0.00    -0.163 NA
HETATM    6  C   UNL     1     -44.496  57.900 -54.620  1.00  0.00     0.165 A 
HETATM    7  C   UNL     1     -44.319  57.890 -53.216  1.00  0.00     0.092 A 
HETATM    8 BR   UNL     1     -45.109  59.043 -51.971  1.00  0.00    -0.044 Br
HETATM    9  C   UNL     1     -42.216  55.213 -54.362  1.00  0.00     0.221 C 
HETATM   10  C   UNL     1     -41.829  54.563 -53.019  1.00  0.00     0.067 C 
HETATM   11  H   UNL     1     -42.898  56.976 -50.968  1.00  0.00     0.162 HD
ENDROOT
BRANCH   6  12
HETATM   12  C   UNL     1     -45.329  58.780 -55.447  1.00  0.00     0.273 C 
HETATM   13  N   UNL     1     -46.062  58.113 -56.408  1.00  0.00    -0.355 N 
HETATM   14  H   UNL     1     -45.863  57.111 -56.476  1.00  0.00     0.162 HD
HETATM   15  O   UNL     1     -45.429  60.001 -55.308  1.00  0.00    -0.266 OA
BRANCH  13  16
HETATM   16  C   UNL     1     -46.807  58.781 -57.446  1.00  0.00     0.124 C 
BRANCH  16  17
HETATM   17  C   UNL     1     -46.965  57.957 -58.724  1.00  0.00     0.047 C 
BRANCH  17  18
HETATM   18  C   UNL     1     -46.158  58.401 -59.946  1.00  0.00     0.236 C 
BRANCH  18  19
HETATM   19  N   UNL     1     -44.963  57.538 -60.243  1.00  0.00    -0.067 N 
HETATM   20  H   UNL     1     -44.948  57.390 -61.275  1.00  0.00     0.280 HD
HETATM   21  C   UNL     1     -43.625  58.109 -59.811  1.00  0.00     0.261 C 
HETATM   22  C   UNL     1     -42.499  57.139 -60.190  1.00  0.00     0.195 C 
HETATM   23  O   UNL     1     -42.713  55.848 -59.611  1.00  0.00    -0.388 OA
HETATM   24  C   UNL     1     -43.935  55.263 -60.076  1.00  0.00     0.195 C 
HETATM   25  C   UNL     1     -45.136  56.128 -59.678  1.00  0.00     0.261 C 
ENDBRANCH  18  19
ENDBRANCH  17  18
ENDBRANCH  16  17
ENDBRANCH  13  16
ENDBRANCH   6  12
BRANCH   9  26
HETATM   26  C   UNL     1     -42.768  54.159 -55.301  1.00  0.00     0.409 C 
HETATM   27  F   UNL     1     -42.616  54.484 -56.603  1.00  0.00    -0.169 F 
HETATM   28  F   UNL     1     -42.115  52.984 -55.118  1.00  0.00    -0.169 F 
HETATM   29  F   UNL     1     -44.081  53.920 -55.082  1.00  0.00    -0.169 F 
ENDBRANCH   9  26
BRANCH   1  30
HETATM   30  C   UNL     1     -41.201  55.008 -50.627  1.00  0.00     0.005 A 
HETATM   31  S   UNL     1     -40.412  53.483 -50.622  1.00  0.00    -0.104 SA
HETATM   32  C   UNL     1     -40.275  53.484 -48.918  1.00  0.00     0.050 A 
HETATM   33  C   UNL     1     -40.816  54.619 -48.358  1.00  0.00     0.008 A 
HETATM   34  C   UNL     1     -41.342  55.503 -49.344  1.00  0.00     0.017 A 
ENDBRANCH   1  30
TORSDOF 7
ENDMDL
MODEL 6
REMARK VINA RESULT:      -7.0      3.577      5.091
REMARK  7 active torsions:
REMARK  status: ('A' for Active; 'I' for Inactive)
REMARK    1  A    between atoms: C_4  and  C_5 
REMARK    2  A    between atoms: C_10  and  C_11 
REMARK       I    between atoms: C_11  and  N_12 
REMARK    3  A    between atoms: N_12  and  C_13 
REMARK    4  A    between atoms: C_13  and  C_14 
REMARK    5  A    between atoms: C_14  and  C_15 
REMARK    6  A    between atoms: C_15  and  N_16 
REMARK    7  A    between atoms: C_26  and  C_27 
ROOT
HETATM    1  C   UNL     1     -41.652  54.089 -53.282  1.00  0.00     0.125 C 
HETATM    2  N   UNL     1     -41.804  54.438 -54.698  1.00  0.00    -0.365 N 
HETATM    3  C   UNL     1     -42.425  55.598 -55.020  1.00  0.00     0.141 A 
HETATM    4  N   UNL     1     -42.514  56.621 -54.110  1.00  0.00    -0.238 N 
HETATM    5  N   UNL     1     -43.237  57.669 -54.551  1.00  0.00    -0.163 NA
HETATM    6  C   UNL     1     -43.545  57.343 -55.829  1.00  0.00     0.165 A 
HETATM    7  C   UNL     1     -43.047  56.058 -56.151  1.00  0.00     0.092 A 
HETATM    8 BR   UNL     1     -43.227  55.155 -57.780  1.00  0.00    -0.044 Br
HETATM    9  C   UNL     1     -42.036  56.536 -52.737  1.00  0.00     0.221 C 
HETATM   10  C   UNL     1     -41.103  55.323 -52.547  1.00  0.00     0.067 C 
HETATM   11  H   UNL     1     -41.918  53.625 -55.307  1.00  0.00     0.162 HD
ENDROOT
BRANCH   6  12
HETATM   12  C   UNL     1     -44.302  58.284 -56.662  1.00  0.00     0.273 C 
HETATM   13  N   UNL     1     -45.626  57.933 -56.836  1.00  0.00    -0.355 N 
HETATM   14  H   UNL     1     -45.882  57.026 -56.439  1.00  0.00     0.162 HD
HETATM   15  O   UNL     1     -43.852  59.323 -57.147  1.00  0.00    -0.266 OA
BRANCH  13  16
HETATM   16  C   UNL     1     -46.511  58.604 -57.756  1.00  0.00     0.124 C 
BRANCH  16  17
HETATM   17  C   UNL     1     -46.671  57.886 -59.097  1.00  0.00     0.047 C 
BRANCH  17  18
HETATM   18  C   UNL     1     -46.000  58.522 -60.315  1.00  0.00     0.236 C 
BRANCH  18  19
HETATM   19  N   UNL     1     -44.531  58.793 -60.140  1.00  0.00    -0.067 N 
HETATM   20  H   UNL     1     -44.396  59.091 -59.151  1.00  0.00     0.280 HD
HETATM   21  C   UNL     1     -43.615  57.618 -60.427  1.00  0.00     0.261 C 
HETATM   22  C   UNL     1     -42.156  58.027 -60.192  1.00  0.00     0.195 C 
HETATM   23  O   UNL     1     -41.802  59.158 -60.995  1.00  0.00    -0.388 OA
HETATM   24  C   UNL     1     -42.607  60.298 -60.675  1.00  0.00     0.195 C 
HETATM   25  C   UNL     1     -44.087  60.011 -60.949  1.00  0.00     0.261 C 
ENDBRANCH  18  19
ENDBRANCH  17  18
ENDBRANCH  16  17
ENDBRANCH  13  16
ENDBRANCH   6  12
BRANCH   9  26
HETATM   26  C   UNL     1     -41.319  57.804 -52.326  1.00  0.00     0.409 C 
HETATM   27  F   UNL     1     -40.516  58.293 -53.297  1.00  0.00    -0.169 F 
HETATM   28  F   UNL     1     -42.219  58.779 -52.044  1.00  0.00    -0.169 F 
HETATM   29  F   UNL     1     -40.568  57.628 -51.216  1.00  0.00    -0.169 F 
ENDBRANCH   9  26
BRANCH   1  30
HETATM   30  C   UNL     1     -40.763  52.890 -53.073  1.00  0.00     0.005 A 
HETATM   31  S   UNL     1     -40.151  52.545 -51.506  1.00  0.00    -0.104 SA
HETATM   32  C   UNL     1     -39.330  51.152 -52.059  1.00  0.00     0.050 A 
HETATM   33  C   UNL     1     -39.513  50.947 -53.407  1.00  0.00     0.008 A 
HETATM   34  C   UNL     1     -40.348  51.944 -53.991  1.00  0.00     0.017 A 
ENDBRANCH   1  30
TORSDOF 7
ENDMDL
MODEL 7
REMARK VINA RESULT:      -6.9      1.828      2.496
REMARK  7 active torsions:
REMARK  status: ('A' for Active; 'I' for Inactive)
REMARK    1  A    between atoms: C_4  and  C_5 
REMARK    2  A    between atoms: C_10  and  C_11 
REMARK       I    between atoms: C_11  and  N_12 
REMARK    3  A    between atoms: N_12  and  C_13 
REMARK    4  A    between atoms: C_13  and  C_14 
REMARK    5  A    between atoms: C_14  and  C_15 
REMARK    6  A    between atoms: C_15  and  N_16 
REMARK    7  A    between atoms: C_26  and  C_27 
ROOT
HETATM    1  C   UNL     1     -40.227  53.346 -53.585  1.00  0.00     0.125 C 
HETATM    2  N   UNL     1     -40.777  53.879 -52.335  1.00  0.00    -0.365 N 
HETATM    3  C   UNL     1     -41.198  55.167 -52.306  1.00  0.00     0.141 A 
HETATM    4  N   UNL     1     -41.526  55.823 -53.465  1.00  0.00    -0.238 N 
HETATM    5  N   UNL     1     -41.838  57.120 -53.276  1.00  0.00    -0.163 NA
HETATM    6  C   UNL     1     -41.799  57.277 -51.932  1.00  0.00     0.165 A 
HETATM    7  C   UNL     1     -41.407  56.073 -51.299  1.00  0.00     0.092 A 
HETATM    8 BR   UNL     1     -41.189  55.783 -49.463  1.00  0.00    -0.044 Br
HETATM    9  C   UNL     1     -41.386  55.248 -54.796  1.00  0.00     0.221 C 
HETATM   10  C   UNL     1     -41.189  53.720 -54.724  1.00  0.00     0.067 C 
HETATM   11  H   UNL     1     -40.354  53.473 -51.498  1.00  0.00     0.162 HD
ENDROOT
BRANCH   6  12
HETATM   12  C   UNL     1     -42.138  58.573 -51.336  1.00  0.00     0.273 C 
HETATM   13  N   UNL     1     -43.477  58.713 -51.029  1.00  0.00    -0.355 N 
HETATM   14  H   UNL     1     -44.067  57.936 -51.336  1.00  0.00     0.162 HD
HETATM   15  O   UNL     1     -41.332  59.469 -51.077  1.00  0.00    -0.266 OA
BRANCH  13  16
HETATM   16  C   UNL     1     -44.070  59.958 -50.606  1.00  0.00     0.124 C 
BRANCH  16  17
HETATM   17  C   UNL     1     -45.595  59.917 -50.514  1.00  0.00     0.047 C 
BRANCH  17  18
HETATM   18  C   UNL     1     -46.382  60.477 -51.701  1.00  0.00     0.236 C 
BRANCH  18  19
HETATM   19  N   UNL     1     -46.559  61.970 -51.675  1.00  0.00    -0.067 N 
HETATM   20  H   UNL     1     -47.440  62.177 -52.194  1.00  0.00     0.280 HD
HETATM   21  C   UNL     1     -46.647  62.591 -50.294  1.00  0.00     0.261 C 
HETATM   22  C   UNL     1     -46.845  64.107 -50.417  1.00  0.00     0.195 C 
HETATM   23  O   UNL     1     -45.790  64.704 -51.178  1.00  0.00    -0.388 OA
HETATM   24  C   UNL     1     -45.749  64.184 -52.512  1.00  0.00     0.195 C 
HETATM   25  C   UNL     1     -45.481  62.675 -52.497  1.00  0.00     0.261 C 
ENDBRANCH  18  19
ENDBRANCH  17  18
ENDBRANCH  16  17
ENDBRANCH  13  16
ENDBRANCH   6  12
BRANCH   9  26
HETATM   26  C   UNL     1     -42.586  55.570 -55.661  1.00  0.00     0.409 C 
HETATM   27  F   UNL     1     -42.503  56.785 -56.245  1.00  0.00    -0.169 F 
HETATM   28  F   UNL     1     -42.691  54.667 -56.668  1.00  0.00    -0.169 F 
HETATM   29  F   UNL     1     -43.744  55.521 -54.965  1.00  0.00    -0.169 F 
ENDBRANCH   9  26
BRANCH   1  30
HETATM   30  C   UNL     1     -40.001  51.856 -53.530  1.00  0.00     0.005 A 
HETATM   31  S   UNL     1     -39.490  51.125 -52.063  1.00  0.00    -0.104 SA
HETATM   32  C   UNL     1     -39.485  49.566 -52.763  1.00  0.00     0.050 A 
HETATM   33  C   UNL     1     -39.863  49.593 -54.086  1.00  0.00     0.008 A 
HETATM   34  C   UNL     1     -40.171  50.913 -54.527  1.00  0.00     0.017 A 
ENDBRANCH   1  30
TORSDOF 7
ENDMDL
MODEL 8
REMARK VINA RESULT:      -6.9      4.326      5.675
REMARK  7 active torsions:
REMARK  status: ('A' for Active; 'I' for Inactive)
REMARK    1  A    between atoms: C_4  and  C_5 
REMARK    2  A    between atoms: C_10  and  C_11 
REMARK       I    between atoms: C_11  and  N_12 
REMARK    3  A    between atoms: N_12  and  C_13 
REMARK    4  A    between atoms: C_13  and  C_14 
REMARK    5  A    between atoms: C_14  and  C_15 
REMARK    6  A    between atoms: C_15  and  N_16 
REMARK    7  A    between atoms: C_26  and  C_27 
ROOT
HETATM    1  C   UNL     1     -42.038  53.873 -53.234  1.00  0.00     0.125 C 
HETATM    2  N   UNL     1     -42.020  54.542 -54.539  1.00  0.00    -0.365 N 
HETATM    3  C   UNL     1     -42.819  55.619 -54.730  1.00  0.00     0.141 A 
HETATM    4  N   UNL     1     -43.289  56.341 -53.662  1.00  0.00    -0.238 N 
HETATM    5  N   UNL     1     -44.141  57.323 -54.014  1.00  0.00    -0.163 NA
HETATM    6  C   UNL     1     -44.146  57.288 -55.367  1.00  0.00     0.165 A 
HETATM    7  C   UNL     1     -43.326  56.237 -55.843  1.00  0.00     0.092 A 
HETATM    8 BR   UNL     1     -43.018  55.766 -57.628  1.00  0.00    -0.044 Br
HETATM    9  C   UNL     1     -43.046  55.990 -52.270  1.00  0.00     0.221 C 
HETATM   10  C   UNL     1     -41.912  54.952 -52.147  1.00  0.00     0.067 C 
HETATM   11  H   UNL     1     -41.843  53.906 -55.320  1.00  0.00     0.162 HD
ENDROOT
BRANCH   6  12
HETATM   12  C   UNL     1     -44.939  58.264 -56.122  1.00  0.00     0.273 C 
HETATM   13  N   UNL     1     -46.098  57.743 -56.661  1.00  0.00    -0.355 N 
HETATM   14  H   UNL     1     -46.207  56.733 -56.540  1.00  0.00     0.162 HD
HETATM   15  O   UNL     1     -44.659  59.457 -56.255  1.00  0.00    -0.266 OA
BRANCH  13  16
HETATM   16  C   UNL     1     -46.938  58.462 -57.586  1.00  0.00     0.124 C 
BRANCH  16  17
HETATM   17  C   UNL     1     -47.067  57.793 -58.955  1.00  0.00     0.047 C 
BRANCH  17  18
HETATM   18  C   UNL     1     -46.639  58.611 -60.176  1.00  0.00     0.236 C 
BRANCH  18  19
HETATM   19  N   UNL     1     -47.389  58.277 -61.436  1.00  0.00    -0.067 N 
HETATM   20  H   UNL     1     -46.747  58.484 -62.231  1.00  0.00     0.280 HD
HETATM   21  C   UNL     1     -47.862  56.840 -61.549  1.00  0.00     0.261 C 
HETATM   22  C   UNL     1     -48.590  56.637 -62.884  1.00  0.00     0.195 C 
HETATM   23  O   UNL     1     -49.686  57.547 -63.017  1.00  0.00    -0.388 OA
HETATM   24  C   UNL     1     -49.241  58.908 -62.994  1.00  0.00     0.195 C 
HETATM   25  C   UNL     1     -48.561  59.232 -61.660  1.00  0.00     0.261 C 
ENDBRANCH  18  19
ENDBRANCH  17  18
ENDBRANCH  16  17
ENDBRANCH  13  16
ENDBRANCH   6  12
BRANCH   9  26
HETATM   26  C   UNL     1     -42.711  57.216 -51.446  1.00  0.00     0.409 C 
HETATM   27  F   UNL     1     -43.808  57.884 -51.026  1.00  0.00    -0.169 F 
HETATM   28  F   UNL     1     -42.030  56.855 -50.329  1.00  0.00    -0.169 F 
HETATM   29  F   UNL     1     -41.928  58.086 -52.122  1.00  0.00    -0.169 F 
ENDBRANCH   9  26
BRANCH   1  30
HETATM   30  C   UNL     1     -40.954  52.835 -53.100  1.00  0.00     0.005 A 
HETATM   31  S   UNL     1     -40.171  52.610 -51.588  1.00  0.00    -0.104 SA
HETATM   32  C   UNL     1     -39.183  51.361 -52.208  1.00  0.00     0.050 A 
HETATM   33  C   UNL     1     -39.437  51.115 -53.538  1.00  0.00     0.008 A 
HETATM   34  C   UNL     1     -40.465  51.959 -54.051  1.00  0.00     0.017 A 
ENDBRANCH   1  30
TORSDOF 7
ENDMDL
MODEL 9
REMARK VINA RESULT:      -6.8      3.632      5.141
REMARK  7 active torsions:
REMARK  status: ('A' for Active; 'I' for Inactive)
REMARK    1  A    between atoms: C_4  and  C_5 
REMARK    2  A    between atoms: C_10  and  C_11 
REMARK       I    between atoms: C_11  and  N_12 
REMARK    3  A    between atoms: N_12  and  C_13 
REMARK    4  A    between atoms: C_13  and  C_14 
REMARK    5  A    between atoms: C_14  and  C_15 
REMARK    6  A    between atoms: C_15  and  N_16 
REMARK    7  A    between atoms: C_26  and  C_27 
ROOT
HETATM    1  C   UNL     1     -41.967  54.320 -52.915  1.00  0.00     0.125 C 
HETATM    2  N   UNL     1     -41.965  54.767 -54.312  1.00  0.00    -0.365 N 
HETATM    3  C   UNL     1     -42.672  55.873 -54.643  1.00  0.00     0.141 A 
HETATM    4  N   UNL     1     -43.011  56.801 -53.690  1.00  0.00    -0.238 N 
HETATM    5  N   UNL     1     -43.789  57.794 -54.161  1.00  0.00    -0.163 NA
HETATM    6  C   UNL     1     -43.876  57.543 -55.489  1.00  0.00     0.165 A 
HETATM    7  C   UNL     1     -43.185  56.353 -55.820  1.00  0.00     0.092 A 
HETATM    8 BR   UNL     1     -43.027  55.575 -57.515  1.00  0.00    -0.044 Br
HETATM    9  C   UNL     1     -42.719  56.654 -52.271  1.00  0.00     0.221 C 
HETATM   10  C   UNL     1     -41.679  55.542 -52.027  1.00  0.00     0.067 C 
HETATM   11  H   UNL     1     -41.893  54.000 -54.984  1.00  0.00     0.162 HD
ENDROOT
BRANCH   6  12
HETATM   12  C   UNL     1     -44.620  58.460 -56.359  1.00  0.00     0.273 C 
HETATM   13  N   UNL     1     -43.815  59.265 -57.139  1.00  0.00    -0.355 N 
HETATM   14  H   UNL     1     -42.814  59.181 -56.946  1.00  0.00     0.162 HD
HETATM   15  O   UNL     1     -45.848  58.513 -56.450  1.00  0.00    -0.266 OA
BRANCH  13  16
HETATM   16  C   UNL     1     -44.316  60.360 -57.933  1.00  0.00     0.124 C 
BRANCH  16  17
HETATM   17  C   UNL     1     -44.228  60.123 -59.440  1.00  0.00     0.047 C 
BRANCH  17  18
HETATM   18  C   UNL     1     -45.530  59.788 -60.172  1.00  0.00     0.236 C 
BRANCH  18  19
HETATM   19  N   UNL     1     -45.670  58.339 -60.550  1.00  0.00    -0.067 N 
HETATM   20  H   UNL     1     -45.900  58.315 -61.566  1.00  0.00     0.280 HD
HETATM   21  C   UNL     1     -44.443  57.481 -60.304  1.00  0.00     0.261 C 
HETATM   22  C   UNL     1     -44.719  56.040 -60.749  1.00  0.00     0.195 C 
HETATM   23  O   UNL     1     -45.860  55.501 -60.076  1.00  0.00    -0.388 OA
HETATM   24  C   UNL     1     -47.043  56.256 -60.366  1.00  0.00     0.195 C 
HETATM   25  C   UNL     1     -46.892  57.704 -59.888  1.00  0.00     0.261 C 
ENDBRANCH  18  19
ENDBRANCH  17  18
ENDBRANCH  16  17
ENDBRANCH  13  16
ENDBRANCH   6  12
BRANCH   9  26
HETATM   26  C   UNL     1     -42.226  57.956 -51.675  1.00  0.00     0.409 C 
HETATM   27  F   UNL     1     -41.473  57.777 -50.568  1.00  0.00    -0.169 F 
HETATM   28  F   UNL     1     -41.444  58.612 -52.569  1.00  0.00    -0.169 F 
HETATM   29  F   UNL     1     -43.243  58.788 -51.356  1.00  0.00    -0.169 F 
ENDBRANCH   9  26
BRANCH   1  30
HETATM   30  C   UNL     1     -40.975  53.215 -52.658  1.00  0.00     0.005 A 
HETATM   31  S   UNL     1     -40.478  52.871 -51.051  1.00  0.00    -0.104 SA
HETATM   32  C   UNL     1     -39.461  51.597 -51.566  1.00  0.00     0.050 A 
HETATM   33  C   UNL     1     -39.493  51.431 -52.931  1.00  0.00     0.008 A 
HETATM   34  C   UNL     1     -40.374  52.358 -53.562  1.00  0.00     0.017 A 
ENDBRANCH   1  30
TORSDOF 7
ENDMDL
MODEL 10
REMARK VINA RESULT:      -6.7     16.961     18.793
REMARK  7 active torsions:
REMARK  status: ('A' for Active; 'I' for Inactive)
REMARK    1  A    between atoms: C_4  and  C_5 
REMARK    2  A    between atoms: C_10  and  C_11 
REMARK       I    between atoms: C_11  and  N_12 
REMARK    3  A    between atoms: N_12  and  C_13 
REMARK    4  A    between atoms: C_13  and  C_14 
REMARK    5  A    between atoms: C_14  and  C_15 
REMARK    6  A    between atoms: C_15  and  N_16 
REMARK    7  A    between atoms: C_26  and  C_27 
ROOT
HETATM    1  C   UNL     1     -36.844  39.770 -59.666  1.00  0.00     0.125 C 
HETATM    2  N   UNL     1     -35.805  38.958 -59.026  1.00  0.00    -0.365 N 
HETATM    3  C   UNL     1     -35.178  39.448 -57.929  1.00  0.00     0.141 A 
HETATM    4  N   UNL     1     -35.761  40.430 -57.170  1.00  0.00    -0.238 N 
HETATM    5  N   UNL     1     -34.974  40.871 -56.169  1.00  0.00    -0.163 NA
HETATM    6  C   UNL     1     -33.880  40.075 -56.233  1.00  0.00     0.165 A 
HETATM    7  C   UNL     1     -33.982  39.173 -57.319  1.00  0.00     0.092 A 
HETATM    8 BR   UNL     1     -32.725  37.886 -57.838  1.00  0.00    -0.044 Br
HETATM    9  C   UNL     1     -37.026  41.072 -57.498  1.00  0.00     0.221 C 
HETATM   10  C   UNL     1     -37.796  40.271 -58.568  1.00  0.00     0.067 C 
HETATM   11  H   UNL     1     -35.279  38.377 -59.684  1.00  0.00     0.162 HD
ENDROOT
BRANCH   6  12
HETATM   12  C   UNL     1     -32.804  40.230 -55.250  1.00  0.00     0.273 C 
HETATM   13  N   UNL     1     -33.225  40.122 -53.940  1.00  0.00    -0.355 N 
HETATM   14  H   UNL     1     -34.238  40.037 -53.824  1.00  0.00     0.162 HD
HETATM   15  O   UNL     1     -31.613  40.401 -55.520  1.00  0.00    -0.266 OA
BRANCH  13  16
HETATM   16  C   UNL     1     -32.383  40.417 -52.807  1.00  0.00     0.124 C 
BRANCH  16  17
HETATM   17  C   UNL     1     -33.108  40.349 -51.462  1.00  0.00     0.047 C 
BRANCH  17  18
HETATM   18  C   UNL     1     -34.034  41.514 -51.108  1.00  0.00     0.236 C 
BRANCH  18  19
HETATM   19  N   UNL     1     -35.499  41.185 -51.188  1.00  0.00    -0.067 N 
HETATM   20  H   UNL     1     -35.964  41.686 -50.401  1.00  0.00     0.280 HD
HETATM   21  C   UNL     1     -36.182  41.573 -52.487  1.00  0.00     0.261 C 
HETATM   22  C   UNL     1     -37.668  41.198 -52.424  1.00  0.00     0.195 C 
HETATM   23  O   UNL     1     -37.838  39.803 -52.156  1.00  0.00    -0.388 OA
HETATM   24  C   UNL     1     -37.267  39.440 -50.893  1.00  0.00     0.195 C 
HETATM   25  C   UNL     1     -35.759  39.710 -50.882  1.00  0.00     0.261 C 
ENDBRANCH  18  19
ENDBRANCH  17  18
ENDBRANCH  16  17
ENDBRANCH  13  16
ENDBRANCH   6  12
BRANCH   9  26
HETATM   26  C   UNL     1     -37.890  41.244 -56.266  1.00  0.00     0.409 C 
HETATM   27  F   UNL     1     -39.210  41.141 -56.531  1.00  0.00    -0.169 F 
HETATM   28  F   UNL     1     -37.604  40.278 -55.357  1.00  0.00    -0.169 F 
HETATM   29  F   UNL     1     -37.679  42.433 -55.658  1.00  0.00    -0.169 F 
ENDBRANCH   9  26
BRANCH   1  30
HETATM   30  C   UNL     1     -37.594  39.015 -60.733  1.00  0.00     0.005 A 
HETATM   31  S   UNL     1     -39.032  38.168 -60.329  1.00  0.00    -0.104 SA
HETATM   32  C   UNL     1     -39.259  37.647 -61.941  1.00  0.00     0.050 A 
HETATM   33  C   UNL     1     -38.266  38.104 -62.776  1.00  0.00     0.008 A 
HETATM   34  C   UNL     1     -37.310  38.902 -62.082  1.00  0.00     0.017 A 
ENDBRANCH   1  30
TORSDOF 7
ENDMDL
