MODEL 1
REMARK VINA RESULT:      -8.2      0.000      0.000
REMARK  8 active torsions:
REMARK  status: ('A' for Active; 'I' for Inactive)
REMARK    1  A    between atoms: C_2  and  N_3 
REMARK    2  A    between atoms: C_2  and  C_23 
REMARK       I    between atoms: N_3  and  C_4 
REMARK    3  A    between atoms: N_3  and  C_16 
REMARK    4  A    between atoms: C_4  and  C_5 
REMARK    5  A    between atoms: C_5  and  N_6 
REMARK    6  A    between atoms: C_16  and  C_17 
REMARK       I    between atoms: C_23  and  N_24 
REMARK    7  A    between atoms: N_24  and  C_25 
REMARK    8  A    between atoms: C_28  and  O_29 
ROOT
HETATM    1  N   UNL     1     -42.619  57.570 -52.959  1.00  0.00    -0.333 N 
HETATM    2  C   UNL     1     -41.826  56.610 -52.328  1.00  0.00     0.240 C 
HETATM    3  O   UNL     1     -40.594  56.709 -52.320  1.00  0.00    -0.271 OA
ENDROOT
BRANCH   1   4
HETATM    4  C   UNL     1     -41.919  58.492 -53.898  1.00  0.00     0.176 C 
HETATM    5  C   UNL     1     -41.782  59.904 -53.324  1.00  0.00     0.042 C 
BRANCH   4   6
HETATM    6  C   UNL     1     -42.492  58.501 -55.341  1.00  0.00     0.244 C 
HETATM    7  N   UNL     1     -42.140  57.371 -56.064  1.00  0.00    -0.325 N 
HETATM    8  H   UNL     1     -41.516  56.726 -55.596  1.00  0.00     0.169 HD
HETATM    9  O   UNL     1     -43.039  59.500 -55.804  1.00  0.00    -0.271 OA
BRANCH   7  10
HETATM   10  C   UNL     1     -42.536  57.039 -57.374  1.00  0.00     0.035 A 
HETATM   11  C   UNL     1     -43.197  55.822 -57.561  1.00  0.00     0.032 A 
HETATM   12  C   UNL     1     -43.648  55.449 -58.832  1.00  0.00     0.039 A 
HETATM   13  C   UNL     1     -43.463  56.291 -59.928  1.00  0.00     0.068 A 
HETATM   14  C   UNL     1     -42.796  57.501 -59.747  1.00  0.00     0.039 A 
HETATM   15  C   UNL     1     -42.335  57.871 -58.476  1.00  0.00     0.032 A 
BRANCH  13  16
HETATM   16  O   UNL     1     -43.968  55.824 -61.110  1.00  0.00    -0.356 OA
HETATM   17  C   UNL     1     -45.186  55.092 -61.034  1.00  0.00     0.210 C 
ENDBRANCH  13  16
ENDBRANCH   7  10
ENDBRANCH   4   6
ENDBRANCH   1   4
BRANCH   1  18
HETATM   18  C   UNL     1     -44.079  57.458 -53.101  1.00  0.00     0.165 C 
BRANCH  18  19
HETATM   19  C   UNL     1     -44.824  58.584 -52.423  1.00  0.00    -0.040 A 
HETATM   20  C   UNL     1     -44.939  58.621 -51.025  1.00  0.00     0.009 A 
HETATM   21  C   UNL     1     -45.662  59.636 -50.399  1.00  0.00     0.001 A 
HETATM   22  C   UNL     1     -46.269  60.631 -51.161  1.00  0.00     0.000 A 
HETATM   23  C   UNL     1     -46.148  60.617 -52.549  1.00  0.00     0.001 A 
HETATM   24  C   UNL     1     -45.427  59.601 -53.178  1.00  0.00     0.009 A 
ENDBRANCH  18  19
ENDBRANCH   1  18
BRANCH   2  25
HETATM   25  C   UNL     1     -42.450  55.402 -51.674  1.00  0.00     0.250 C 
BRANCH  25  26
HETATM   26  N   UNL     1     -41.541  54.301 -51.454  1.00  0.00    -0.263 N 
HETATM   27  N   UNL     1     -41.152  54.043 -50.188  1.00  0.00     0.006 NA
HETATM   28  N   UNL     1     -40.343  52.994 -50.220  1.00  0.00    -0.158 NA
HETATM   29  C   UNL     1     -40.229  52.589 -51.520  1.00  0.00     0.102 A 
HETATM   30  C   UNL     1     -40.995  53.412 -52.342  1.00  0.00     0.079 A 
HETATM   31  C   UNL     1     -39.490  51.537 -52.080  1.00  0.00     0.035 A 
HETATM   32  C   UNL     1     -41.071  53.232 -53.727  1.00  0.00     0.033 A 
HETATM   33  C   UNL     1     -40.317  52.184 -54.271  1.00  0.00     0.002 A 
HETATM   34  C   UNL     1     -39.539  51.350 -53.465  1.00  0.00     0.002 A 
ENDBRANCH  25  26
ENDBRANCH   2  25
TORSDOF 8
ENDMDL
MODEL 2
REMARK VINA RESULT:      -8.2      2.303      6.055
REMARK  8 active torsions:
REMARK  status: ('A' for Active; 'I' for Inactive)
REMARK    1  A    between atoms: C_2  and  N_3 
REMARK    2  A    between atoms: C_2  and  C_23 
REMARK       I    between atoms: N_3  and  C_4 
REMARK    3  A    between atoms: N_3  and  C_16 
REMARK    4  A    between atoms: C_4  and  C_5 
REMARK    5  A    between atoms: C_5  and  N_6 
REMARK    6  A    between atoms: C_16  and  C_17 
REMARK       I    between atoms: C_23  and  N_24 
REMARK    7  A    between atoms: N_24  and  C_25 
REMARK    8  A    between atoms: C_28  and  O_29 
ROOT
HETATM    1  N   UNL     1     -42.349  56.586 -54.297  1.00  0.00    -0.333 N 
HETATM    2  C   UNL     1     -43.589  56.760 -53.680  1.00  0.00     0.240 C 
HETATM    3  O   UNL     1     -44.586  57.077 -54.337  1.00  0.00    -0.271 OA
ENDROOT
BRANCH   1   4
HETATM    4  C   UNL     1     -42.215  57.136 -55.676  1.00  0.00     0.176 C 
HETATM    5  C   UNL     1     -42.509  58.637 -55.729  1.00  0.00     0.042 C 
BRANCH   4   6
HETATM    6  C   UNL     1     -42.994  56.349 -56.764  1.00  0.00     0.244 C 
HETATM    7  N   UNL     1     -43.826  57.163 -57.519  1.00  0.00    -0.325 N 
HETATM    8  H   UNL     1     -43.870  58.133 -57.235  1.00  0.00     0.169 HD
HETATM    9  O   UNL     1     -42.979  55.120 -56.797  1.00  0.00    -0.271 OA
BRANCH   7  10
HETATM   10  C   UNL     1     -44.625  56.782 -58.614  1.00  0.00     0.035 A 
HETATM   11  C   UNL     1     -45.911  57.322 -58.695  1.00  0.00     0.032 A 
HETATM   12  C   UNL     1     -46.743  57.013 -59.776  1.00  0.00     0.039 A 
HETATM   13  C   UNL     1     -46.298  56.176 -60.800  1.00  0.00     0.068 A 
HETATM   14  C   UNL     1     -45.020  55.627 -60.718  1.00  0.00     0.039 A 
HETATM   15  C   UNL     1     -44.189  55.930 -59.630  1.00  0.00     0.032 A 
BRANCH  13  16
HETATM   16  O   UNL     1     -47.196  55.968 -61.811  1.00  0.00    -0.356 OA
HETATM   17  C   UNL     1     -48.214  56.950 -61.966  1.00  0.00     0.210 C 
ENDBRANCH  13  16
ENDBRANCH   7  10
ENDBRANCH   4   6
ENDBRANCH   1   4
BRANCH   1  18
HETATM   18  C   UNL     1     -41.103  56.317 -53.563  1.00  0.00     0.165 C 
BRANCH  18  19
HETATM   19  C   UNL     1     -40.776  54.845 -53.480  1.00  0.00    -0.040 A 
HETATM   20  C   UNL     1     -40.753  54.189 -52.240  1.00  0.00     0.009 A 
HETATM   21  C   UNL     1     -40.410  52.840 -52.155  1.00  0.00     0.001 A 
HETATM   22  C   UNL     1     -40.098  52.127 -53.310  1.00  0.00     0.000 A 
HETATM   23  C   UNL     1     -40.134  52.760 -54.551  1.00  0.00     0.001 A 
HETATM   24  C   UNL     1     -40.475  54.111 -54.637  1.00  0.00     0.009 A 
ENDBRANCH  18  19
ENDBRANCH   1  18
BRANCH   2  25
HETATM   25  C   UNL     1     -43.737  56.605 -52.186  1.00  0.00     0.250 C 
BRANCH  25  26
HETATM   26  N   UNL     1     -44.348  57.733 -51.523  1.00  0.00    -0.263 N 
HETATM   27  N   UNL     1     -45.565  57.557 -50.966  1.00  0.00     0.006 NA
HETATM   28  N   UNL     1     -45.922  58.704 -50.406  1.00  0.00    -0.158 NA
HETATM   29  C   UNL     1     -44.914  59.605 -50.609  1.00  0.00     0.102 A 
HETATM   30  C   UNL     1     -43.881  59.005 -51.326  1.00  0.00     0.079 A 
HETATM   31  C   UNL     1     -44.807  60.948 -50.222  1.00  0.00     0.035 A 
HETATM   32  C   UNL     1     -42.714  59.691 -51.679  1.00  0.00     0.033 A 
HETATM   33  C   UNL     1     -42.628  61.035 -51.295  1.00  0.00     0.002 A 
HETATM   34  C   UNL     1     -43.655  61.656 -50.580  1.00  0.00     0.002 A 
ENDBRANCH  25  26
ENDBRANCH   2  25
TORSDOF 8
ENDMDL
MODEL 3
REMARK VINA RESULT:      -8.1      2.710      8.239
REMARK  8 active torsions:
REMARK  status: ('A' for Active; 'I' for Inactive)
REMARK    1  A    between atoms: C_2  and  N_3 
REMARK    2  A    between atoms: C_2  and  C_23 
REMARK       I    between atoms: N_3  and  C_4 
REMARK    3  A    between atoms: N_3  and  C_16 
REMARK    4  A    between atoms: C_4  and  C_5 
REMARK    5  A    between atoms: C_5  and  N_6 
REMARK    6  A    between atoms: C_16  and  C_17 
REMARK       I    between atoms: C_23  and  N_24 
REMARK    7  A    between atoms: N_24  and  C_25 
REMARK    8  A    between atoms: C_28  and  O_29 
ROOT
HETATM    1  N   UNL     1     -43.335  57.150 -54.907  1.00  0.00    -0.333 N 
HETATM    2  C   UNL     1     -44.400  58.029 -54.702  1.00  0.00     0.240 C 
HETATM    3  O   UNL     1     -44.406  58.808 -53.743  1.00  0.00    -0.271 OA
ENDROOT
BRANCH   1   4
HETATM    4  C   UNL     1     -42.412  56.951 -53.754  1.00  0.00     0.176 C 
HETATM    5  C   UNL     1     -41.053  57.619 -53.983  1.00  0.00     0.042 C 
BRANCH   4   6
HETATM    6  C   UNL     1     -42.267  55.478 -53.288  1.00  0.00     0.244 C 
HETATM    7  N   UNL     1     -41.061  54.911 -53.673  1.00  0.00    -0.325 N 
HETATM    8  H   UNL     1     -40.467  55.491 -54.250  1.00  0.00     0.169 HD
HETATM    9  O   UNL     1     -43.214  54.869 -52.794  1.00  0.00    -0.271 OA
BRANCH   7  10
HETATM   10  C   UNL     1     -40.591  53.619 -53.369  1.00  0.00     0.035 A 
HETATM   11  C   UNL     1     -40.273  53.343 -52.037  1.00  0.00     0.032 A 
HETATM   12  C   UNL     1     -39.834  52.069 -51.661  1.00  0.00     0.039 A 
HETATM   13  C   UNL     1     -39.725  51.047 -52.605  1.00  0.00     0.068 A 
HETATM   14  C   UNL     1     -40.031  51.321 -53.936  1.00  0.00     0.039 A 
HETATM   15  C   UNL     1     -40.462  52.601 -54.314  1.00  0.00     0.032 A 
BRANCH  13  16
HETATM   16  O   UNL     1     -39.307  49.843 -52.110  1.00  0.00    -0.356 OA
HETATM   17  C   UNL     1     -39.485  49.635 -50.714  1.00  0.00     0.210 C 
ENDBRANCH  13  16
ENDBRANCH   7  10
ENDBRANCH   4   6
ENDBRANCH   1   4
BRANCH   1  18
HETATM   18  C   UNL     1     -43.314  56.123 -55.961  1.00  0.00     0.165 C 
BRANCH  18  19
HETATM   19  C   UNL     1     -42.923  56.676 -57.311  1.00  0.00    -0.040 A 
HETATM   20  C   UNL     1     -42.211  57.881 -57.409  1.00  0.00     0.009 A 
HETATM   21  C   UNL     1     -41.886  58.415 -58.655  1.00  0.00     0.001 A 
HETATM   22  C   UNL     1     -42.258  57.746 -59.819  1.00  0.00     0.000 A 
HETATM   23  C   UNL     1     -42.950  56.539 -59.737  1.00  0.00     0.001 A 
HETATM   24  C   UNL     1     -43.279  56.004 -58.490  1.00  0.00     0.009 A 
ENDBRANCH  18  19
ENDBRANCH   1  18
BRANCH   2  25
HETATM   25  C   UNL     1     -45.595  58.022 -55.624  1.00  0.00     0.250 C 
BRANCH  25  26
HETATM   26  N   UNL     1     -45.457  58.860 -56.793  1.00  0.00    -0.263 N 
HETATM   27  N   UNL     1     -44.826  60.045 -56.652  1.00  0.00     0.006 NA
HETATM   28  N   UNL     1     -44.800  60.631 -57.840  1.00  0.00    -0.158 NA
HETATM   29  C   UNL     1     -45.417  59.802 -58.734  1.00  0.00     0.102 A 
HETATM   30  C   UNL     1     -45.850  58.647 -58.088  1.00  0.00     0.079 A 
HETATM   31  C   UNL     1     -45.653  59.963 -60.107  1.00  0.00     0.035 A 
HETATM   32  C   UNL     1     -46.516  57.615 -58.757  1.00  0.00     0.033 A 
HETATM   33  C   UNL     1     -46.755  57.797 -60.125  1.00  0.00     0.002 A 
HETATM   34  C   UNL     1     -46.333  58.950 -60.791  1.00  0.00     0.002 A 
ENDBRANCH  25  26
ENDBRANCH   2  25
TORSDOF 8
ENDMDL
MODEL 4
REMARK VINA RESULT:      -8.1      3.864      9.004
REMARK  8 active torsions:
REMARK  status: ('A' for Active; 'I' for Inactive)
REMARK    1  A    between atoms: C_2  and  N_3 
REMARK    2  A    between atoms: C_2  and  C_23 
REMARK       I    between atoms: N_3  and  C_4 
REMARK    3  A    between atoms: N_3  and  C_16 
REMARK    4  A    between atoms: C_4  and  C_5 
REMARK    5  A    between atoms: C_5  and  N_6 
REMARK    6  A    between atoms: C_16  and  C_17 
REMARK       I    between atoms: C_23  and  N_24 
REMARK    7  A    between atoms: N_24  and  C_25 
REMARK    8  A    between atoms: C_28  and  O_29 
ROOT
HETATM    1  N   UNL     1     -43.806  57.001 -59.464  1.00  0.00    -0.333 N 
HETATM    2  C   UNL     1     -42.861  57.778 -60.138  1.00  0.00     0.240 C 
HETATM    3  O   UNL     1     -41.780  57.297 -60.491  1.00  0.00    -0.271 OA
ENDROOT
BRANCH   1   4
HETATM    4  C   UNL     1     -43.317  55.713 -58.894  1.00  0.00     0.176 C 
HETATM    5  C   UNL     1     -44.302  54.566 -59.138  1.00  0.00     0.042 C 
BRANCH   4   6
HETATM    6  C   UNL     1     -42.869  55.793 -57.411  1.00  0.00     0.244 C 
HETATM    7  N   UNL     1     -43.232  54.670 -56.681  1.00  0.00    -0.325 N 
HETATM    8  H   UNL     1     -43.787  53.984 -57.176  1.00  0.00     0.169 HD
HETATM    9  O   UNL     1     -42.406  56.829 -56.938  1.00  0.00    -0.271 OA
BRANCH   7  10
HETATM   10  C   UNL     1     -42.934  54.397 -55.332  1.00  0.00     0.035 A 
HETATM   11  C   UNL     1     -41.745  53.717 -55.057  1.00  0.00     0.032 A 
HETATM   12  C   UNL     1     -41.373  53.445 -53.736  1.00  0.00     0.039 A 
HETATM   13  C   UNL     1     -42.171  53.865 -52.671  1.00  0.00     0.068 A 
HETATM   14  C   UNL     1     -43.362  54.535 -52.942  1.00  0.00     0.039 A 
HETATM   15  C   UNL     1     -43.740  54.798 -54.266  1.00  0.00     0.032 A 
BRANCH  13  16
HETATM   16  O   UNL     1     -41.688  53.559 -51.429  1.00  0.00    -0.356 OA
HETATM   17  C   UNL     1     -40.409  52.936 -51.382  1.00  0.00     0.210 C 
ENDBRANCH  13  16
ENDBRANCH   7  10
ENDBRANCH   4   6
ENDBRANCH   1   4
BRANCH   1  18
HETATM   18  C   UNL     1     -45.064  57.536 -58.919  1.00  0.00     0.165 C 
BRANCH  18  19
HETATM   19  C   UNL     1     -46.161  57.626 -59.953  1.00  0.00    -0.040 A 
HETATM   20  C   UNL     1     -46.701  58.870 -60.312  1.00  0.00     0.009 A 
HETATM   21  C   UNL     1     -47.743  58.953 -61.235  1.00  0.00     0.001 A 
HETATM   22  C   UNL     1     -48.251  57.795 -61.819  1.00  0.00     0.000 A 
HETATM   23  C   UNL     1     -47.712  56.553 -61.485  1.00  0.00     0.001 A 
HETATM   24  C   UNL     1     -46.671  56.468 -60.559  1.00  0.00     0.009 A 
ENDBRANCH  18  19
ENDBRANCH   1  18
BRANCH   2  25
HETATM   25  C   UNL     1     -43.119  59.239 -60.415  1.00  0.00     0.250 C 
BRANCH  25  26
HETATM   26  N   UNL     1     -42.252  60.147 -59.702  1.00  0.00    -0.263 N 
HETATM   27  N   UNL     1     -42.133  59.994 -58.366  1.00  0.00     0.006 NA
HETATM   28  N   UNL     1     -41.286  60.914 -57.929  1.00  0.00    -0.158 NA
HETATM   29  C   UNL     1     -40.865  61.647 -59.003  1.00  0.00     0.102 A 
HETATM   30  C   UNL     1     -41.470  61.173 -60.165  1.00  0.00     0.079 A 
HETATM   31  C   UNL     1     -39.979  62.731 -59.070  1.00  0.00     0.035 A 
HETATM   32  C   UNL     1     -41.225  61.733 -61.423  1.00  0.00     0.033 A 
HETATM   33  C   UNL     1     -40.347  62.823 -61.470  1.00  0.00     0.002 A 
HETATM   34  C   UNL     1     -39.733  63.317 -60.316  1.00  0.00     0.002 A 
ENDBRANCH  25  26
ENDBRANCH   2  25
TORSDOF 8
ENDMDL
MODEL 5
REMARK VINA RESULT:      -8.0      2.262      6.790
REMARK  8 active torsions:
REMARK  status: ('A' for Active; 'I' for Inactive)
REMARK    1  A    between atoms: C_2  and  N_3 
REMARK    2  A    between atoms: C_2  and  C_23 
REMARK       I    between atoms: N_3  and  C_4 
REMARK    3  A    between atoms: N_3  and  C_16 
REMARK    4  A    between atoms: C_4  and  C_5 
REMARK    5  A    between atoms: C_5  and  N_6 
REMARK    6  A    between atoms: C_16  and  C_17 
REMARK       I    between atoms: C_23  and  N_24 
REMARK    7  A    between atoms: N_24  and  C_25 
REMARK    8  A    between atoms: C_28  and  O_29 
ROOT
HETATM    1  N   UNL     1     -43.160  56.169 -54.777  1.00  0.00    -0.333 N 
HETATM    2  C   UNL     1     -42.790  54.902 -54.324  1.00  0.00     0.240 C 
HETATM    3  O   UNL     1     -43.550  54.232 -53.617  1.00  0.00    -0.271 OA
ENDROOT
BRANCH   1   4
HETATM    4  C   UNL     1     -44.324  56.801 -54.091  1.00  0.00     0.176 C 
HETATM    5  C   UNL     1     -45.138  57.686 -55.039  1.00  0.00     0.042 C 
BRANCH   4   6
HETATM    6  C   UNL     1     -43.975  57.530 -52.766  1.00  0.00     0.244 C 
HETATM    7  N   UNL     1     -44.580  58.774 -52.664  1.00  0.00    -0.325 N 
HETATM    8  H   UNL     1     -45.109  59.073 -53.473  1.00  0.00     0.169 HD
HETATM    9  O   UNL     1     -43.114  57.093 -52.005  1.00  0.00    -0.271 OA
BRANCH   7  10
HETATM   10  C   UNL     1     -44.519  59.665 -51.576  1.00  0.00     0.035 A 
HETATM   11  C   UNL     1     -45.522  59.573 -50.607  1.00  0.00     0.032 A 
HETATM   12  C   UNL     1     -45.500  60.405 -49.483  1.00  0.00     0.039 A 
HETATM   13  C   UNL     1     -44.469  61.327 -49.300  1.00  0.00     0.068 A 
HETATM   14  C   UNL     1     -43.473  61.429 -50.269  1.00  0.00     0.039 A 
HETATM   15  C   UNL     1     -43.500  60.602 -51.401  1.00  0.00     0.032 A 
BRANCH  13  16
HETATM   16  O   UNL     1     -44.548  62.066 -48.152  1.00  0.00    -0.356 OA
HETATM   17  C   UNL     1     -44.925  61.365 -46.972  1.00  0.00     0.210 C 
ENDBRANCH  13  16
ENDBRANCH   7  10
ENDBRANCH   4   6
ENDBRANCH   1   4
BRANCH   1  18
HETATM   18  C   UNL     1     -42.265  57.063 -55.527  1.00  0.00     0.165 C 
BRANCH  18  19
HETATM   19  C   UNL     1     -42.474  56.985 -57.021  1.00  0.00    -0.040 A 
HETATM   20  C   UNL     1     -42.153  58.076 -57.843  1.00  0.00     0.009 A 
HETATM   21  C   UNL     1     -42.385  58.023 -59.217  1.00  0.00     0.001 A 
HETATM   22  C   UNL     1     -42.930  56.876 -59.788  1.00  0.00     0.000 A 
HETATM   23  C   UNL     1     -43.238  55.778 -58.986  1.00  0.00     0.001 A 
HETATM   24  C   UNL     1     -43.009  55.830 -57.610  1.00  0.00     0.009 A 
ENDBRANCH  18  19
ENDBRANCH   1  18
BRANCH   2  25
HETATM   25  C   UNL     1     -41.432  54.332 -54.653  1.00  0.00     0.250 C 
BRANCH  25  26
HETATM   26  N   UNL     1     -40.820  53.580 -53.582  1.00  0.00    -0.263 N 
HETATM   27  N   UNL     1     -40.568  54.221 -52.421  1.00  0.00     0.006 NA
HETATM   28  N   UNL     1     -40.028  53.346 -51.586  1.00  0.00    -0.158 NA
HETATM   29  C   UNL     1     -39.946  52.143 -52.229  1.00  0.00     0.102 A 
HETATM   30  C   UNL     1     -40.454  52.262 -53.521  1.00  0.00     0.079 A 
HETATM   31  C   UNL     1     -39.449  50.910 -51.785  1.00  0.00     0.035 A 
HETATM   32  C   UNL     1     -40.499  51.185 -54.413  1.00  0.00     0.033 A 
HETATM   33  C   UNL     1     -39.987  49.963 -53.958  1.00  0.00     0.002 A 
HETATM   34  C   UNL     1     -39.470  49.825 -52.668  1.00  0.00     0.002 A 
ENDBRANCH  25  26
ENDBRANCH   2  25
TORSDOF 8
ENDMDL
MODEL 6
REMARK VINA RESULT:      -8.0      2.698      7.636
REMARK  8 active torsions:
REMARK  status: ('A' for Active; 'I' for Inactive)
REMARK    1  A    between atoms: C_2  and  N_3 
REMARK    2  A    between atoms: C_2  and  C_23 
REMARK       I    between atoms: N_3  and  C_4 
REMARK    3  A    between atoms: N_3  and  C_16 
REMARK    4  A    between atoms: C_4  and  C_5 
REMARK    5  A    between atoms: C_5  and  N_6 
REMARK    6  A    between atoms: C_16  and  C_17 
REMARK       I    between atoms: C_23  and  N_24 
REMARK    7  A    between atoms: N_24  and  C_25 
REMARK    8  A    between atoms: C_28  and  O_29 
ROOT
HETATM    1  N   UNL     1     -41.791  55.555 -52.162  1.00  0.00    -0.333 N 
HETATM    2  C   UNL     1     -41.117  56.524 -52.907  1.00  0.00     0.240 C 
HETATM    3  O   UNL     1     -40.747  57.581 -52.387  1.00  0.00    -0.271 OA
ENDROOT
BRANCH   1   4
HETATM    4  C   UNL     1     -42.342  55.996 -50.848  1.00  0.00     0.176 C 
HETATM    5  C   UNL     1     -42.428  54.844 -49.844  1.00  0.00     0.042 C 
BRANCH   4   6
HETATM    6  C   UNL     1     -43.672  56.791 -50.940  1.00  0.00     0.244 C 
HETATM    7  N   UNL     1     -43.474  58.132 -51.234  1.00  0.00    -0.325 N 
HETATM    8  H   UNL     1     -42.510  58.433 -51.286  1.00  0.00     0.169 HD
HETATM    9  O   UNL     1     -44.742  56.285 -50.607  1.00  0.00    -0.271 OA
BRANCH   7  10
HETATM   10  C   UNL     1     -44.462  59.114 -51.440  1.00  0.00     0.035 A 
HETATM   11  C   UNL     1     -44.875  59.349 -52.755  1.00  0.00     0.032 A 
HETATM   12  C   UNL     1     -45.878  60.286 -53.026  1.00  0.00     0.039 A 
HETATM   13  C   UNL     1     -46.495  60.988 -51.990  1.00  0.00     0.068 A 
HETATM   14  C   UNL     1     -46.079  60.764 -50.679  1.00  0.00     0.039 A 
HETATM   15  C   UNL     1     -45.067  59.831 -50.408  1.00  0.00     0.032 A 
BRANCH  13  16
HETATM   16  O   UNL     1     -47.475  61.858 -52.382  1.00  0.00    -0.356 OA
HETATM   17  C   UNL     1     -47.151  62.734 -53.456  1.00  0.00     0.210 C 
ENDBRANCH  13  16
ENDBRANCH   7  10
ENDBRANCH   4   6
ENDBRANCH   1   4
BRANCH   1  18
HETATM   18  C   UNL     1     -42.355  54.325 -52.740  1.00  0.00     0.165 C 
BRANCH  18  19
HETATM   19  C   UNL     1     -41.317  53.249 -52.959  1.00  0.00    -0.040 A 
HETATM   20  C   UNL     1     -41.219  52.595 -54.197  1.00  0.00     0.009 A 
HETATM   21  C   UNL     1     -40.291  51.573 -54.389  1.00  0.00     0.001 A 
HETATM   22  C   UNL     1     -39.441  51.199 -53.350  1.00  0.00     0.000 A 
HETATM   23  C   UNL     1     -39.514  51.852 -52.121  1.00  0.00     0.001 A 
HETATM   24  C   UNL     1     -40.445  52.874 -51.926  1.00  0.00     0.009 A 
ENDBRANCH  18  19
ENDBRANCH   1  18
BRANCH   2  25
HETATM   25  C   UNL     1     -40.859  56.322 -54.380  1.00  0.00     0.250 C 
BRANCH  25  26
HETATM   26  N   UNL     1     -41.895  56.834 -55.247  1.00  0.00    -0.263 N 
HETATM   27  N   UNL     1     -42.622  55.946 -55.958  1.00  0.00     0.006 NA
HETATM   28  N   UNL     1     -43.514  56.628 -56.662  1.00  0.00    -0.158 NA
HETATM   29  C   UNL     1     -43.346  57.955 -56.385  1.00  0.00     0.102 A 
HETATM   30  C   UNL     1     -42.308  58.120 -55.471  1.00  0.00     0.079 A 
HETATM   31  C   UNL     1     -44.030  59.077 -56.874  1.00  0.00     0.035 A 
HETATM   32  C   UNL     1     -41.912  59.377 -55.001  1.00  0.00     0.033 A 
HETATM   33  C   UNL     1     -42.598  60.488 -55.509  1.00  0.00     0.002 A 
HETATM   34  C   UNL     1     -43.638  60.344 -56.430  1.00  0.00     0.002 A 
ENDBRANCH  25  26
ENDBRANCH   2  25
TORSDOF 8
ENDMDL
MODEL 7
REMARK VINA RESULT:      -7.9      1.947      2.812
REMARK  8 active torsions:
REMARK  status: ('A' for Active; 'I' for Inactive)
REMARK    1  A    between atoms: C_2  and  N_3 
REMARK    2  A    between atoms: C_2  and  C_23 
REMARK       I    between atoms: N_3  and  C_4 
REMARK    3  A    between atoms: N_3  and  C_16 
REMARK    4  A    between atoms: C_4  and  C_5 
REMARK    5  A    between atoms: C_5  and  N_6 
REMARK    6  A    between atoms: C_16  and  C_17 
REMARK       I    between atoms: C_23  and  N_24 
REMARK    7  A    between atoms: N_24  and  C_25 
REMARK    8  A    between atoms: C_28  and  O_29 
ROOT
HETATM    1  N   UNL     1     -42.550  57.547 -54.436  1.00  0.00    -0.333 N 
HETATM    2  C   UNL     1     -42.418  56.158 -54.479  1.00  0.00     0.240 C 
HETATM    3  O   UNL     1     -41.950  55.595 -55.474  1.00  0.00    -0.271 OA
ENDROOT
BRANCH   1   4
HETATM    4  C   UNL     1     -42.443  58.262 -55.740  1.00  0.00     0.176 C 
HETATM    5  C   UNL     1     -42.072  59.736 -55.559  1.00  0.00     0.042 C 
BRANCH   4   6
HETATM    6  C   UNL     1     -43.664  58.078 -56.680  1.00  0.00     0.244 C 
HETATM    7  N   UNL     1     -43.396  57.232 -57.746  1.00  0.00    -0.325 N 
HETATM    8  H   UNL     1     -42.443  56.898 -57.814  1.00  0.00     0.169 HD
HETATM    9  O   UNL     1     -44.676  58.765 -56.553  1.00  0.00    -0.271 OA
BRANCH   7  10
HETATM   10  C   UNL     1     -44.293  56.811 -58.746  1.00  0.00     0.035 A 
HETATM   11  C   UNL     1     -45.562  57.395 -58.764  1.00  0.00     0.032 A 
HETATM   12  C   UNL     1     -46.489  57.047 -59.752  1.00  0.00     0.039 A 
HETATM   13  C   UNL     1     -46.157  56.126 -60.746  1.00  0.00     0.068 A 
HETATM   14  C   UNL     1     -44.896  55.534 -60.726  1.00  0.00     0.039 A 
HETATM   15  C   UNL     1     -43.971  55.875 -59.730  1.00  0.00     0.032 A 
BRANCH  13  16
HETATM   16  O   UNL     1     -47.140  55.887 -61.667  1.00  0.00    -0.356 OA
HETATM   17  C   UNL     1     -48.089  56.928 -61.866  1.00  0.00     0.210 C 
ENDBRANCH  13  16
ENDBRANCH   7  10
ENDBRANCH   4   6
ENDBRANCH   1   4
BRANCH   1  18
HETATM   18  C   UNL     1     -43.198  58.272 -53.331  1.00  0.00     0.165 C 
BRANCH  18  19
HETATM   19  C   UNL     1     -42.213  58.784 -52.307  1.00  0.00    -0.040 A 
HETATM   20  C   UNL     1     -40.853  58.452 -52.399  1.00  0.00     0.009 A 
HETATM   21  C   UNL     1     -39.948  58.888 -51.431  1.00  0.00     0.001 A 
HETATM   22  C   UNL     1     -40.389  59.671 -50.367  1.00  0.00     0.000 A 
HETATM   23  C   UNL     1     -41.734  60.024 -50.273  1.00  0.00     0.001 A 
HETATM   24  C   UNL     1     -42.642  59.586 -51.239  1.00  0.00     0.009 A 
ENDBRANCH  18  19
ENDBRANCH   1  18
BRANCH   2  25
HETATM   25  C   UNL     1     -42.881  55.302 -53.325  1.00  0.00     0.250 C 
BRANCH  25  26
HETATM   26  N   UNL     1     -41.834  54.546 -52.680  1.00  0.00    -0.263 N 
HETATM   27  N   UNL     1     -41.391  54.973 -51.478  1.00  0.00     0.006 NA
HETATM   28  N   UNL     1     -40.454  54.130 -51.071  1.00  0.00    -0.158 NA
HETATM   29  C   UNL     1     -40.312  53.162 -52.025  1.00  0.00     0.102 A 
HETATM   30  C   UNL     1     -41.193  53.402 -53.077  1.00  0.00     0.079 A 
HETATM   31  C   UNL     1     -39.454  52.054 -52.072  1.00  0.00     0.035 A 
HETATM   32  C   UNL     1     -41.271  52.569 -54.198  1.00  0.00     0.033 A 
HETATM   33  C   UNL     1     -40.398  51.474 -54.235  1.00  0.00     0.002 A 
HETATM   34  C   UNL     1     -39.504  51.218 -53.193  1.00  0.00     0.002 A 
ENDBRANCH  25  26
ENDBRANCH   2  25
TORSDOF 8
ENDMDL
MODEL 8
REMARK VINA RESULT:      -7.7      2.228      7.687
REMARK  8 active torsions:
REMARK  status: ('A' for Active; 'I' for Inactive)
REMARK    1  A    between atoms: C_2  and  N_3 
REMARK    2  A    between atoms: C_2  and  C_23 
REMARK       I    between atoms: N_3  and  C_4 
REMARK    3  A    between atoms: N_3  and  C_16 
REMARK    4  A    between atoms: C_4  and  C_5 
REMARK    5  A    between atoms: C_5  and  N_6 
REMARK    6  A    between atoms: C_16  and  C_17 
REMARK       I    between atoms: C_23  and  N_24 
REMARK    7  A    between atoms: N_24  and  C_25 
REMARK    8  A    between atoms: C_28  and  O_29 
ROOT
HETATM    1  N   UNL     1     -41.754  55.859 -52.837  1.00  0.00    -0.333 N 
HETATM    2  C   UNL     1     -41.485  56.598 -53.990  1.00  0.00     0.240 C 
HETATM    3  O   UNL     1     -41.047  57.751 -53.918  1.00  0.00    -0.271 OA
ENDROOT
BRANCH   1   4
HETATM    4  C   UNL     1     -41.829  56.628 -51.562  1.00  0.00     0.176 C 
HETATM    5  C   UNL     1     -41.423  55.780 -50.354  1.00  0.00     0.042 C 
BRANCH   4   6
HETATM    6  C   UNL     1     -43.175  57.367 -51.331  1.00  0.00     0.244 C 
HETATM    7  N   UNL     1     -43.092  58.726 -51.597  1.00  0.00    -0.325 N 
HETATM    8  H   UNL     1     -42.172  59.071 -51.839  1.00  0.00     0.169 HD
HETATM    9  O   UNL     1     -44.131  56.802 -50.802  1.00  0.00    -0.271 OA
BRANCH   7  10
HETATM   10  C   UNL     1     -44.134  59.670 -51.542  1.00  0.00     0.035 A 
HETATM   11  C   UNL     1     -45.102  59.624 -52.550  1.00  0.00     0.032 A 
HETATM   12  C   UNL     1     -46.183  60.511 -52.536  1.00  0.00     0.039 A 
HETATM   13  C   UNL     1     -46.325  61.443 -51.507  1.00  0.00     0.068 A 
HETATM   14  C   UNL     1     -45.358  61.499 -50.506  1.00  0.00     0.039 A 
HETATM   15  C   UNL     1     -44.268  60.616 -50.526  1.00  0.00     0.032 A 
BRANCH  13  16
HETATM   16  O   UNL     1     -47.435  62.238 -51.594  1.00  0.00    -0.356 OA
HETATM   17  C   UNL     1     -48.046  62.335 -52.875  1.00  0.00     0.210 C 
ENDBRANCH  13  16
ENDBRANCH   7  10
ENDBRANCH   4   6
ENDBRANCH   1   4
BRANCH   1  18
HETATM   18  C   UNL     1     -42.378  54.527 -52.848  1.00  0.00     0.165 C 
BRANCH  18  19
HETATM   19  C   UNL     1     -41.373  53.409 -53.002  1.00  0.00    -0.040 A 
HETATM   20  C   UNL     1     -41.251  52.724 -54.220  1.00  0.00     0.009 A 
HETATM   21  C   UNL     1     -40.354  51.664 -54.353  1.00  0.00     0.001 A 
HETATM   22  C   UNL     1     -39.561  51.283 -53.273  1.00  0.00     0.000 A 
HETATM   23  C   UNL     1     -39.658  51.966 -52.062  1.00  0.00     0.001 A 
HETATM   24  C   UNL     1     -40.557  53.026 -51.927  1.00  0.00     0.009 A 
ENDBRANCH  18  19
ENDBRANCH   1  18
BRANCH   2  25
HETATM   25  C   UNL     1     -41.761  56.022 -55.358  1.00  0.00     0.250 C 
BRANCH  25  26
HETATM   26  N   UNL     1     -42.853  56.650 -56.064  1.00  0.00    -0.263 N 
HETATM   27  N   UNL     1     -43.661  57.481 -55.374  1.00  0.00     0.006 NA
HETATM   28  N   UNL     1     -44.572  57.949 -56.214  1.00  0.00    -0.158 NA
HETATM   29  C   UNL     1     -44.328  57.409 -57.445  1.00  0.00     0.102 A 
HETATM   30  C   UNL     1     -43.221  56.566 -57.381  1.00  0.00     0.079 A 
HETATM   31  C   UNL     1     -45.005  57.580 -58.661  1.00  0.00     0.035 A 
HETATM   32  C   UNL     1     -42.737  55.874 -58.496  1.00  0.00     0.033 A 
HETATM   33  C   UNL     1     -43.432  56.046 -59.700  1.00  0.00     0.002 A 
HETATM   34  C   UNL     1     -44.547  56.883 -59.784  1.00  0.00     0.002 A 
ENDBRANCH  25  26
ENDBRANCH   2  25
TORSDOF 8
ENDMDL
MODEL 9
REMARK VINA RESULT:      -7.7      2.035      2.649
REMARK  8 active torsions:
REMARK  status: ('A' for Active; 'I' for Inactive)
REMARK    1  A    between atoms: C_2  and  N_3 
REMARK    2  A    between atoms: C_2  and  C_23 
REMARK       I    between atoms: N_3  and  C_4 
REMARK    3  A    between atoms: N_3  and  C_16 
REMARK    4  A    between atoms: C_4  and  C_5 
REMARK    5  A    between atoms: C_5  and  N_6 
REMARK    6  A    between atoms: C_16  and  C_17 
REMARK       I    between atoms: C_23  and  N_24 
REMARK    7  A    between atoms: N_24  and  C_25 
REMARK    8  A    between atoms: C_28  and  O_29 
ROOT
HETATM    1  N   UNL     1     -42.679  59.994 -53.199  1.00  0.00    -0.333 N 
HETATM    2  C   UNL     1     -41.536  59.269 -52.857  1.00  0.00     0.240 C 
HETATM    3  O   UNL     1     -40.470  59.443 -53.457  1.00  0.00    -0.271 OA
ENDROOT
BRANCH   1   4
HETATM    4  C   UNL     1     -42.646  60.699 -54.512  1.00  0.00     0.176 C 
HETATM    5  C   UNL     1     -43.276  62.092 -54.433  1.00  0.00     0.042 C 
BRANCH   4   6
HETATM    6  C   UNL     1     -43.202  59.874 -55.703  1.00  0.00     0.244 C 
HETATM    7  N   UNL     1     -42.261  59.004 -56.237  1.00  0.00    -0.325 N 
HETATM    8  H   UNL     1     -41.334  59.060 -55.836  1.00  0.00     0.169 HD
HETATM    9  O   UNL     1     -44.300  60.124 -56.196  1.00  0.00    -0.271 OA
BRANCH   7  10
HETATM   10  C   UNL     1     -42.452  58.079 -57.280  1.00  0.00     0.035 A 
HETATM   11  C   UNL     1     -42.990  56.833 -56.950  1.00  0.00     0.032 A 
HETATM   12  C   UNL     1     -43.238  55.881 -57.944  1.00  0.00     0.039 A 
HETATM   13  C   UNL     1     -42.969  56.165 -59.284  1.00  0.00     0.068 A 
HETATM   14  C   UNL     1     -42.423  57.402 -59.616  1.00  0.00     0.039 A 
HETATM   15  C   UNL     1     -42.166  58.353 -58.618  1.00  0.00     0.032 A 
BRANCH  13  16
HETATM   16  O   UNL     1     -43.275  55.161 -60.162  1.00  0.00    -0.356 OA
HETATM   17  C   UNL     1     -44.654  54.843 -60.305  1.00  0.00     0.210 C 
ENDBRANCH  13  16
ENDBRANCH   7  10
ENDBRANCH   4   6
ENDBRANCH   1   4
BRANCH   1  18
HETATM   18  C   UNL     1     -44.003  59.759 -52.603  1.00  0.00     0.165 C 
BRANCH  18  19
HETATM   19  C   UNL     1     -44.204  60.505 -51.305  1.00  0.00    -0.040 A 
HETATM   20  C   UNL     1     -43.447  61.651 -51.018  1.00  0.00     0.009 A 
HETATM   21  C   UNL     1     -43.600  62.318 -49.802  1.00  0.00     0.001 A 
HETATM   22  C   UNL     1     -44.518  61.853 -48.864  1.00  0.00     0.000 A 
HETATM   23  C   UNL     1     -45.290  60.727 -49.143  1.00  0.00     0.001 A 
HETATM   24  C   UNL     1     -45.136  60.057 -50.358  1.00  0.00     0.009 A 
ENDBRANCH  18  19
ENDBRANCH   1  18
BRANCH   2  25
HETATM   25  C   UNL     1     -41.582  58.221 -51.772  1.00  0.00     0.250 C 
BRANCH  25  26
HETATM   26  N   UNL     1     -42.091  56.938 -52.197  1.00  0.00    -0.263 N 
HETATM   27  N   UNL     1     -43.204  56.467 -51.597  1.00  0.00     0.006 NA
HETATM   28  N   UNL     1     -43.496  55.298 -52.149  1.00  0.00    -0.158 NA
HETATM   29  C   UNL     1     -42.557  55.037 -53.107  1.00  0.00     0.102 A 
HETATM   30  C   UNL     1     -41.637  56.081 -53.165  1.00  0.00     0.079 A 
HETATM   31  C   UNL     1     -42.417  53.936 -53.963  1.00  0.00     0.035 A 
HETATM   32  C   UNL     1     -40.561  56.087 -54.059  1.00  0.00     0.033 A 
HETATM   33  C   UNL     1     -40.429  54.974 -54.898  1.00  0.00     0.002 A 
HETATM   34  C   UNL     1     -41.339  53.914 -54.853  1.00  0.00     0.002 A 
ENDBRANCH  25  26
ENDBRANCH   2  25
TORSDOF 8
ENDMDL
MODEL 10
REMARK VINA RESULT:      -7.5      2.487      7.016
REMARK  8 active torsions:
REMARK  status: ('A' for Active; 'I' for Inactive)
REMARK    1  A    between atoms: C_2  and  N_3 
REMARK    2  A    between atoms: C_2  and  C_23 
REMARK       I    between atoms: N_3  and  C_4 
REMARK    3  A    between atoms: N_3  and  C_16 
REMARK    4  A    between atoms: C_4  and  C_5 
REMARK    5  A    between atoms: C_5  and  N_6 
REMARK    6  A    between atoms: C_16  and  C_17 
REMARK       I    between atoms: C_23  and  N_24 
REMARK    7  A    between atoms: N_24  and  C_25 
REMARK    8  A    between atoms: C_28  and  O_29 
ROOT
HETATM    1  N   UNL     1     -43.289  57.410 -54.683  1.00  0.00    -0.333 N 
HETATM    2  C   UNL     1     -42.695  56.580 -53.730  1.00  0.00     0.240 C 
HETATM    3  O   UNL     1     -43.372  56.035 -52.853  1.00  0.00    -0.271 OA
ENDROOT
BRANCH   1   4
HETATM    4  C   UNL     1     -44.672  57.877 -54.382  1.00  0.00     0.176 C 
HETATM    5  C   UNL     1     -45.534  57.976 -55.644  1.00  0.00     0.042 C 
BRANCH   4   6
HETATM    6  C   UNL     1     -44.745  59.167 -53.523  1.00  0.00     0.244 C 
HETATM    7  N   UNL     1     -44.644  58.911 -52.163  1.00  0.00    -0.325 N 
HETATM    8  H   UNL     1     -44.602  57.934 -51.902  1.00  0.00     0.169 HD
HETATM    9  O   UNL     1     -45.039  60.252 -54.022  1.00  0.00    -0.271 OA
BRANCH   7  10
HETATM   10  C   UNL     1     -44.619  59.853 -51.117  1.00  0.00     0.035 A 
HETATM   11  C   UNL     1     -43.560  60.766 -51.095  1.00  0.00     0.032 A 
HETATM   12  C   UNL     1     -43.494  61.751 -50.104  1.00  0.00     0.039 A 
HETATM   13  C   UNL     1     -44.491  61.851 -49.133  1.00  0.00     0.068 A 
HETATM   14  C   UNL     1     -45.542  60.937 -49.145  1.00  0.00     0.039 A 
HETATM   15  C   UNL     1     -45.603  59.943 -50.134  1.00  0.00     0.032 A 
BRANCH  13  16
HETATM   16  O   UNL     1     -44.324  62.868 -48.233  1.00  0.00    -0.356 OA
HETATM   17  C   UNL     1     -43.914  64.122 -48.764  1.00  0.00     0.210 C 
ENDBRANCH  13  16
ENDBRANCH   7  10
ENDBRANCH   4   6
ENDBRANCH   1   4
BRANCH   1  18
HETATM   18  C   UNL     1     -42.531  58.175 -55.686  1.00  0.00     0.165 C 
BRANCH  18  19
HETATM   19  C   UNL     1     -42.540  57.526 -57.050  1.00  0.00    -0.040 A 
HETATM   20  C   UNL     1     -42.102  58.235 -58.179  1.00  0.00     0.009 A 
HETATM   21  C   UNL     1     -42.149  57.653 -59.445  1.00  0.00     0.001 A 
HETATM   22  C   UNL     1     -42.622  56.352 -59.598  1.00  0.00     0.000 A 
HETATM   23  C   UNL     1     -43.043  55.629 -58.483  1.00  0.00     0.001 A 
HETATM   24  C   UNL     1     -42.999  56.211 -57.214  1.00  0.00     0.009 A 
ENDBRANCH  18  19
ENDBRANCH   1  18
BRANCH   2  25
HETATM   25  C   UNL     1     -41.202  56.360 -53.722  1.00  0.00     0.250 C 
BRANCH  25  26
HETATM   26  N   UNL     1     -40.797  54.982 -53.873  1.00  0.00    -0.263 N 
HETATM   27  N   UNL     1     -40.647  54.499 -55.125  1.00  0.00     0.006 NA
HETATM   28  N   UNL     1     -40.261  53.235 -55.026  1.00  0.00    -0.158 NA
HETATM   29  C   UNL     1     -40.162  52.926 -53.698  1.00  0.00     0.102 A 
HETATM   30  C   UNL     1     -40.500  54.036 -52.928  1.00  0.00     0.079 A 
HETATM   31  C   UNL     1     -39.800  51.726 -53.072  1.00  0.00     0.035 A 
HETATM   32  C   UNL     1     -40.487  54.013 -51.529  1.00  0.00     0.033 A 
HETATM   33  C   UNL     1     -40.135  52.803 -50.919  1.00  0.00     0.002 A 
HETATM   34  C   UNL     1     -39.797  51.677 -51.674  1.00  0.00     0.002 A 
ENDBRANCH  25  26
ENDBRANCH   2  25
TORSDOF 8
ENDMDL
