MODEL 1
REMARK VINA RESULT:      -9.3      0.000      0.000
REMARK  6 active torsions:
REMARK  status: ('A' for Active; 'I' for Inactive)
REMARK    1  A    between atoms: C_2  and  C_3 
REMARK    2  A    between atoms: C_3  and  C_4 
REMARK    3  A    between atoms: C_3  and  C_11 
REMARK    4  A    between atoms: C_11  and  C_12 
REMARK       I    between atoms: C_12  and  N_13 
REMARK    5  A    between atoms: N_13  and  C_14 
REMARK    6  A    between atoms: C_21  and  C_22 
REMARK       I    between atoms: C_22  and  N_23 
ROOT
HETATM    1  C   UNL     1     -42.565  56.297 -56.945  1.00  0.00     0.035 A 
HETATM    2  C   UNL     1     -43.198  55.677 -58.031  1.00  0.00     0.046 A 
HETATM    3  C   UNL     1     -44.138  56.397 -58.799  1.00  0.00     0.030 A 
HETATM    4  C   UNL     1     -44.419  57.713 -58.453  1.00  0.00     0.063 A 
HETATM    5  N   UNL     1     -45.352  58.134 -59.359  1.00  0.00    -0.277 N 
HETATM    6  H   UNL     1     -45.790  59.046 -59.409  1.00  0.00     0.189 HD
HETATM    7  N   UNL     1     -45.697  57.213 -60.273  1.00  0.00    -0.168 NA
HETATM    8  C   UNL     1     -44.952  56.132 -59.942  1.00  0.00     0.156 A 
HETATM    9  C   UNL     1     -43.809  58.364 -57.379  1.00  0.00     0.034 A 
HETATM   10  C   UNL     1     -42.875  57.630 -56.637  1.00  0.00     0.032 A 
ENDROOT
BRANCH   1  11
HETATM   11  N   UNL     1     -41.599  55.663 -56.135  1.00  0.00    -0.327 N 
HETATM   12  C   UNL     1     -41.757  54.501 -55.395  1.00  0.00     0.222 C 
HETATM   13  O   UNL     1     -42.804  53.887 -55.231  1.00  0.00    -0.273 OA
HETATM   14  H   UNL     1     -40.701  56.125 -56.066  1.00  0.00     0.169 HD
BRANCH  12  15
HETATM   15  C   UNL     1     -40.455  54.069 -54.733  1.00  0.00     0.112 C 
BRANCH  15  16
HETATM   16  C   UNL     1     -40.632  52.842 -53.817  1.00  0.00     0.027 C 
BRANCH  16  17
HETATM   17  C   UNL     1     -39.677  51.667 -54.144  1.00  0.00     0.005 C 
HETATM   18  C   UNL     1     -40.338  50.321 -54.413  1.00  0.00     0.006 C 
ENDBRANCH  16  17
BRANCH  16  19
HETATM   19  C   UNL     1     -40.581  53.196 -52.334  1.00  0.00    -0.053 A 
HETATM   20  C   UNL     1     -40.259  52.261 -51.341  1.00  0.00     0.008 A 
HETATM   21  C   UNL     1     -40.249  52.627 -49.991  1.00  0.00     0.007 A 
HETATM   22  C   UNL     1     -40.552  53.936 -49.605  1.00  0.00    -0.062 A 
HETATM   23  C   UNL     1     -40.573  54.330 -48.158  1.00  0.00     0.048 C 
HETATM   24  C   UNL     1     -40.885  54.870 -50.590  1.00  0.00     0.007 A 
HETATM   25  C   UNL     1     -40.900  54.504 -51.937  1.00  0.00     0.008 A 
ENDBRANCH  16  19
ENDBRANCH  15  16
ENDBRANCH  12  15
ENDBRANCH   1  11
BRANCH   8  26
HETATM   26  C   UNL     1     -45.029  54.887 -60.718  1.00  0.00     0.270 C 
HETATM   27  N   UNL     1     -45.237  53.767 -59.959  1.00  0.00    -0.365 N 
HETATM   28  H   UNL     1     -45.326  53.871 -58.955  1.00  0.00     0.159 HD
HETATM   29  H   UNL     1     -45.312  52.868 -60.408  1.00  0.00     0.159 HD
HETATM   30  O   UNL     1     -44.928  54.813 -61.938  1.00  0.00    -0.266 OA
ENDBRANCH   8  26
TORSDOF 6
ENDMDL
MODEL 2
REMARK VINA RESULT:      -8.9      2.755      4.707
REMARK  6 active torsions:
REMARK  status: ('A' for Active; 'I' for Inactive)
REMARK    1  A    between atoms: C_2  and  C_3 
REMARK    2  A    between atoms: C_3  and  C_4 
REMARK    3  A    between atoms: C_3  and  C_11 
REMARK    4  A    between atoms: C_11  and  C_12 
REMARK       I    between atoms: C_12  and  N_13 
REMARK    5  A    between atoms: N_13  and  C_14 
REMARK    6  A    between atoms: C_21  and  C_22 
REMARK       I    between atoms: C_22  and  N_23 
ROOT
HETATM    1  C   UNL     1     -41.776  57.550 -53.050  1.00  0.00     0.035 A 
HETATM    2  C   UNL     1     -42.062  57.423 -54.417  1.00  0.00     0.046 A 
HETATM    3  C   UNL     1     -42.179  58.578 -55.219  1.00  0.00     0.030 A 
HETATM    4  C   UNL     1     -42.009  59.824 -54.628  1.00  0.00     0.063 A 
HETATM    5  N   UNL     1     -42.182  60.730 -55.637  1.00  0.00    -0.277 N 
HETATM    6  H   UNL     1     -42.133  61.739 -55.571  1.00  0.00     0.189 HD
HETATM    7  N   UNL     1     -42.441  60.185 -56.837  1.00  0.00    -0.168 NA
HETATM    8  C   UNL     1     -42.438  58.853 -56.596  1.00  0.00     0.156 A 
HETATM    9  C   UNL     1     -41.722  59.991 -53.272  1.00  0.00     0.034 A 
HETATM   10  C   UNL     1     -41.604  58.828 -52.499  1.00  0.00     0.032 A 
ENDROOT
BRANCH   1  11
HETATM   11  N   UNL     1     -41.621  56.452 -52.177  1.00  0.00    -0.327 N 
HETATM   12  C   UNL     1     -42.595  55.872 -51.378  1.00  0.00     0.222 C 
HETATM   13  O   UNL     1     -43.734  56.289 -51.213  1.00  0.00    -0.273 OA
HETATM   14  H   UNL     1     -40.688  56.066 -52.106  1.00  0.00     0.169 HD
BRANCH  12  15
HETATM   15  C   UNL     1     -42.074  54.639 -50.654  1.00  0.00     0.112 C 
BRANCH  15  16
HETATM   16  C   UNL     1     -40.576  54.384 -50.917  1.00  0.00     0.027 C 
BRANCH  16  17
HETATM   17  C   UNL     1     -39.714  54.308 -49.632  1.00  0.00     0.005 C 
HETATM   18  C   UNL     1     -40.476  54.155 -48.322  1.00  0.00     0.006 C 
ENDBRANCH  16  17
BRANCH  16  19
HETATM   19  C   UNL     1     -40.328  53.178 -51.818  1.00  0.00    -0.053 A 
HETATM   20  C   UNL     1     -39.775  51.980 -51.347  1.00  0.00     0.008 A 
HETATM   21  C   UNL     1     -39.544  50.908 -52.217  1.00  0.00     0.007 A 
HETATM   22  C   UNL     1     -39.867  51.009 -53.573  1.00  0.00    -0.062 A 
HETATM   23  C   UNL     1     -39.595  49.878 -54.518  1.00  0.00     0.048 C 
HETATM   24  C   UNL     1     -40.409  52.205 -54.050  1.00  0.00     0.007 A 
HETATM   25  C   UNL     1     -40.636  53.276 -53.184  1.00  0.00     0.008 A 
ENDBRANCH  16  19
ENDBRANCH  15  16
ENDBRANCH  12  15
ENDBRANCH   1  11
BRANCH   8  26
HETATM   26  C   UNL     1     -42.677  57.883 -57.673  1.00  0.00     0.270 C 
HETATM   27  N   UNL     1     -41.673  57.820 -58.601  1.00  0.00    -0.365 N 
HETATM   28  H   UNL     1     -40.864  58.419 -58.483  1.00  0.00     0.159 HD
HETATM   29  H   UNL     1     -41.747  57.176 -59.372  1.00  0.00     0.159 HD
HETATM   30  O   UNL     1     -43.670  57.169 -57.767  1.00  0.00    -0.266 OA
ENDBRANCH   8  26
TORSDOF 6
ENDMDL
MODEL 3
REMARK VINA RESULT:      -8.7      2.012      3.797
REMARK  6 active torsions:
REMARK  status: ('A' for Active; 'I' for Inactive)
REMARK    1  A    between atoms: C_2  and  C_3 
REMARK    2  A    between atoms: C_3  and  C_4 
REMARK    3  A    between atoms: C_3  and  C_11 
REMARK    4  A    between atoms: C_11  and  C_12 
REMARK       I    between atoms: C_12  and  N_13 
REMARK    5  A    between atoms: N_13  and  C_14 
REMARK    6  A    between atoms: C_21  and  C_22 
REMARK       I    between atoms: C_22  and  N_23 
ROOT
HETATM    1  C   UNL     1     -42.149  57.174 -54.629  1.00  0.00     0.035 A 
HETATM    2  C   UNL     1     -42.439  56.741 -55.931  1.00  0.00     0.046 A 
HETATM    3  C   UNL     1     -42.528  57.684 -56.978  1.00  0.00     0.030 A 
HETATM    4  C   UNL     1     -42.330  59.028 -56.689  1.00  0.00     0.063 A 
HETATM    5  N   UNL     1     -42.483  59.681 -57.880  1.00  0.00    -0.277 N 
HETATM    6  H   UNL     1     -42.410  60.677 -58.047  1.00  0.00     0.189 HD
HETATM    7  N   UNL     1     -42.754  58.880 -58.923  1.00  0.00    -0.168 NA
HETATM    8  C   UNL     1     -42.782  57.640 -58.382  1.00  0.00     0.156 A 
HETATM    9  C   UNL     1     -42.040  59.496 -55.405  1.00  0.00     0.034 A 
HETATM   10  C   UNL     1     -41.949  58.540 -54.385  1.00  0.00     0.032 A 
ENDROOT
BRANCH   1  11
HETATM   11  N   UNL     1     -42.020  56.303 -53.525  1.00  0.00    -0.327 N 
HETATM   12  C   UNL     1     -42.966  56.047 -52.544  1.00  0.00     0.222 C 
HETATM   13  O   UNL     1     -44.038  56.622 -52.408  1.00  0.00    -0.273 OA
HETATM   14  H   UNL     1     -41.126  55.838 -53.426  1.00  0.00     0.169 HD
BRANCH  12  15
HETATM   15  C   UNL     1     -42.500  54.967 -51.577  1.00  0.00     0.112 C 
BRANCH  15  16
HETATM   16  C   UNL     1     -40.974  54.752 -51.616  1.00  0.00     0.027 C 
BRANCH  16  17
HETATM   17  C   UNL     1     -40.288  54.847 -50.230  1.00  0.00     0.005 C 
HETATM   18  C   UNL     1     -41.215  54.844 -49.021  1.00  0.00     0.006 C 
ENDBRANCH  16  17
BRANCH  16  19
HETATM   19  C   UNL     1     -40.573  53.471 -52.341  1.00  0.00    -0.053 A 
HETATM   20  C   UNL     1     -40.923  53.211 -53.672  1.00  0.00     0.008 A 
HETATM   21  C   UNL     1     -40.553  52.010 -54.288  1.00  0.00     0.007 A 
HETATM   22  C   UNL     1     -39.819  51.048 -53.588  1.00  0.00    -0.062 A 
HETATM   23  C   UNL     1     -39.445  49.745 -54.230  1.00  0.00     0.048 C 
HETATM   24  C   UNL     1     -39.477  51.297 -52.257  1.00  0.00     0.007 A 
HETATM   25  C   UNL     1     -39.849  52.493 -51.641  1.00  0.00     0.008 A 
ENDBRANCH  16  19
ENDBRANCH  15  16
ENDBRANCH  12  15
ENDBRANCH   1  11
BRANCH   8  26
HETATM   26  C   UNL     1     -43.042  56.453 -59.209  1.00  0.00     0.270 C 
HETATM   27  N   UNL     1     -44.203  55.799 -58.897  1.00  0.00    -0.365 N 
HETATM   28  H   UNL     1     -44.782  56.166 -58.151  1.00  0.00     0.159 HD
HETATM   29  H   UNL     1     -44.467  54.978 -59.418  1.00  0.00     0.159 HD
HETATM   30  O   UNL     1     -42.315  56.054 -60.112  1.00  0.00    -0.266 OA
ENDBRANCH   8  26
TORSDOF 6
ENDMDL
MODEL 4
REMARK VINA RESULT:      -8.7      1.548      3.143
REMARK  6 active torsions:
REMARK  status: ('A' for Active; 'I' for Inactive)
REMARK    1  A    between atoms: C_2  and  C_3 
REMARK    2  A    between atoms: C_3  and  C_4 
REMARK    3  A    between atoms: C_3  and  C_11 
REMARK    4  A    between atoms: C_11  and  C_12 
REMARK       I    between atoms: C_12  and  N_13 
REMARK    5  A    between atoms: N_13  and  C_14 
REMARK    6  A    between atoms: C_21  and  C_22 
REMARK       I    between atoms: C_22  and  N_23 
ROOT
HETATM    1  C   UNL     1     -42.765  56.160 -56.335  1.00  0.00     0.035 A 
HETATM    2  C   UNL     1     -43.374  55.575 -57.454  1.00  0.00     0.046 A 
HETATM    3  C   UNL     1     -43.433  56.287 -58.671  1.00  0.00     0.030 A 
HETATM    4  C   UNL     1     -42.886  57.562 -58.729  1.00  0.00     0.063 A 
HETATM    5  N   UNL     1     -43.097  57.989 -60.010  1.00  0.00    -0.277 N 
HETATM    6  H   UNL     1     -42.831  58.880 -60.412  1.00  0.00     0.189 HD
HETATM    7  N   UNL     1     -43.726  57.101 -60.797  1.00  0.00    -0.168 NA
HETATM    8  C   UNL     1     -43.937  56.040 -59.984  1.00  0.00     0.156 A 
HETATM    9  C   UNL     1     -42.271  58.178 -57.636  1.00  0.00     0.034 A 
HETATM   10  C   UNL     1     -42.218  57.447 -56.442  1.00  0.00     0.032 A 
ENDROOT
BRANCH   1  11
HETATM   11  N   UNL     1     -42.641  55.516 -55.085  1.00  0.00    -0.327 N 
HETATM   12  C   UNL     1     -43.401  55.742 -53.947  1.00  0.00     0.222 C 
HETATM   13  O   UNL     1     -44.239  56.622 -53.802  1.00  0.00    -0.273 OA
HETATM   14  H   UNL     1     -41.895  54.836 -55.005  1.00  0.00     0.169 HD
BRANCH  12  15
HETATM   15  C   UNL     1     -43.040  54.777 -52.825  1.00  0.00     0.112 C 
BRANCH  15  16
HETATM   16  C   UNL     1     -41.525  54.731 -52.545  1.00  0.00     0.027 C 
BRANCH  16  17
HETATM   17  C   UNL     1     -41.128  55.241 -51.137  1.00  0.00     0.005 C 
HETATM   18  C   UNL     1     -41.759  56.557 -50.699  1.00  0.00     0.006 C 
ENDBRANCH  16  17
BRANCH  16  19
HETATM   19  C   UNL     1     -40.910  53.363 -52.827  1.00  0.00    -0.053 A 
HETATM   20  C   UNL     1     -40.103  52.688 -51.902  1.00  0.00     0.008 A 
HETATM   21  C   UNL     1     -39.542  51.445 -52.215  1.00  0.00     0.007 A 
HETATM   22  C   UNL     1     -39.782  50.848 -53.456  1.00  0.00    -0.062 A 
HETATM   23  C   UNL     1     -39.159  49.531 -53.812  1.00  0.00     0.048 C 
HETATM   24  C   UNL     1     -40.577  51.521 -54.387  1.00  0.00     0.007 A 
HETATM   25  C   UNL     1     -41.134  52.763 -54.076  1.00  0.00     0.008 A 
ENDBRANCH  16  19
ENDBRANCH  15  16
ENDBRANCH  12  15
ENDBRANCH   1  11
BRANCH   8  26
HETATM   26  C   UNL     1     -44.605  54.826 -60.474  1.00  0.00     0.270 C 
HETATM   27  N   UNL     1     -44.809  53.874 -59.512  1.00  0.00    -0.365 N 
HETATM   28  H   UNL     1     -44.503  54.066 -58.565  1.00  0.00     0.159 HD
HETATM   29  H   UNL     1     -45.268  53.011 -59.755  1.00  0.00     0.159 HD
HETATM   30  O   UNL     1     -44.969  54.644 -61.630  1.00  0.00    -0.266 OA
ENDBRANCH   8  26
TORSDOF 6
ENDMDL
MODEL 5
REMARK VINA RESULT:      -8.6      2.776      4.694
REMARK  6 active torsions:
REMARK  status: ('A' for Active; 'I' for Inactive)
REMARK    1  A    between atoms: C_2  and  C_3 
REMARK    2  A    between atoms: C_3  and  C_4 
REMARK    3  A    between atoms: C_3  and  C_11 
REMARK    4  A    between atoms: C_11  and  C_12 
REMARK       I    between atoms: C_12  and  N_13 
REMARK    5  A    between atoms: N_13  and  C_14 
REMARK    6  A    between atoms: C_21  and  C_22 
REMARK       I    between atoms: C_22  and  N_23 
ROOT
HETATM    1  C   UNL     1     -43.397  56.628 -52.400  1.00  0.00     0.035 A 
HETATM    2  C   UNL     1     -43.242  56.583 -53.792  1.00  0.00     0.046 A 
HETATM    3  C   UNL     1     -43.978  57.469 -54.608  1.00  0.00     0.030 A 
HETATM    4  C   UNL     1     -44.848  58.368 -54.006  1.00  0.00     0.063 A 
HETATM    5  N   UNL     1     -45.408  59.074 -55.034  1.00  0.00    -0.277 N 
HETATM    6  H   UNL     1     -46.095  59.816 -54.967  1.00  0.00     0.189 HD
HETATM    7  N   UNL     1     -44.973  58.721 -56.254  1.00  0.00    -0.168 NA
HETATM    8  C   UNL     1     -44.084  57.731 -56.008  1.00  0.00     0.156 A 
HETATM    9  C   UNL     1     -45.029  58.444 -52.623  1.00  0.00     0.034 A 
HETATM   10  C   UNL     1     -44.281  57.559 -51.835  1.00  0.00     0.032 A 
ENDROOT
BRANCH   1  11
HETATM   11  N   UNL     1     -42.689  55.797 -51.505  1.00  0.00    -0.327 N 
HETATM   12  C   UNL     1     -43.206  54.778 -50.720  1.00  0.00     0.222 C 
HETATM   13  O   UNL     1     -44.391  54.501 -50.586  1.00  0.00    -0.273 OA
HETATM   14  H   UNL     1     -41.699  55.987 -51.408  1.00  0.00     0.169 HD
BRANCH  12  15
HETATM   15  C   UNL     1     -42.113  54.035 -49.964  1.00  0.00     0.112 C 
BRANCH  15  16
HETATM   16  C   UNL     1     -40.722  54.212 -50.605  1.00  0.00     0.027 C 
BRANCH  16  17
HETATM   17  C   UNL     1     -39.566  54.331 -49.580  1.00  0.00     0.005 C 
HETATM   18  C   UNL     1     -39.917  54.008 -48.133  1.00  0.00     0.006 C 
ENDBRANCH  16  17
BRANCH  16  19
HETATM   19  C   UNL     1     -40.414  53.154 -51.660  1.00  0.00    -0.053 A 
HETATM   20  C   UNL     1     -40.673  53.345 -53.024  1.00  0.00     0.008 A 
HETATM   21  C   UNL     1     -40.396  52.335 -53.952  1.00  0.00     0.007 A 
HETATM   22  C   UNL     1     -39.848  51.118 -53.538  1.00  0.00    -0.062 A 
HETATM   23  C   UNL     1     -39.577  50.019 -54.521  1.00  0.00     0.048 C 
HETATM   24  C   UNL     1     -39.598  50.918 -52.178  1.00  0.00     0.007 A 
HETATM   25  C   UNL     1     -39.877  51.923 -51.251  1.00  0.00     0.008 A 
ENDBRANCH  16  19
ENDBRANCH  15  16
ENDBRANCH  12  15
ENDBRANCH   1  11
BRANCH   8  26
HETATM   26  C   UNL     1     -43.360  57.067 -57.101  1.00  0.00     0.270 C 
HETATM   27  N   UNL     1     -43.735  55.768 -57.311  1.00  0.00    -0.365 N 
HETATM   28  H   UNL     1     -44.460  55.370 -56.726  1.00  0.00     0.159 HD
HETATM   29  H   UNL     1     -43.298  55.236 -58.047  1.00  0.00     0.159 HD
HETATM   30  O   UNL     1     -42.496  57.595 -57.792  1.00  0.00    -0.266 OA
ENDBRANCH   8  26
TORSDOF 6
ENDMDL
MODEL 6
REMARK VINA RESULT:      -8.4      1.856      2.712
REMARK  6 active torsions:
REMARK  status: ('A' for Active; 'I' for Inactive)
REMARK    1  A    between atoms: C_2  and  C_3 
REMARK    2  A    between atoms: C_3  and  C_4 
REMARK    3  A    between atoms: C_3  and  C_11 
REMARK    4  A    between atoms: C_11  and  C_12 
REMARK       I    between atoms: C_12  and  N_13 
REMARK    5  A    between atoms: N_13  and  C_14 
REMARK    6  A    between atoms: C_21  and  C_22 
REMARK       I    between atoms: C_22  and  N_23 
ROOT
HETATM    1  C   UNL     1     -43.002  56.241 -57.608  1.00  0.00     0.035 A 
HETATM    2  C   UNL     1     -43.986  57.227 -57.444  1.00  0.00     0.046 A 
HETATM    3  C   UNL     1     -44.838  57.551 -58.522  1.00  0.00     0.030 A 
HETATM    4  C   UNL     1     -44.676  56.882 -59.729  1.00  0.00     0.063 A 
HETATM    5  N   UNL     1     -45.624  57.407 -60.563  1.00  0.00    -0.277 N 
HETATM    6  H   UNL     1     -45.796  57.157 -61.530  1.00  0.00     0.189 HD
HETATM    7  N   UNL     1     -46.396  58.352 -60.004  1.00  0.00    -0.168 NA
HETATM    8  C   UNL     1     -45.925  58.450 -58.739  1.00  0.00     0.156 A 
HETATM    9  C   UNL     1     -43.709  55.895 -59.929  1.00  0.00     0.034 A 
HETATM   10  C   UNL     1     -42.881  55.587 -58.842  1.00  0.00     0.032 A 
ENDROOT
BRANCH   1  11
HETATM   11  N   UNL     1     -42.120  55.837 -56.582  1.00  0.00    -0.327 N 
HETATM   12  C   UNL     1     -42.254  54.740 -55.745  1.00  0.00     0.222 C 
HETATM   13  O   UNL     1     -43.224  53.995 -55.682  1.00  0.00    -0.273 OA
HETATM   14  H   UNL     1     -41.318  56.433 -56.423  1.00  0.00     0.169 HD
BRANCH  12  15
HETATM   15  C   UNL     1     -41.046  54.571 -54.834  1.00  0.00     0.112 C 
BRANCH  15  16
HETATM   16  C   UNL     1     -41.112  53.283 -53.990  1.00  0.00     0.027 C 
BRANCH  16  17
HETATM   17  C   UNL     1     -40.077  52.206 -54.400  1.00  0.00     0.005 C 
HETATM   18  C   UNL     1     -40.556  50.761 -54.348  1.00  0.00     0.006 C 
ENDBRANCH  16  17
BRANCH  16  19
HETATM   19  C   UNL     1     -41.061  53.552 -52.489  1.00  0.00    -0.053 A 
HETATM   20  C   UNL     1     -42.078  54.229 -51.804  1.00  0.00     0.008 A 
HETATM   21  C   UNL     1     -41.975  54.474 -50.431  1.00  0.00     0.007 A 
HETATM   22  C   UNL     1     -40.857  54.041 -49.712  1.00  0.00    -0.062 A 
HETATM   23  C   UNL     1     -40.724  54.326 -48.246  1.00  0.00     0.048 C 
HETATM   24  C   UNL     1     -39.835  53.375 -50.391  1.00  0.00     0.007 A 
HETATM   25  C   UNL     1     -39.935  53.134 -51.762  1.00  0.00     0.008 A 
ENDBRANCH  16  19
ENDBRANCH  15  16
ENDBRANCH  12  15
ENDBRANCH   1  11
BRANCH   8  26
HETATM   26  C   UNL     1     -46.519  59.387 -57.775  1.00  0.00     0.270 C 
HETATM   27  N   UNL     1     -47.803  59.078 -57.414  1.00  0.00    -0.365 N 
HETATM   28  H   UNL     1     -48.236  58.255 -57.816  1.00  0.00     0.159 HD
HETATM   29  H   UNL     1     -48.287  59.661 -56.751  1.00  0.00     0.159 HD
HETATM   30  O   UNL     1     -45.949  60.366 -57.306  1.00  0.00    -0.266 OA
ENDBRANCH   8  26
TORSDOF 6
ENDMDL
MODEL 7
REMARK VINA RESULT:      -8.2      2.546      4.354
REMARK  6 active torsions:
REMARK  status: ('A' for Active; 'I' for Inactive)
REMARK    1  A    between atoms: C_2  and  C_3 
REMARK    2  A    between atoms: C_3  and  C_4 
REMARK    3  A    between atoms: C_3  and  C_11 
REMARK    4  A    between atoms: C_11  and  C_12 
REMARK       I    between atoms: C_12  and  N_13 
REMARK    5  A    between atoms: N_13  and  C_14 
REMARK    6  A    between atoms: C_21  and  C_22 
REMARK       I    between atoms: C_22  and  N_23 
ROOT
HETATM    1  C   UNL     1     -42.653  56.299 -56.761  1.00  0.00     0.035 A 
HETATM    2  C   UNL     1     -42.350  57.646 -57.008  1.00  0.00     0.046 A 
HETATM    3  C   UNL     1     -42.453  58.157 -58.319  1.00  0.00     0.030 A 
HETATM    4  C   UNL     1     -42.851  57.305 -59.342  1.00  0.00     0.063 A 
HETATM    5  N   UNL     1     -42.852  58.073 -60.473  1.00  0.00    -0.277 N 
HETATM    6  H   UNL     1     -43.089  57.780 -61.414  1.00  0.00     0.189 HD
HETATM    7  N   UNL     1     -42.498  59.354 -60.278  1.00  0.00    -0.168 NA
HETATM    8  C   UNL     1     -42.252  59.423 -58.949  1.00  0.00     0.156 A 
HETATM    9  C   UNL     1     -43.162  55.960 -59.134  1.00  0.00     0.034 A 
HETATM   10  C   UNL     1     -43.059  55.479 -57.823  1.00  0.00     0.032 A 
ENDROOT
BRANCH   1  11
HETATM   11  N   UNL     1     -42.598  55.707 -55.481  1.00  0.00    -0.327 N 
HETATM   12  C   UNL     1     -43.529  55.829 -54.460  1.00  0.00     0.222 C 
HETATM   13  O   UNL     1     -44.506  56.566 -54.459  1.00  0.00    -0.273 OA
HETATM   14  H   UNL     1     -41.773  55.156 -55.279  1.00  0.00     0.169 HD
BRANCH  12  15
HETATM   15  C   UNL     1     -43.176  54.955 -53.264  1.00  0.00     0.112 C 
BRANCH  15  16
HETATM   16  C   UNL     1     -41.665  54.953 -52.955  1.00  0.00     0.027 C 
BRANCH  16  17
HETATM   17  C   UNL     1     -41.298  55.598 -51.596  1.00  0.00     0.005 C 
HETATM   18  C   UNL     1     -42.460  55.881 -50.653  1.00  0.00     0.006 C 
ENDBRANCH  16  17
BRANCH  16  19
HETATM   19  C   UNL     1     -41.032  53.572 -53.097  1.00  0.00    -0.053 A 
HETATM   20  C   UNL     1     -41.162  52.793 -54.255  1.00  0.00     0.008 A 
HETATM   21  C   UNL     1     -40.583  51.521 -54.329  1.00  0.00     0.007 A 
HETATM   22  C   UNL     1     -39.857  51.005 -53.252  1.00  0.00    -0.062 A 
HETATM   23  C   UNL     1     -39.260  49.630 -53.312  1.00  0.00     0.048 C 
HETATM   24  C   UNL     1     -39.734  51.772 -52.092  1.00  0.00     0.007 A 
HETATM   25  C   UNL     1     -40.314  53.039 -52.015  1.00  0.00     0.008 A 
ENDBRANCH  16  19
ENDBRANCH  15  16
ENDBRANCH  12  15
ENDBRANCH   1  11
BRANCH   8  26
HETATM   26  C   UNL     1     -41.838  60.683 -58.315  1.00  0.00     0.270 C 
HETATM   27  N   UNL     1     -42.656  61.744 -58.596  1.00  0.00    -0.365 N 
HETATM   28  H   UNL     1     -43.460  61.593 -59.193  1.00  0.00     0.159 HD
HETATM   29  H   UNL     1     -42.454  62.647 -58.198  1.00  0.00     0.159 HD
HETATM   30  O   UNL     1     -40.860  60.814 -57.588  1.00  0.00    -0.266 OA
ENDBRANCH   8  26
TORSDOF 6
ENDMDL
MODEL 8
REMARK VINA RESULT:      -8.1      2.919      9.025
REMARK  6 active torsions:
REMARK  status: ('A' for Active; 'I' for Inactive)
REMARK    1  A    between atoms: C_2  and  C_3 
REMARK    2  A    between atoms: C_3  and  C_4 
REMARK    3  A    between atoms: C_3  and  C_11 
REMARK    4  A    between atoms: C_11  and  C_12 
REMARK       I    between atoms: C_12  and  N_13 
REMARK    5  A    between atoms: N_13  and  C_14 
REMARK    6  A    between atoms: C_21  and  C_22 
REMARK       I    between atoms: C_22  and  N_23 
ROOT
HETATM    1  C   UNL     1     -40.971  54.418 -54.492  1.00  0.00     0.035 A 
HETATM    2  C   UNL     1     -40.553  53.089 -54.331  1.00  0.00     0.046 A 
HETATM    3  C   UNL     1     -40.265  52.597 -53.040  1.00  0.00     0.030 A 
HETATM    4  C   UNL     1     -40.398  53.450 -51.952  1.00  0.00     0.063 A 
HETATM    5  N   UNL     1     -40.050  52.703 -50.862  1.00  0.00    -0.277 N 
HETATM    6  H   UNL     1     -40.027  53.003 -49.894  1.00  0.00     0.189 HD
HETATM    7  N   UNL     1     -39.711  51.434 -51.141  1.00  0.00    -0.168 NA
HETATM    8  C   UNL     1     -39.842  51.351 -52.485  1.00  0.00     0.156 A 
HETATM    9  C   UNL     1     -40.811  54.779 -52.073  1.00  0.00     0.034 A 
HETATM   10  C   UNL     1     -41.098  55.241 -53.364  1.00  0.00     0.032 A 
ENDROOT
BRANCH   1  11
HETATM   11  N   UNL     1     -41.300  54.990 -55.739  1.00  0.00    -0.327 N 
HETATM   12  C   UNL     1     -42.549  55.022 -56.343  1.00  0.00     0.222 C 
HETATM   13  O   UNL     1     -43.558  54.459 -55.942  1.00  0.00    -0.273 OA
HETATM   14  H   UNL     1     -40.533  55.394 -56.262  1.00  0.00     0.169 HD
BRANCH  12  15
HETATM   15  C   UNL     1     -42.530  55.822 -57.639  1.00  0.00     0.112 C 
BRANCH  15  16
HETATM   16  C   UNL     1     -43.535  56.991 -57.631  1.00  0.00     0.027 C 
BRANCH  16  17
HETATM   17  C   UNL     1     -42.876  58.389 -57.734  1.00  0.00     0.005 C 
HETATM   18  C   UNL     1     -42.125  58.682 -59.026  1.00  0.00     0.006 C 
ENDBRANCH  16  17
BRANCH  16  19
HETATM   19  C   UNL     1     -44.644  56.828 -58.665  1.00  0.00    -0.053 A 
HETATM   20  C   UNL     1     -44.595  55.870 -59.686  1.00  0.00     0.008 A 
HETATM   21  C   UNL     1     -45.627  55.774 -60.626  1.00  0.00     0.007 A 
HETATM   22  C   UNL     1     -46.732  56.628 -60.562  1.00  0.00    -0.062 A 
HETATM   23  C   UNL     1     -47.827  56.553 -61.584  1.00  0.00     0.048 C 
HETATM   24  C   UNL     1     -46.781  57.593 -59.553  1.00  0.00     0.007 A 
HETATM   25  C   UNL     1     -45.750  57.692 -58.616  1.00  0.00     0.008 A 
ENDBRANCH  16  19
ENDBRANCH  15  16
ENDBRANCH  12  15
ENDBRANCH   1  11
BRANCH   8  26
HETATM   26  C   UNL     1     -39.569  50.097 -53.202  1.00  0.00     0.270 C 
HETATM   27  N   UNL     1     -39.442  49.004 -52.388  1.00  0.00    -0.365 N 
HETATM   28  H   UNL     1     -39.547  49.129 -51.387  1.00  0.00     0.159 HD
HETATM   29  H   UNL     1     -39.263  48.100 -52.793  1.00  0.00     0.159 HD
HETATM   30  O   UNL     1     -39.462  49.994 -54.419  1.00  0.00    -0.266 OA
ENDBRANCH   8  26
TORSDOF 6
ENDMDL
MODEL 9
REMARK VINA RESULT:      -7.8      2.377      3.358
REMARK  6 active torsions:
REMARK  status: ('A' for Active; 'I' for Inactive)
REMARK    1  A    between atoms: C_2  and  C_3 
REMARK    2  A    between atoms: C_3  and  C_4 
REMARK    3  A    between atoms: C_3  and  C_11 
REMARK    4  A    between atoms: C_11  and  C_12 
REMARK       I    between atoms: C_12  and  N_13 
REMARK    5  A    between atoms: N_13  and  C_14 
REMARK    6  A    between atoms: C_21  and  C_22 
REMARK       I    between atoms: C_22  and  N_23 
ROOT
HETATM    1  C   UNL     1     -43.205  56.355 -57.924  1.00  0.00     0.035 A 
HETATM    2  C   UNL     1     -44.223  57.311 -57.796  1.00  0.00     0.046 A 
HETATM    3  C   UNL     1     -45.109  57.539 -58.871  1.00  0.00     0.030 A 
HETATM    4  C   UNL     1     -44.945  56.807 -60.041  1.00  0.00     0.063 A 
HETATM    5  N   UNL     1     -45.929  57.246 -60.883  1.00  0.00    -0.277 N 
HETATM    6  H   UNL     1     -46.111  56.933 -61.829  1.00  0.00     0.189 HD
HETATM    7  N   UNL     1     -46.727  58.192 -60.363  1.00  0.00    -0.168 NA
HETATM    8  C   UNL     1     -46.234  58.382 -59.117  1.00  0.00     0.156 A 
HETATM    9  C   UNL     1     -43.944  55.847 -60.205  1.00  0.00     0.034 A 
HETATM   10  C   UNL     1     -43.083  55.635 -59.120  1.00  0.00     0.032 A 
ENDROOT
BRANCH   1  11
HETATM   11  N   UNL     1     -42.288  56.046 -56.896  1.00  0.00    -0.327 N 
HETATM   12  C   UNL     1     -42.350  54.981 -56.010  1.00  0.00     0.222 C 
HETATM   13  O   UNL     1     -43.276  54.189 -55.898  1.00  0.00    -0.273 OA
HETATM   14  H   UNL     1     -41.517  56.691 -56.777  1.00  0.00     0.169 HD
BRANCH  12  15
HETATM   15  C   UNL     1     -41.121  54.920 -55.112  1.00  0.00     0.112 C 
BRANCH  15  16
HETATM   16  C   UNL     1     -41.472  54.601 -53.645  1.00  0.00     0.027 C 
BRANCH  16  17
HETATM   17  C   UNL     1     -40.785  53.326 -53.095  1.00  0.00     0.005 C 
HETATM   18  C   UNL     1     -40.114  52.428 -54.127  1.00  0.00     0.006 C 
ENDBRANCH  16  17
BRANCH  16  19
HETATM   19  C   UNL     1     -41.256  55.788 -52.712  1.00  0.00    -0.053 A 
HETATM   20  C   UNL     1     -41.305  55.675 -51.316  1.00  0.00     0.008 A 
HETATM   21  C   UNL     1     -41.124  56.798 -50.501  1.00  0.00     0.007 A 
HETATM   22  C   UNL     1     -40.883  58.055 -51.063  1.00  0.00    -0.062 A 
HETATM   23  C   UNL     1     -40.719  59.269 -50.198  1.00  0.00     0.048 C 
HETATM   24  C   UNL     1     -40.844  58.176 -52.454  1.00  0.00     0.007 A 
HETATM   25  C   UNL     1     -41.028  57.057 -53.268  1.00  0.00     0.008 A 
ENDBRANCH  16  19
ENDBRANCH  15  16
ENDBRANCH  12  15
ENDBRANCH   1  11
BRANCH   8  26
HETATM   26  C   UNL     1     -46.845  59.351 -58.195  1.00  0.00     0.270 C 
HETATM   27  N   UNL     1     -47.765  58.807 -57.341  1.00  0.00    -0.365 N 
HETATM   28  H   UNL     1     -47.951  57.812 -57.396  1.00  0.00     0.159 HD
HETATM   29  H   UNL     1     -48.229  59.395 -56.668  1.00  0.00     0.159 HD
HETATM   30  O   UNL     1     -46.578  60.547 -58.158  1.00  0.00    -0.266 OA
ENDBRANCH   8  26
TORSDOF 6
ENDMDL
MODEL 10
REMARK VINA RESULT:      -7.8      2.832      9.243
REMARK  6 active torsions:
REMARK  status: ('A' for Active; 'I' for Inactive)
REMARK    1  A    between atoms: C_2  and  C_3 
REMARK    2  A    between atoms: C_3  and  C_4 
REMARK    3  A    between atoms: C_3  and  C_11 
REMARK    4  A    between atoms: C_11  and  C_12 
REMARK       I    between atoms: C_12  and  N_13 
REMARK    5  A    between atoms: N_13  and  C_14 
REMARK    6  A    between atoms: C_21  and  C_22 
REMARK       I    between atoms: C_22  and  N_23 
ROOT
HETATM    1  C   UNL     1     -40.968  54.572 -54.527  1.00  0.00     0.035 A 
HETATM    2  C   UNL     1     -41.254  54.823 -53.178  1.00  0.00     0.046 A 
HETATM    3  C   UNL     1     -40.882  53.881 -52.196  1.00  0.00     0.030 A 
HETATM    4  C   UNL     1     -40.239  52.715 -52.595  1.00  0.00     0.063 A 
HETATM    5  N   UNL     1     -40.015  52.013 -51.444  1.00  0.00    -0.277 N 
HETATM    6  H   UNL     1     -39.566  51.109 -51.354  1.00  0.00     0.189 HD
HETATM    7  N   UNL     1     -40.446  52.622 -50.327  1.00  0.00    -0.168 NA
HETATM    8  C   UNL     1     -40.982  53.780 -50.775  1.00  0.00     0.156 A 
HETATM    9  C   UNL     1     -39.937  52.431 -53.929  1.00  0.00     0.034 A 
HETATM   10  C   UNL     1     -40.311  53.386 -54.883  1.00  0.00     0.032 A 
ENDROOT
BRANCH   1  11
HETATM   11  N   UNL     1     -41.284  55.465 -55.574  1.00  0.00    -0.327 N 
HETATM   12  C   UNL     1     -42.407  55.440 -56.388  1.00  0.00     0.222 C 
HETATM   13  O   UNL     1     -43.263  54.566 -56.407  1.00  0.00    -0.273 OA
HETATM   14  H   UNL     1     -40.599  56.185 -55.768  1.00  0.00     0.169 HD
BRANCH  12  15
HETATM   15  C   UNL     1     -42.447  56.632 -57.334  1.00  0.00     0.112 C 
BRANCH  15  16
HETATM   16  C   UNL     1     -43.702  57.506 -57.135  1.00  0.00     0.027 C 
BRANCH  16  17
HETATM   17  C   UNL     1     -43.397  59.010 -56.925  1.00  0.00     0.005 C 
HETATM   18  C   UNL     1     -42.067  59.507 -57.477  1.00  0.00     0.006 C 
ENDBRANCH  16  17
BRANCH  16  19
HETATM   19  C   UNL     1     -44.745  57.304 -58.230  1.00  0.00    -0.053 A 
HETATM   20  C   UNL     1     -45.991  57.945 -58.219  1.00  0.00     0.008 A 
HETATM   21  C   UNL     1     -46.925  57.710 -59.234  1.00  0.00     0.007 A 
HETATM   22  C   UNL     1     -46.631  56.836 -60.284  1.00  0.00    -0.062 A 
HETATM   23  C   UNL     1     -47.638  56.554 -61.359  1.00  0.00     0.048 C 
HETATM   24  C   UNL     1     -45.395  56.185 -60.295  1.00  0.00     0.007 A 
HETATM   25  C   UNL     1     -44.464  56.416 -59.281  1.00  0.00     0.008 A 
ENDBRANCH  16  19
ENDBRANCH  15  16
ENDBRANCH  12  15
ENDBRANCH   1  11
BRANCH   8  26
HETATM   26  C   UNL     1     -41.567  54.759 -49.847  1.00  0.00     0.270 C 
HETATM   27  N   UNL     1     -40.973  54.784 -48.614  1.00  0.00    -0.365 N 
HETATM   28  H   UNL     1     -40.199  54.155 -48.435  1.00  0.00     0.159 HD
HETATM   29  H   UNL     1     -41.304  55.430 -47.916  1.00  0.00     0.159 HD
HETATM   30  O   UNL     1     -42.499  55.508 -50.115  1.00  0.00    -0.266 OA
ENDBRANCH   8  26
TORSDOF 6
ENDMDL
