MODEL 1
REMARK VINA RESULT:      -7.7      0.000      0.000
REMARK  7 active torsions:
REMARK  status: ('A' for Active; 'I' for Inactive)
REMARK    1  A    between atoms: C_8  and  C_9 
REMARK    2  A    between atoms: C_9  and  C_10 
REMARK    3  A    between atoms: C_10  and  C_11 
REMARK       I    between atoms: C_11  and  N_12 
REMARK    4  A    between atoms: N_12  and  C_13 
REMARK    5  A    between atoms: C_13  and  C_14 
REMARK    6  A    between atoms: C_14  and  N_15 
REMARK    7  A    between atoms: C_14  and  C_19 
ROOT
HETATM    1  C   UNL     1     -41.064  55.424 -55.088  1.00  0.00     0.217 C 
HETATM    2  N   UNL     1     -41.819  55.394 -56.237  1.00  0.00    -0.359 N 
HETATM    3  O   UNL     1     -41.161  56.356 -54.290  1.00  0.00    -0.274 OA
HETATM    4  H   UNL     1     -41.492  54.784 -56.976  1.00  0.00     0.162 HD
ENDROOT
BRANCH   2   5
HETATM    5  C   UNL     1     -42.640  56.531 -56.657  1.00  0.00     0.160 C 
BRANCH   5   6
HETATM    6  C   UNL     1     -42.874  56.717 -58.199  1.00  0.00     0.239 C 
BRANCH   6   7
HETATM    7  N   UNL     1     -41.890  57.715 -58.837  1.00  0.00    -0.069 N 
HETATM    8  H   UNL     1     -40.978  57.253 -58.720  1.00  0.00     0.279 HD
HETATM    9  C   UNL     1     -42.006  57.929 -60.315  1.00  0.00     0.270 C 
HETATM   10  C   UNL     1     -41.735  59.006 -58.084  1.00  0.00     0.270 C 
ENDBRANCH   6   7
BRANCH   6  11
HETATM   11  C   UNL     1     -44.319  56.931 -58.673  1.00  0.00    -0.004 A 
HETATM   12  C   UNL     1     -44.929  56.042 -59.588  1.00  0.00     0.042 A 
HETATM   13 CL   UNL     1     -44.094  54.658 -60.211  1.00  0.00    -0.084 Cl
HETATM   14  C   UNL     1     -46.239  56.237 -60.038  1.00  0.00     0.024 A 
HETATM   15  C   UNL     1     -46.986  57.311 -59.570  1.00  0.00     0.002 A 
HETATM   16  C   UNL     1     -46.428  58.180 -58.643  1.00  0.00     0.001 A 
HETATM   17  C   UNL     1     -45.116  57.991 -58.196  1.00  0.00     0.011 A 
ENDBRANCH   6  11
ENDBRANCH   5   6
ENDBRANCH   2   5
BRANCH   1  18
HETATM   18  C   UNL     1     -40.192  54.218 -54.776  1.00  0.00     0.107 C 
BRANCH  18  19
HETATM   19  C   UNL     1     -40.912  52.911 -54.467  1.00  0.00     0.052 C 
BRANCH  19  20
HETATM   20  C   UNL     1     -40.352  52.220 -53.270  1.00  0.00    -0.008 A 
HETATM   21  C   UNL     1     -40.290  52.682 -51.968  1.00  0.00     0.032 A 
HETATM   22  C   UNL     1     -40.731  53.949 -51.339  1.00  0.00     0.070 C 
HETATM   23  N   UNL     1     -39.691  51.687 -51.245  1.00  0.00    -0.282 N 
HETATM   24  H   UNL     1     -39.477  51.670 -50.253  1.00  0.00     0.189 HD
HETATM   25  N   UNL     1     -39.361  50.616 -51.980  1.00  0.00    -0.179 NA
HETATM   26  C   UNL     1     -39.754  50.929 -53.217  1.00  0.00     0.059 A 
HETATM   27  C   UNL     1     -39.542  49.967 -54.326  1.00  0.00     0.073 C 
ENDBRANCH  19  20
ENDBRANCH  18  19
ENDBRANCH   1  18
TORSDOF 7
ENDMDL
MODEL 2
REMARK VINA RESULT:      -7.7      0.086      1.658
REMARK  7 active torsions:
REMARK  status: ('A' for Active; 'I' for Inactive)
REMARK    1  A    between atoms: C_8  and  C_9 
REMARK    2  A    between atoms: C_9  and  C_10 
REMARK    3  A    between atoms: C_10  and  C_11 
REMARK       I    between atoms: C_11  and  N_12 
REMARK    4  A    between atoms: N_12  and  C_13 
REMARK    5  A    between atoms: C_13  and  C_14 
REMARK    6  A    between atoms: C_14  and  N_15 
REMARK    7  A    between atoms: C_14  and  C_19 
ROOT
HETATM    1  C   UNL     1     -41.044  55.469 -55.085  1.00  0.00     0.217 C 
HETATM    2  N   UNL     1     -41.826  55.437 -56.217  1.00  0.00    -0.359 N 
HETATM    3  O   UNL     1     -41.111  56.408 -54.293  1.00  0.00    -0.274 OA
HETATM    4  H   UNL     1     -41.524  54.818 -56.958  1.00  0.00     0.162 HD
ENDROOT
BRANCH   2   5
HETATM    5  C   UNL     1     -42.643  56.581 -56.627  1.00  0.00     0.160 C 
BRANCH   5   6
HETATM    6  C   UNL     1     -42.892  56.769 -58.167  1.00  0.00     0.239 C 
BRANCH   6   7
HETATM    7  N   UNL     1     -41.914  57.767 -58.814  1.00  0.00    -0.069 N 
HETATM    8  H   UNL     1     -40.994  57.337 -58.648  1.00  0.00     0.279 HD
HETATM    9  C   UNL     1     -41.986  57.918 -60.303  1.00  0.00     0.270 C 
HETATM   10  C   UNL     1     -41.820  59.092 -58.111  1.00  0.00     0.270 C 
ENDBRANCH   6   7
BRANCH   6  11
HETATM   11  C   UNL     1     -44.342  56.984 -58.626  1.00  0.00    -0.004 A 
HETATM   12  C   UNL     1     -44.959  56.099 -59.540  1.00  0.00     0.042 A 
HETATM   13 CL   UNL     1     -44.129  54.720 -60.179  1.00  0.00    -0.084 Cl
HETATM   14  C   UNL     1     -46.274  56.295 -59.977  1.00  0.00     0.024 A 
HETATM   15  C   UNL     1     -47.018  57.366 -59.495  1.00  0.00     0.002 A 
HETATM   16  C   UNL     1     -46.452  58.230 -58.568  1.00  0.00     0.001 A 
HETATM   17  C   UNL     1     -45.135  58.040 -58.135  1.00  0.00     0.011 A 
ENDBRANCH   6  11
ENDBRANCH   5   6
ENDBRANCH   2   5
BRANCH   1  18
HETATM   18  C   UNL     1     -40.179  54.255 -54.783  1.00  0.00     0.107 C 
BRANCH  18  19
HETATM   19  C   UNL     1     -40.908  52.952 -54.474  1.00  0.00     0.052 C 
BRANCH  19  20
HETATM   20  C   UNL     1     -40.334  52.242 -53.296  1.00  0.00    -0.008 A 
HETATM   21  C   UNL     1     -39.726  51.000 -53.259  1.00  0.00     0.032 A 
HETATM   22  C   UNL     1     -39.447  49.997 -54.313  1.00  0.00     0.070 C 
HETATM   23  N   UNL     1     -39.373  50.794 -51.954  1.00  0.00    -0.282 N 
HETATM   24  H   UNL     1     -38.904  49.990 -51.547  1.00  0.00     0.189 HD
HETATM   25  N   UNL     1     -39.704  51.808 -51.143  1.00  0.00    -0.179 NA
HETATM   26  C   UNL     1     -40.295  52.695 -51.947  1.00  0.00     0.059 A 
HETATM   27  C   UNL     1     -40.812  53.969 -51.389  1.00  0.00     0.073 C 
ENDBRANCH  19  20
ENDBRANCH  18  19
ENDBRANCH   1  18
TORSDOF 7
ENDMDL
MODEL 3
REMARK VINA RESULT:      -7.6      2.268      3.171
REMARK  7 active torsions:
REMARK  status: ('A' for Active; 'I' for Inactive)
REMARK    1  A    between atoms: C_8  and  C_9 
REMARK    2  A    between atoms: C_9  and  C_10 
REMARK    3  A    between atoms: C_10  and  C_11 
REMARK       I    between atoms: C_11  and  N_12 
REMARK    4  A    between atoms: N_12  and  C_13 
REMARK    5  A    between atoms: C_13  and  C_14 
REMARK    6  A    between atoms: C_14  and  N_15 
REMARK    7  A    between atoms: C_14  and  C_19 
ROOT
HETATM    1  C   UNL     1     -42.245  54.678 -54.265  1.00  0.00     0.217 C 
HETATM    2  N   UNL     1     -41.543  55.688 -54.881  1.00  0.00    -0.359 N 
HETATM    3  O   UNL     1     -43.296  54.910 -53.669  1.00  0.00    -0.274 OA
HETATM    4  H   UNL     1     -40.569  55.500 -55.088  1.00  0.00     0.162 HD
ENDROOT
BRANCH   2   5
HETATM    5  C   UNL     1     -41.905  57.097 -54.720  1.00  0.00     0.160 C 
BRANCH   5   6
HETATM    6  C   UNL     1     -42.926  57.698 -55.752  1.00  0.00     0.239 C 
BRANCH   6   7
HETATM    7  N   UNL     1     -44.387  57.597 -55.277  1.00  0.00    -0.069 N 
HETATM    8  H   UNL     1     -44.598  56.595 -55.375  1.00  0.00     0.279 HD
HETATM    9  C   UNL     1     -44.651  57.889 -53.831  1.00  0.00     0.270 C 
HETATM   10  C   UNL     1     -45.385  58.261 -56.184  1.00  0.00     0.270 C 
ENDBRANCH   6   7
BRANCH   6  11
HETATM   11  C   UNL     1     -42.757  57.298 -57.225  1.00  0.00    -0.004 A 
HETATM   12  C   UNL     1     -42.188  58.188 -58.165  1.00  0.00     0.042 A 
HETATM   13 CL   UNL     1     -41.635  59.765 -57.710  1.00  0.00    -0.084 Cl
HETATM   14  C   UNL     1     -42.044  57.839 -59.512  1.00  0.00     0.024 A 
HETATM   15  C   UNL     1     -42.442  56.584 -59.955  1.00  0.00     0.002 A 
HETATM   16  C   UNL     1     -42.971  55.674 -59.049  1.00  0.00     0.001 A 
HETATM   17  C   UNL     1     -43.121  56.023 -57.703  1.00  0.00     0.011 A 
ENDBRANCH   6  11
ENDBRANCH   5   6
ENDBRANCH   2   5
BRANCH   1  18
HETATM   18  C   UNL     1     -41.746  53.253 -54.441  1.00  0.00     0.107 C 
BRANCH  18  19
HETATM   19  C   UNL     1     -40.253  53.018 -54.243  1.00  0.00     0.052 C 
BRANCH  19  20
HETATM   20  C   UNL     1     -39.970  51.989 -53.203  1.00  0.00    -0.008 A 
HETATM   21  C   UNL     1     -39.841  52.167 -51.837  1.00  0.00     0.032 A 
HETATM   22  C   UNL     1     -39.934  53.371 -50.978  1.00  0.00     0.070 C 
HETATM   23  N   UNL     1     -39.583  50.927 -51.320  1.00  0.00    -0.282 N 
HETATM   24  H   UNL     1     -39.430  50.668 -50.350  1.00  0.00     0.189 HD
HETATM   25  N   UNL     1     -39.535  49.961 -52.245  1.00  0.00    -0.179 NA
HETATM   26  C   UNL     1     -39.764  50.594 -53.398  1.00  0.00     0.059 A 
HETATM   27  C   UNL     1     -39.781  49.830 -54.670  1.00  0.00     0.073 C 
ENDBRANCH  19  20
ENDBRANCH  18  19
ENDBRANCH   1  18
TORSDOF 7
ENDMDL
MODEL 4
REMARK VINA RESULT:      -7.5      1.223      1.760
REMARK  7 active torsions:
REMARK  status: ('A' for Active; 'I' for Inactive)
REMARK    1  A    between atoms: C_8  and  C_9 
REMARK    2  A    between atoms: C_9  and  C_10 
REMARK    3  A    between atoms: C_10  and  C_11 
REMARK       I    between atoms: C_11  and  N_12 
REMARK    4  A    between atoms: N_12  and  C_13 
REMARK    5  A    between atoms: C_13  and  C_14 
REMARK    6  A    between atoms: C_14  and  N_15 
REMARK    7  A    between atoms: C_14  and  C_19 
ROOT
HETATM    1  C   UNL     1     -41.219  55.525 -55.232  1.00  0.00     0.217 C 
HETATM    2  N   UNL     1     -42.047  55.566 -56.330  1.00  0.00    -0.359 N 
HETATM    3  O   UNL     1     -41.242  56.418 -54.386  1.00  0.00    -0.274 OA
HETATM    4  H   UNL     1     -41.784  54.987 -57.117  1.00  0.00     0.162 HD
ENDROOT
BRANCH   2   5
HETATM    5  C   UNL     1     -42.865  56.740 -56.641  1.00  0.00     0.160 C 
BRANCH   5   6
HETATM    6  C   UNL     1     -42.893  57.219 -58.137  1.00  0.00     0.239 C 
BRANCH   6   7
HETATM    7  N   UNL     1     -42.692  58.739 -58.282  1.00  0.00    -0.069 N 
HETATM    8  H   UNL     1     -43.653  59.104 -58.297  1.00  0.00     0.279 HD
HETATM    9  C   UNL     1     -42.046  59.449 -57.132  1.00  0.00     0.270 C 
HETATM   10  C   UNL     1     -42.128  59.169 -59.608  1.00  0.00     0.270 C 
ENDBRANCH   6   7
BRANCH   6  11
HETATM   11  C   UNL     1     -44.028  56.689 -59.026  1.00  0.00    -0.004 A 
HETATM   12  C   UNL     1     -45.344  57.196 -58.913  1.00  0.00     0.042 A 
HETATM   13 CL   UNL     1     -45.747  58.448 -57.786  1.00  0.00    -0.084 Cl
HETATM   14  C   UNL     1     -46.388  56.709 -59.706  1.00  0.00     0.024 A 
HETATM   15  C   UNL     1     -46.145  55.719 -60.651  1.00  0.00     0.002 A 
HETATM   16  C   UNL     1     -44.856  55.228 -60.811  1.00  0.00     0.001 A 
HETATM   17  C   UNL     1     -43.812  55.709 -60.015  1.00  0.00     0.011 A 
ENDBRANCH   6  11
ENDBRANCH   5   6
ENDBRANCH   2   5
BRANCH   1  18
HETATM   18  C   UNL     1     -40.359  54.286 -55.036  1.00  0.00     0.107 C 
BRANCH  18  19
HETATM   19  C   UNL     1     -41.069  53.024 -54.560  1.00  0.00     0.052 C 
BRANCH  19  20
HETATM   20  C   UNL     1     -40.440  52.439 -53.342  1.00  0.00    -0.008 A 
HETATM   21  C   UNL     1     -40.357  52.989 -52.076  1.00  0.00     0.032 A 
HETATM   22  C   UNL     1     -40.834  54.275 -51.515  1.00  0.00     0.070 C 
HETATM   23  N   UNL     1     -39.689  52.071 -51.312  1.00  0.00    -0.282 N 
HETATM   24  H   UNL     1     -39.443  52.129 -50.329  1.00  0.00     0.189 HD
HETATM   25  N   UNL     1     -39.336  50.969 -51.986  1.00  0.00    -0.179 NA
HETATM   26  C   UNL     1     -39.782  51.182 -53.226  1.00  0.00     0.059 A 
HETATM   27  C   UNL     1     -39.562  50.158 -54.277  1.00  0.00     0.073 C 
ENDBRANCH  19  20
ENDBRANCH  18  19
ENDBRANCH   1  18
TORSDOF 7
ENDMDL
MODEL 5
REMARK VINA RESULT:      -7.4      3.106      5.339
REMARK  7 active torsions:
REMARK  status: ('A' for Active; 'I' for Inactive)
REMARK    1  A    between atoms: C_8  and  C_9 
REMARK    2  A    between atoms: C_9  and  C_10 
REMARK    3  A    between atoms: C_10  and  C_11 
REMARK       I    between atoms: C_11  and  N_12 
REMARK    4  A    between atoms: N_12  and  C_13 
REMARK    5  A    between atoms: C_13  and  C_14 
REMARK    6  A    between atoms: C_14  and  N_15 
REMARK    7  A    between atoms: C_14  and  C_19 
ROOT
HETATM    1  C   UNL     1     -42.293  54.281 -55.129  1.00  0.00     0.217 C 
HETATM    2  N   UNL     1     -41.499  55.370 -55.407  1.00  0.00    -0.359 N 
HETATM    3  O   UNL     1     -43.514  54.337 -55.261  1.00  0.00    -0.274 OA
HETATM    4  H   UNL     1     -40.569  55.366 -55.007  1.00  0.00     0.162 HD
ENDROOT
BRANCH   2   5
HETATM    5  C   UNL     1     -42.065  56.688 -55.703  1.00  0.00     0.160 C 
BRANCH   5   6
HETATM    6  C   UNL     1     -42.771  57.448 -54.522  1.00  0.00     0.239 C 
BRANCH   6   7
HETATM    7  N   UNL     1     -43.563  58.681 -54.993  1.00  0.00    -0.069 N 
HETATM    8  H   UNL     1     -42.940  59.465 -54.759  1.00  0.00     0.279 HD
HETATM    9  C   UNL     1     -43.788  58.819 -56.468  1.00  0.00     0.270 C 
HETATM   10  C   UNL     1     -44.807  58.965 -54.198  1.00  0.00     0.270 C 
ENDBRANCH   6   7
BRANCH   6  11
HETATM   11  C   UNL     1     -41.934  57.730 -53.266  1.00  0.00    -0.004 A 
HETATM   12  C   UNL     1     -42.114  56.978 -52.082  1.00  0.00     0.042 A 
HETATM   13 CL   UNL     1     -43.268  55.690 -51.985  1.00  0.00    -0.084 Cl
HETATM   14  C   UNL     1     -41.369  57.237 -50.927  1.00  0.00     0.024 A 
HETATM   15  C   UNL     1     -40.406  58.239 -50.928  1.00  0.00     0.002 A 
HETATM   16  C   UNL     1     -40.180  58.971 -52.086  1.00  0.00     0.001 A 
HETATM   17  C   UNL     1     -40.929  58.717 -53.240  1.00  0.00     0.011 A 
ENDBRANCH   6  11
ENDBRANCH   5   6
ENDBRANCH   2   5
BRANCH   1  18
HETATM   18  C   UNL     1     -41.606  52.974 -54.767  1.00  0.00     0.107 C 
BRANCH  18  19
HETATM   19  C   UNL     1     -40.206  53.074 -54.171  1.00  0.00     0.052 C 
BRANCH  19  20
HETATM   20  C   UNL     1     -39.958  52.048 -53.119  1.00  0.00    -0.008 A 
HETATM   21  C   UNL     1     -39.694  50.701 -53.285  1.00  0.00     0.032 A 
HETATM   22  C   UNL     1     -39.572  49.852 -54.494  1.00  0.00     0.070 C 
HETATM   23  N   UNL     1     -39.543  50.189 -52.026  1.00  0.00    -0.282 N 
HETATM   24  H   UNL     1     -39.340  49.233 -51.753  1.00  0.00     0.189 HD
HETATM   25  N   UNL     1     -39.687  51.103 -51.057  1.00  0.00    -0.179 NA
HETATM   26  C   UNL     1     -39.946  52.239 -51.708  1.00  0.00     0.059 A 
HETATM   27  C   UNL     1     -40.176  53.492 -50.947  1.00  0.00     0.073 C 
ENDBRANCH  19  20
ENDBRANCH  18  19
ENDBRANCH   1  18
TORSDOF 7
ENDMDL
MODEL 6
REMARK VINA RESULT:      -7.4      2.341      3.529
REMARK  7 active torsions:
REMARK  status: ('A' for Active; 'I' for Inactive)
REMARK    1  A    between atoms: C_8  and  C_9 
REMARK    2  A    between atoms: C_9  and  C_10 
REMARK    3  A    between atoms: C_10  and  C_11 
REMARK       I    between atoms: C_11  and  N_12 
REMARK    4  A    between atoms: N_12  and  C_13 
REMARK    5  A    between atoms: C_13  and  C_14 
REMARK    6  A    between atoms: C_14  and  N_15 
REMARK    7  A    between atoms: C_14  and  C_19 
ROOT
HETATM    1  C   UNL     1     -42.216  54.613 -54.246  1.00  0.00     0.217 C 
HETATM    2  N   UNL     1     -41.908  55.656 -55.088  1.00  0.00    -0.359 N 
HETATM    3  O   UNL     1     -42.966  54.773 -53.284  1.00  0.00    -0.274 OA
HETATM    4  H   UNL     1     -41.081  55.546 -55.661  1.00  0.00     0.162 HD
ENDROOT
BRANCH   2   5
HETATM    5  C   UNL     1     -42.308  57.034 -54.794  1.00  0.00     0.160 C 
BRANCH   5   6
HETATM    6  C   UNL     1     -43.075  57.815 -55.922  1.00  0.00     0.239 C 
BRANCH   6   7
HETATM    7  N   UNL     1     -44.576  57.977 -55.622  1.00  0.00    -0.069 N 
HETATM    8  H   UNL     1     -45.028  57.529 -56.431  1.00  0.00     0.279 HD
HETATM    9  C   UNL     1     -45.116  57.232 -54.440  1.00  0.00     0.270 C 
HETATM   10  C   UNL     1     -45.073  59.395 -55.678  1.00  0.00     0.270 C 
ENDBRANCH   6   7
BRANCH   6  11
HETATM   11  C   UNL     1     -42.807  57.396 -57.375  1.00  0.00    -0.004 A 
HETATM   12  C   UNL     1     -42.146  58.263 -58.276  1.00  0.00     0.042 A 
HETATM   13 CL   UNL     1     -41.587  59.830 -57.792  1.00  0.00    -0.084 Cl
HETATM   14  C   UNL     1     -41.911  57.899 -59.606  1.00  0.00     0.024 A 
HETATM   15  C   UNL     1     -42.307  56.650 -60.069  1.00  0.00     0.002 A 
HETATM   16  C   UNL     1     -42.926  55.762 -59.198  1.00  0.00     0.001 A 
HETATM   17  C   UNL     1     -43.167  56.127 -57.870  1.00  0.00     0.011 A 
ENDBRANCH   6  11
ENDBRANCH   5   6
ENDBRANCH   2   5
BRANCH   1  18
HETATM   18  C   UNL     1     -41.695  53.230 -54.606  1.00  0.00     0.107 C 
BRANCH  18  19
HETATM   19  C   UNL     1     -40.209  52.975 -54.382  1.00  0.00     0.052 C 
BRANCH  19  20
HETATM   20  C   UNL     1     -39.957  51.949 -53.331  1.00  0.00    -0.008 A 
HETATM   21  C   UNL     1     -39.736  50.594 -53.496  1.00  0.00     0.032 A 
HETATM   22  C   UNL     1     -39.674  49.735 -54.701  1.00  0.00     0.070 C 
HETATM   23  N   UNL     1     -39.560  50.087 -52.237  1.00  0.00    -0.282 N 
HETATM   24  H   UNL     1     -39.375  49.127 -51.964  1.00  0.00     0.189 HD
HETATM   25  N   UNL     1     -39.649  51.011 -51.271  1.00  0.00    -0.179 NA
HETATM   26  C   UNL     1     -39.896  52.149 -51.923  1.00  0.00     0.059 A 
HETATM   27  C   UNL     1     -40.068  53.413 -51.165  1.00  0.00     0.073 C 
ENDBRANCH  19  20
ENDBRANCH  18  19
ENDBRANCH   1  18
TORSDOF 7
ENDMDL
MODEL 7
REMARK VINA RESULT:      -7.3      4.249      7.725
REMARK  7 active torsions:
REMARK  status: ('A' for Active; 'I' for Inactive)
REMARK    1  A    between atoms: C_8  and  C_9 
REMARK    2  A    between atoms: C_9  and  C_10 
REMARK    3  A    between atoms: C_10  and  C_11 
REMARK       I    between atoms: C_11  and  N_12 
REMARK    4  A    between atoms: N_12  and  C_13 
REMARK    5  A    between atoms: C_13  and  C_14 
REMARK    6  A    between atoms: C_14  and  N_15 
REMARK    7  A    between atoms: C_14  and  C_19 
ROOT
HETATM    1  C   UNL     1     -43.723  56.587 -51.478  1.00  0.00     0.217 C 
HETATM    2  N   UNL     1     -43.774  55.881 -52.657  1.00  0.00    -0.359 N 
HETATM    3  O   UNL     1     -43.060  56.181 -50.524  1.00  0.00    -0.274 OA
HETATM    4  H   UNL     1     -44.545  56.095 -53.279  1.00  0.00     0.162 HD
ENDROOT
BRANCH   2   5
HETATM    5  C   UNL     1     -43.196  54.542 -52.787  1.00  0.00     0.160 C 
BRANCH   5   6
HETATM    6  C   UNL     1     -41.835  54.421 -53.563  1.00  0.00     0.239 C 
BRANCH   6   7
HETATM    7  N   UNL     1     -41.959  54.798 -55.050  1.00  0.00    -0.069 N 
HETATM    8  H   UNL     1     -41.186  54.280 -55.490  1.00  0.00     0.279 HD
HETATM    9  C   UNL     1     -43.180  54.317 -55.772  1.00  0.00     0.270 C 
HETATM   10  C   UNL     1     -41.644  56.236 -55.357  1.00  0.00     0.270 C 
ENDBRANCH   6   7
BRANCH   6  11
HETATM   11  C   UNL     1     -41.012  53.142 -53.347  1.00  0.00    -0.004 A 
HETATM   12  C   UNL     1     -40.306  52.921 -52.141  1.00  0.00     0.042 A 
HETATM   13 CL   UNL     1     -40.341  54.064 -50.840  1.00  0.00    -0.084 Cl
HETATM   14  C   UNL     1     -39.540  51.768 -51.940  1.00  0.00     0.024 A 
HETATM   15  C   UNL     1     -39.477  50.790 -52.926  1.00  0.00     0.002 A 
HETATM   16  C   UNL     1     -40.190  50.961 -54.105  1.00  0.00     0.001 A 
HETATM   17  C   UNL     1     -40.951  52.117 -54.311  1.00  0.00     0.011 A 
ENDBRANCH   6  11
ENDBRANCH   5   6
ENDBRANCH   2   5
BRANCH   1  18
HETATM   18  C   UNL     1     -44.414  57.941 -51.427  1.00  0.00     0.107 C 
BRANCH  18  19
HETATM   19  C   UNL     1     -43.526  59.158 -51.193  1.00  0.00     0.052 C 
BRANCH  19  20
HETATM   20  C   UNL     1     -42.374  59.215 -52.137  1.00  0.00    -0.008 A 
HETATM   21  C   UNL     1     -41.056  58.870 -51.898  1.00  0.00     0.032 A 
HETATM   22  C   UNL     1     -40.365  58.353 -50.693  1.00  0.00     0.070 C 
HETATM   23  N   UNL     1     -40.390  59.100 -53.070  1.00  0.00    -0.282 N 
HETATM   24  H   UNL     1     -39.405  58.961 -53.273  1.00  0.00     0.189 HD
HETATM   25  N   UNL     1     -41.176  59.566 -54.050  1.00  0.00    -0.179 NA
HETATM   26  C   UNL     1     -42.386  59.646 -53.493  1.00  0.00     0.059 A 
HETATM   27  C   UNL     1     -43.536  60.139 -54.292  1.00  0.00     0.073 C 
ENDBRANCH  19  20
ENDBRANCH  18  19
ENDBRANCH   1  18
TORSDOF 7
ENDMDL
MODEL 8
REMARK VINA RESULT:      -7.2      3.669      5.201
REMARK  7 active torsions:
REMARK  status: ('A' for Active; 'I' for Inactive)
REMARK    1  A    between atoms: C_8  and  C_9 
REMARK    2  A    between atoms: C_9  and  C_10 
REMARK    3  A    between atoms: C_10  and  C_11 
REMARK       I    between atoms: C_11  and  N_12 
REMARK    4  A    between atoms: N_12  and  C_13 
REMARK    5  A    between atoms: C_13  and  C_14 
REMARK    6  A    between atoms: C_14  and  N_15 
REMARK    7  A    between atoms: C_14  and  C_19 
ROOT
HETATM    1  C   UNL     1     -42.308  54.102 -51.232  1.00  0.00     0.217 C 
HETATM    2  N   UNL     1     -42.647  55.198 -50.471  1.00  0.00    -0.359 N 
HETATM    3  O   UNL     1     -42.793  53.932 -52.349  1.00  0.00    -0.274 OA
HETATM    4  H   UNL     1     -42.460  55.134 -49.478  1.00  0.00     0.162 HD
ENDROOT
BRANCH   2   5
HETATM    5  C   UNL     1     -43.716  56.117 -50.867  1.00  0.00     0.160 C 
BRANCH   5   6
HETATM    6  C   UNL     1     -43.298  57.404 -51.664  1.00  0.00     0.239 C 
BRANCH   6   7
HETATM    7  N   UNL     1     -43.818  58.702 -51.020  1.00  0.00    -0.069 N 
HETATM    8  H   UNL     1     -43.411  58.675 -50.075  1.00  0.00     0.279 HD
HETATM    9  C   UNL     1     -43.320  59.991 -51.597  1.00  0.00     0.270 C 
HETATM   10  C   UNL     1     -45.300  58.724 -50.769  1.00  0.00     0.270 C 
ENDBRANCH   6   7
BRANCH   6  11
HETATM   11  C   UNL     1     -43.493  57.384 -53.187  1.00  0.00    -0.004 A 
HETATM   12  C   UNL     1     -42.421  57.081 -54.059  1.00  0.00     0.042 A 
HETATM   13 CL   UNL     1     -40.840  56.699 -53.463  1.00  0.00    -0.084 Cl
HETATM   14  C   UNL     1     -42.583  57.076 -55.448  1.00  0.00     0.024 A 
HETATM   15  C   UNL     1     -43.826  57.350 -56.007  1.00  0.00     0.002 A 
HETATM   16  C   UNL     1     -44.906  57.615 -55.176  1.00  0.00     0.001 A 
HETATM   17  C   UNL     1     -44.744  57.626 -53.787  1.00  0.00     0.011 A 
ENDBRANCH   6  11
ENDBRANCH   5   6
ENDBRANCH   2   5
BRANCH   1  18
HETATM   18  C   UNL     1     -41.230  53.171 -50.699  1.00  0.00     0.107 C 
BRANCH  18  19
HETATM   19  C   UNL     1     -39.915  53.131 -51.468  1.00  0.00     0.052 C 
BRANCH  19  20
HETATM   20  C   UNL     1     -39.879  52.040 -52.483  1.00  0.00    -0.008 A 
HETATM   21  C   UNL     1     -40.038  52.141 -53.853  1.00  0.00     0.032 A 
HETATM   22  C   UNL     1     -40.285  53.300 -54.743  1.00  0.00     0.070 C 
HETATM   23  N   UNL     1     -39.924  50.868 -54.339  1.00  0.00    -0.282 N 
HETATM   24  H   UNL     1     -39.985  50.553 -55.302  1.00  0.00     0.189 HD
HETATM   25  N   UNL     1     -39.703  49.950 -53.389  1.00  0.00    -0.179 NA
HETATM   26  C   UNL     1     -39.678  50.649 -52.252  1.00  0.00     0.059 A 
HETATM   27  C   UNL     1     -39.458  49.953 -50.960  1.00  0.00     0.073 C 
ENDBRANCH  19  20
ENDBRANCH  18  19
ENDBRANCH   1  18
TORSDOF 7
ENDMDL
MODEL 9
REMARK VINA RESULT:      -7.2      3.174      8.400
REMARK  7 active torsions:
REMARK  status: ('A' for Active; 'I' for Inactive)
REMARK    1  A    between atoms: C_8  and  C_9 
REMARK    2  A    between atoms: C_9  and  C_10 
REMARK    3  A    between atoms: C_10  and  C_11 
REMARK       I    between atoms: C_11  and  N_12 
REMARK    4  A    between atoms: N_12  and  C_13 
REMARK    5  A    between atoms: C_13  and  C_14 
REMARK    6  A    between atoms: C_14  and  N_15 
REMARK    7  A    between atoms: C_14  and  C_19 
ROOT
HETATM    1  C   UNL     1     -43.135  56.257 -56.535  1.00  0.00     0.217 C 
HETATM    2  N   UNL     1     -43.821  56.243 -55.343  1.00  0.00    -0.359 N 
HETATM    3  O   UNL     1     -42.591  55.241 -56.966  1.00  0.00    -0.274 OA
HETATM    4  H   UNL     1     -43.983  57.141 -54.904  1.00  0.00     0.162 HD
ENDROOT
BRANCH   2   5
HETATM    5  C   UNL     1     -43.797  55.085 -54.447  1.00  0.00     0.160 C 
BRANCH   5   6
HETATM    6  C   UNL     1     -42.769  55.118 -53.260  1.00  0.00     0.239 C 
BRANCH   6   7
HETATM    7  N   UNL     1     -42.161  56.514 -53.033  1.00  0.00    -0.069 N 
HETATM    8  H   UNL     1     -42.727  57.119 -53.642  1.00  0.00     0.279 HD
HETATM    9  C   UNL     1     -42.325  57.110 -51.668  1.00  0.00     0.270 C 
HETATM   10  C   UNL     1     -40.765  56.680 -53.564  1.00  0.00     0.270 C 
ENDBRANCH   6   7
BRANCH   6  11
HETATM   11  C   UNL     1     -41.715  54.002 -53.209  1.00  0.00    -0.004 A 
HETATM   12  C   UNL     1     -41.237  53.501 -51.975  1.00  0.00     0.042 A 
HETATM   13 CL   UNL     1     -41.821  54.101 -50.459  1.00  0.00    -0.084 Cl
HETATM   14  C   UNL     1     -40.266  52.497 -51.918  1.00  0.00     0.024 A 
HETATM   15  C   UNL     1     -39.761  51.945 -53.089  1.00  0.00     0.002 A 
HETATM   16  C   UNL     1     -40.237  52.389 -54.315  1.00  0.00     0.001 A 
HETATM   17  C   UNL     1     -41.204  53.398 -54.375  1.00  0.00     0.011 A 
ENDBRANCH   6  11
ENDBRANCH   5   6
ENDBRANCH   2   5
BRANCH   1  18
HETATM   18  C   UNL     1     -43.168  57.534 -57.361  1.00  0.00     0.107 C 
BRANCH  18  19
HETATM   19  C   UNL     1     -43.356  57.375 -58.865  1.00  0.00     0.052 C 
BRANCH  19  20
HETATM   20  C   UNL     1     -44.742  56.964 -59.228  1.00  0.00    -0.008 A 
HETATM   21  C   UNL     1     -45.188  55.715 -59.620  1.00  0.00     0.032 A 
HETATM   22  C   UNL     1     -44.488  54.422 -59.808  1.00  0.00     0.070 C 
HETATM   23  N   UNL     1     -46.531  55.849 -59.841  1.00  0.00    -0.282 N 
HETATM   24  H   UNL     1     -47.194  55.141 -60.141  1.00  0.00     0.189 HD
HETATM   25  N   UNL     1     -46.989  57.088 -59.621  1.00  0.00    -0.179 NA
HETATM   26  C   UNL     1     -45.909  57.780 -59.251  1.00  0.00     0.059 A 
HETATM   27  C   UNL     1     -46.030  59.222 -58.926  1.00  0.00     0.073 C 
ENDBRANCH  19  20
ENDBRANCH  18  19
ENDBRANCH   1  18
TORSDOF 7
ENDMDL
MODEL 10
REMARK VINA RESULT:      -7.1      3.555      8.269
REMARK  7 active torsions:
REMARK  status: ('A' for Active; 'I' for Inactive)
REMARK    1  A    between atoms: C_8  and  C_9 
REMARK    2  A    between atoms: C_9  and  C_10 
REMARK    3  A    between atoms: C_10  and  C_11 
REMARK       I    between atoms: C_11  and  N_12 
REMARK    4  A    between atoms: N_12  and  C_13 
REMARK    5  A    between atoms: C_13  and  C_14 
REMARK    6  A    between atoms: C_14  and  N_15 
REMARK    7  A    between atoms: C_14  and  C_19 
ROOT
HETATM    1  C   UNL     1     -41.131  58.787 -53.817  1.00  0.00     0.217 C 
HETATM    2  N   UNL     1     -41.680  57.532 -53.686  1.00  0.00    -0.359 N 
HETATM    3  O   UNL     1     -40.108  59.098 -53.208  1.00  0.00    -0.274 OA
HETATM    4  H   UNL     1     -42.649  57.432 -53.960  1.00  0.00     0.162 HD
ENDROOT
BRANCH   2   5
HETATM    5  C   UNL     1     -41.188  56.568 -52.699  1.00  0.00     0.160 C 
BRANCH   5   6
HETATM    6  C   UNL     1     -41.958  55.204 -52.582  1.00  0.00     0.239 C 
BRANCH   6   7
HETATM    7  N   UNL     1     -42.849  55.126 -51.329  1.00  0.00    -0.069 N 
HETATM    8  H   UNL     1     -42.175  54.961 -50.570  1.00  0.00     0.279 HD
HETATM    9  C   UNL     1     -43.559  56.382 -50.923  1.00  0.00     0.270 C 
HETATM   10  C   UNL     1     -43.747  53.921 -51.276  1.00  0.00     0.270 C 
ENDBRANCH   6   7
BRANCH   6  11
HETATM   11  C   UNL     1     -41.152  53.918 -52.812  1.00  0.00    -0.004 A 
HETATM   12  C   UNL     1     -40.276  53.416 -51.821  1.00  0.00     0.042 A 
HETATM   13 CL   UNL     1     -40.077  54.208 -50.293  1.00  0.00    -0.084 Cl
HETATM   14  C   UNL     1     -39.525  52.254 -52.025  1.00  0.00     0.024 A 
HETATM   15  C   UNL     1     -39.644  51.545 -53.215  1.00  0.00     0.002 A 
HETATM   16  C   UNL     1     -40.523  51.993 -54.193  1.00  0.00     0.001 A 
HETATM   17  C   UNL     1     -41.270  53.158 -53.992  1.00  0.00     0.011 A 
ENDBRANCH   6  11
ENDBRANCH   5   6
ENDBRANCH   2   5
BRANCH   1  18
HETATM   18  C   UNL     1     -41.758  59.737 -54.825  1.00  0.00     0.107 C 
BRANCH  18  19
HETATM   19  C   UNL     1     -42.937  59.204 -55.631  1.00  0.00     0.052 C 
BRANCH  19  20
HETATM   20  C   UNL     1     -42.514  58.577 -56.915  1.00  0.00    -0.008 A 
HETATM   21  C   UNL     1     -42.554  57.240 -57.268  1.00  0.00     0.032 A 
HETATM   22  C   UNL     1     -43.005  56.031 -56.539  1.00  0.00     0.070 C 
HETATM   23  N   UNL     1     -42.058  57.173 -58.541  1.00  0.00    -0.282 N 
HETATM   24  H   UNL     1     -41.936  56.353 -59.128  1.00  0.00     0.189 HD
HETATM   25  N   UNL     1     -41.701  58.364 -59.040  1.00  0.00    -0.179 NA
HETATM   26  C   UNL     1     -41.968  59.228 -58.058  1.00  0.00     0.059 A 
HETATM   27  C   UNL     1     -41.690  60.673 -58.249  1.00  0.00     0.073 C 
ENDBRANCH  19  20
ENDBRANCH  18  19
ENDBRANCH   1  18
TORSDOF 7
ENDMDL
