MODEL 1
REMARK VINA RESULT:      -8.9      0.000      0.000
REMARK  4 active torsions:
REMARK  status: ('A' for Active; 'I' for Inactive)
REMARK    1  A    between atoms: C_8  and  C_9 
REMARK    2  A    between atoms: N_10  and  N_11 
REMARK       I    between atoms: N_11  and  C_12 
REMARK    3  A    between atoms: C_12  and  C_13 
REMARK    4  A    between atoms: C_17  and  C_18 
ROOT
HETATM    1  N   UNL     1     -41.741  55.058 -56.029  1.00  0.00    -0.242 N 
HETATM    2  C   UNL     1     -42.839  55.902 -55.967  1.00  0.00     0.292 C 
HETATM    3  O   UNL     1     -43.686  55.908 -55.076  1.00  0.00    -0.264 OA
HETATM    4  H   UNL     1     -41.115  55.165 -56.823  1.00  0.00     0.192 HD
ENDROOT
BRANCH   2   5
HETATM    5  C   UNL     1     -42.902  56.833 -57.105  1.00  0.00     0.148 A 
HETATM    6  N   UNL     1     -43.737  56.659 -58.150  1.00  0.00    -0.169 NA
HETATM    7  N   UNL     1     -43.473  57.712 -58.948  1.00  0.00    -0.277 N 
HETATM    8  H   UNL     1     -43.978  57.786 -59.826  1.00  0.00     0.189 HD
HETATM    9  C   UNL     1     -42.512  58.566 -58.470  1.00  0.00     0.063 A 
HETATM   10  C   UNL     1     -42.124  58.006 -57.270  1.00  0.00     0.071 A 
BRANCH   9  11
HETATM   11  C   UNL     1     -42.048  59.768 -59.163  1.00  0.00    -0.005 A 
HETATM   12  C   UNL     1     -41.454  60.830 -58.464  1.00  0.00     0.053 A 
HETATM   13  C   UNL     1     -41.022  61.927 -59.184  1.00  0.00     0.106 A 
HETATM   14  C   UNL     1     -41.159  62.002 -60.550  1.00  0.00     0.105 A 
HETATM   15  O   UNL     1     -40.421  63.030 -58.664  1.00  0.00    -0.323 OA
HETATM   16  O   UNL     1     -40.666  63.160 -61.060  1.00  0.00    -0.323 OA
HETATM   17  C   UNL     1     -41.738  60.985 -61.273  1.00  0.00     0.040 A 
HETATM   18  C   UNL     1     -40.184  63.801 -59.861  1.00  0.00     0.352 A 
HETATM   19  C   UNL     1     -42.183  59.860 -60.569  1.00  0.00     0.017 A 
ENDBRANCH   9  11
ENDBRANCH   2   5
BRANCH   1  20
HETATM   20  N   UNL     1     -41.520  54.138 -55.049  1.00  0.00    -0.183 NA
HETATM   21  C   UNL     1     -40.642  54.454 -54.153  1.00  0.00     0.152 C 
BRANCH  21  22
HETATM   22  C   UNL     1     -40.366  53.515 -53.085  1.00  0.00     0.011 A 
HETATM   23  C   UNL     1     -40.095  52.113 -53.190  1.00  0.00     0.004 A 
HETATM   24  C   UNL     1     -40.000  51.202 -54.265  1.00  0.00     0.014 A 
HETATM   25  C   UNL     1     -39.890  51.628 -51.896  1.00  0.00     0.043 A 
HETATM   26  C   UNL     1     -39.708  49.857 -54.008  1.00  0.00     0.001 A 
HETATM   27  C   UNL     1     -39.511  49.408 -52.705  1.00  0.00     0.002 A 
HETATM   28  C   UNL     1     -39.598  50.286 -51.621  1.00  0.00     0.030 A 
HETATM   29  N   UNL     1     -40.034  52.692 -51.036  1.00  0.00    -0.364 N 
HETATM   30  H   UNL     1     -39.940  52.637 -50.031  1.00  0.00     0.165 HD
HETATM   31  C   UNL     1     -40.318  53.828 -51.738  1.00  0.00     0.102 A 
ENDBRANCH  21  22
ENDBRANCH   1  20
TORSDOF 4
ENDMDL
MODEL 2
REMARK VINA RESULT:      -8.8      4.574      5.255
REMARK  4 active torsions:
REMARK  status: ('A' for Active; 'I' for Inactive)
REMARK    1  A    between atoms: C_8  and  C_9 
REMARK    2  A    between atoms: N_10  and  N_11 
REMARK       I    between atoms: N_11  and  C_12 
REMARK    3  A    between atoms: C_12  and  C_13 
REMARK    4  A    between atoms: C_17  and  C_18 
ROOT
HETATM    1  N   UNL     1     -43.217  55.265 -57.070  1.00  0.00    -0.242 N 
HETATM    2  C   UNL     1     -43.099  56.456 -57.771  1.00  0.00     0.292 C 
HETATM    3  O   UNL     1     -42.348  57.384 -57.480  1.00  0.00    -0.264 OA
HETATM    4  H   UNL     1     -43.877  54.577 -57.426  1.00  0.00     0.192 HD
ENDROOT
BRANCH   2   5
HETATM    5  C   UNL     1     -43.982  56.510 -58.947  1.00  0.00     0.148 A 
HETATM    6  N   UNL     1     -43.688  55.902 -60.114  1.00  0.00    -0.169 NA
HETATM    7  N   UNL     1     -44.738  56.201 -60.904  1.00  0.00    -0.277 N 
HETATM    8  H   UNL     1     -44.731  55.861 -61.861  1.00  0.00     0.189 HD
HETATM    9  C   UNL     1     -45.704  56.968 -60.304  1.00  0.00     0.063 A 
HETATM   10  C   UNL     1     -45.226  57.184 -59.028  1.00  0.00     0.071 A 
BRANCH   9  11
HETATM   11  C   UNL     1     -46.928  57.428 -60.962  1.00  0.00    -0.005 A 
HETATM   12  C   UNL     1     -47.308  58.778 -60.932  1.00  0.00     0.053 A 
HETATM   13  C   UNL     1     -48.466  59.146 -61.590  1.00  0.00     0.106 A 
HETATM   14  C   UNL     1     -49.243  58.234 -62.263  1.00  0.00     0.105 A 
HETATM   15  O   UNL     1     -48.968  60.408 -61.665  1.00  0.00    -0.323 OA
HETATM   16  O   UNL     1     -50.331  58.804 -62.844  1.00  0.00    -0.323 OA
HETATM   17  C   UNL     1     -48.907  56.901 -62.316  1.00  0.00     0.040 A 
HETATM   18  C   UNL     1     -50.143  60.185 -62.475  1.00  0.00     0.352 A 
HETATM   19  C   UNL     1     -47.738  56.500 -61.659  1.00  0.00     0.017 A 
ENDBRANCH   9  11
ENDBRANCH   2   5
BRANCH   1  20
HETATM   20  N   UNL     1     -42.463  55.040 -55.958  1.00  0.00    -0.183 NA
HETATM   21  C   UNL     1     -43.065  54.476 -54.962  1.00  0.00     0.152 C 
BRANCH  21  22
HETATM   22  C   UNL     1     -42.313  54.209 -53.752  1.00  0.00     0.011 A 
HETATM   23  C   UNL     1     -41.329  53.192 -53.530  1.00  0.00     0.004 A 
HETATM   24  C   UNL     1     -40.773  52.165 -54.324  1.00  0.00     0.014 A 
HETATM   25  C   UNL     1     -40.880  53.326 -52.214  1.00  0.00     0.043 A 
HETATM   26  C   UNL     1     -39.798  51.321 -53.777  1.00  0.00     0.001 A 
HETATM   27  C   UNL     1     -39.373  51.483 -52.461  1.00  0.00     0.002 A 
HETATM   28  C   UNL     1     -39.907  52.490 -51.653  1.00  0.00     0.030 A 
HETATM   29  N   UNL     1     -41.563  54.381 -51.656  1.00  0.00    -0.364 N 
HETATM   30  H   UNL     1     -41.441  54.709 -50.708  1.00  0.00     0.165 HD
HETATM   31  C   UNL     1     -42.424  54.918 -52.569  1.00  0.00     0.102 A 
ENDBRANCH  21  22
ENDBRANCH   1  20
TORSDOF 4
ENDMDL
MODEL 3
REMARK VINA RESULT:      -8.3      7.200     11.115
REMARK  4 active torsions:
REMARK  status: ('A' for Active; 'I' for Inactive)
REMARK    1  A    between atoms: C_8  and  C_9 
REMARK    2  A    between atoms: N_10  and  N_11 
REMARK       I    between atoms: N_11  and  C_12 
REMARK    3  A    between atoms: C_12  and  C_13 
REMARK    4  A    between atoms: C_17  and  C_18 
ROOT
HETATM    1  N   UNL     1     -42.725  59.459 -51.276  1.00  0.00    -0.242 N 
HETATM    2  C   UNL     1     -41.659  58.638 -50.941  1.00  0.00     0.292 C 
HETATM    3  O   UNL     1     -40.870  58.831 -50.019  1.00  0.00    -0.264 OA
HETATM    4  H   UNL     1     -43.304  59.176 -52.063  1.00  0.00     0.192 HD
ENDROOT
BRANCH   2   5
HETATM    5  C   UNL     1     -41.555  57.461 -51.819  1.00  0.00     0.148 A 
HETATM    6  N   UNL     1     -42.002  57.454 -53.092  1.00  0.00    -0.169 NA
HETATM    7  N   UNL     1     -41.719  56.208 -53.522  1.00  0.00    -0.277 N 
HETATM    8  H   UNL     1     -41.989  55.956 -54.468  1.00  0.00     0.189 HD
HETATM    9  C   UNL     1     -41.104  55.408 -52.594  1.00  0.00     0.063 A 
HETATM   10  C   UNL     1     -40.992  56.207 -51.474  1.00  0.00     0.071 A 
BRANCH   9  11
HETATM   11  C   UNL     1     -40.711  54.017 -52.824  1.00  0.00    -0.005 A 
HETATM   12  C   UNL     1     -40.355  53.174 -51.761  1.00  0.00     0.053 A 
HETATM   13  C   UNL     1     -40.013  51.867 -52.048  1.00  0.00     0.106 A 
HETATM   14  C   UNL     1     -40.013  51.380 -53.333  1.00  0.00     0.105 A 
HETATM   15  O   UNL     1     -39.654  50.923 -51.138  1.00  0.00    -0.323 OA
HETATM   16  O   UNL     1     -39.652  50.072 -53.395  1.00  0.00    -0.323 OA
HETATM   17  C   UNL     1     -40.354  52.173 -54.405  1.00  0.00     0.040 A 
HETATM   18  C   UNL     1     -39.441  49.783 -51.998  1.00  0.00     0.352 A 
HETATM   19  C   UNL     1     -40.707  53.502 -54.142  1.00  0.00     0.017 A 
ENDBRANCH   9  11
ENDBRANCH   2   5
BRANCH   1  20
HETATM   20  N   UNL     1     -42.978  60.589 -50.559  1.00  0.00    -0.183 NA
HETATM   21  C   UNL     1     -44.198  60.757 -50.164  1.00  0.00     0.152 C 
BRANCH  21  22
HETATM   22  C   UNL     1     -44.527  61.941 -49.396  1.00  0.00     0.011 A 
HETATM   23  C   UNL     1     -44.769  62.041 -47.988  1.00  0.00     0.004 A 
HETATM   24  C   UNL     1     -44.778  61.118 -46.919  1.00  0.00     0.014 A 
HETATM   25  C   UNL     1     -45.045  63.381 -47.705  1.00  0.00     0.043 A 
HETATM   26  C   UNL     1     -45.060  61.566 -45.622  1.00  0.00     0.001 A 
HETATM   27  C   UNL     1     -45.333  62.909 -45.377  1.00  0.00     0.002 A 
HETATM   28  C   UNL     1     -45.331  63.844 -46.415  1.00  0.00     0.030 A 
HETATM   29  N   UNL     1     -44.977  64.070 -48.894  1.00  0.00    -0.364 N 
HETATM   30  H   UNL     1     -45.134  65.063 -48.994  1.00  0.00     0.165 HD
HETATM   31  C   UNL     1     -44.666  63.217 -49.913  1.00  0.00     0.102 A 
ENDBRANCH  21  22
ENDBRANCH   1  20
TORSDOF 4
ENDMDL
MODEL 4
REMARK VINA RESULT:      -8.3      8.023     11.391
REMARK  4 active torsions:
REMARK  status: ('A' for Active; 'I' for Inactive)
REMARK    1  A    between atoms: C_8  and  C_9 
REMARK    2  A    between atoms: N_10  and  N_11 
REMARK       I    between atoms: N_11  and  C_12 
REMARK    3  A    between atoms: C_12  and  C_13 
REMARK    4  A    between atoms: C_17  and  C_18 
ROOT
HETATM    1  N   UNL     1     -45.461  58.847 -50.058  1.00  0.00    -0.242 N 
HETATM    2  C   UNL     1     -44.650  58.671 -51.169  1.00  0.00     0.292 C 
HETATM    3  O   UNL     1     -44.297  59.557 -51.944  1.00  0.00    -0.264 OA
HETATM    4  H   UNL     1     -45.671  58.024 -49.499  1.00  0.00     0.192 HD
ENDROOT
BRANCH   2   5
HETATM    5  C   UNL     1     -44.226  57.273 -51.344  1.00  0.00     0.148 A 
HETATM    6  N   UNL     1     -44.730  56.257 -50.613  1.00  0.00    -0.169 NA
HETATM    7  N   UNL     1     -44.079  55.173 -51.082  1.00  0.00    -0.277 N 
HETATM    8  H   UNL     1     -44.283  54.273 -50.660  1.00  0.00     0.189 HD
HETATM    9  C   UNL     1     -43.183  55.435 -52.086  1.00  0.00     0.063 A 
HETATM   10  C   UNL     1     -43.260  56.801 -52.267  1.00  0.00     0.071 A 
BRANCH   9  11
HETATM   11  C   UNL     1     -42.352  54.425 -52.743  1.00  0.00    -0.005 A 
HETATM   12  C   UNL     1     -41.390  53.695 -52.029  1.00  0.00     0.053 A 
HETATM   13  C   UNL     1     -40.654  52.743 -52.709  1.00  0.00     0.106 A 
HETATM   14  C   UNL     1     -40.839  52.499 -54.049  1.00  0.00     0.105 A 
HETATM   15  O   UNL     1     -39.693  51.948 -52.166  1.00  0.00    -0.323 OA
HETATM   16  O   UNL     1     -40.018  51.523 -54.518  1.00  0.00    -0.323 OA
HETATM   17  C   UNL     1     -41.770  53.193 -54.786  1.00  0.00     0.040 A 
HETATM   18  C   UNL     1     -39.306  51.166 -53.317  1.00  0.00     0.352 A 
HETATM   19  C   UNL     1     -42.532  54.162 -54.122  1.00  0.00     0.017 A 
ENDBRANCH   9  11
ENDBRANCH   2   5
BRANCH   1  20
HETATM   20  N   UNL     1     -45.937  60.083 -49.738  1.00  0.00    -0.183 NA
HETATM   21  C   UNL     1     -45.419  60.645 -48.695  1.00  0.00     0.152 C 
BRANCH  21  22
HETATM   22  C   UNL     1     -45.885  61.961 -48.308  1.00  0.00     0.011 A 
HETATM   23  C   UNL     1     -45.740  62.611 -47.039  1.00  0.00     0.004 A 
HETATM   24  C   UNL     1     -45.148  62.254 -45.808  1.00  0.00     0.014 A 
HETATM   25  C   UNL     1     -46.346  63.865 -47.141  1.00  0.00     0.043 A 
HETATM   26  C   UNL     1     -45.185  63.157 -44.737  1.00  0.00     0.001 A 
HETATM   27  C   UNL     1     -45.799  64.399 -44.874  1.00  0.00     0.002 A 
HETATM   28  C   UNL     1     -46.393  64.778 -46.080  1.00  0.00     0.030 A 
HETATM   29  N   UNL     1     -46.843  63.975 -48.420  1.00  0.00    -0.364 N 
HETATM   30  H   UNL     1     -47.335  64.781 -48.780  1.00  0.00     0.165 HD
HETATM   31  C   UNL     1     -46.570  62.840 -49.127  1.00  0.00     0.102 A 
ENDBRANCH  21  22
ENDBRANCH   1  20
TORSDOF 4
ENDMDL
MODEL 5
REMARK VINA RESULT:      -8.2      8.646     11.281
REMARK  4 active torsions:
REMARK  status: ('A' for Active; 'I' for Inactive)
REMARK    1  A    between atoms: C_8  and  C_9 
REMARK    2  A    between atoms: N_10  and  N_11 
REMARK       I    between atoms: N_11  and  C_12 
REMARK    3  A    between atoms: C_12  and  C_13 
REMARK    4  A    between atoms: C_17  and  C_18 
ROOT
HETATM    1  N   UNL     1     -45.394  59.811 -49.090  1.00  0.00    -0.242 N 
HETATM    2  C   UNL     1     -44.954  59.958 -50.396  1.00  0.00     0.292 C 
HETATM    3  O   UNL     1     -44.862  61.022 -51.004  1.00  0.00    -0.264 OA
HETATM    4  H   UNL     1     -45.416  58.869 -48.707  1.00  0.00     0.192 HD
ENDROOT
BRANCH   2   5
HETATM    5  C   UNL     1     -44.584  58.676 -51.016  1.00  0.00     0.148 A 
HETATM    6  N   UNL     1     -45.369  57.580 -50.959  1.00  0.00    -0.169 NA
HETATM    7  N   UNL     1     -44.668  56.649 -51.635  1.00  0.00    -0.277 N 
HETATM    8  H   UNL     1     -45.059  55.715 -51.709  1.00  0.00     0.189 HD
HETATM    9  C   UNL     1     -43.468  57.088 -52.134  1.00  0.00     0.063 A 
HETATM   10  C   UNL     1     -43.393  58.407 -51.736  1.00  0.00     0.071 A 
BRANCH   9  11
HETATM   11  C   UNL     1     -42.528  56.258 -52.889  1.00  0.00    -0.005 A 
HETATM   12  C   UNL     1     -42.413  54.881 -52.647  1.00  0.00     0.053 A 
HETATM   13  C   UNL     1     -41.519  54.155 -53.411  1.00  0.00     0.106 A 
HETATM   14  C   UNL     1     -40.750  54.742 -54.387  1.00  0.00     0.105 A 
HETATM   15  O   UNL     1     -41.294  52.818 -53.310  1.00  0.00    -0.323 OA
HETATM   16  O   UNL     1     -39.944  53.851 -55.021  1.00  0.00    -0.323 OA
HETATM   17  C   UNL     1     -40.830  56.089 -54.655  1.00  0.00     0.040 A 
HETATM   18  C   UNL     1     -40.305  52.630 -54.345  1.00  0.00     0.352 A 
HETATM   19  C   UNL     1     -41.730  56.849 -53.898  1.00  0.00     0.017 A 
ENDBRANCH   9  11
ENDBRANCH   2   5
BRANCH   1  20
HETATM   20  N   UNL     1     -45.767  60.900 -48.360  1.00  0.00    -0.183 NA
HETATM   21  C   UNL     1     -45.183  61.051 -47.216  1.00  0.00     0.152 C 
BRANCH  21  22
HETATM   22  C   UNL     1     -45.538  62.191 -46.396  1.00  0.00     0.011 A 
HETATM   23  C   UNL     1     -45.032  62.541 -45.103  1.00  0.00     0.004 A 
HETATM   24  C   UNL     1     -44.089  61.967 -44.222  1.00  0.00     0.014 A 
HETATM   25  C   UNL     1     -45.667  63.722 -44.710  1.00  0.00     0.043 A 
HETATM   26  C   UNL     1     -43.820  62.590 -42.996  1.00  0.00     0.001 A 
HETATM   27  C   UNL     1     -44.473  63.765 -42.637  1.00  0.00     0.002 A 
HETATM   28  C   UNL     1     -45.411  64.355 -43.488  1.00  0.00     0.030 A 
HETATM   29  N   UNL     1     -46.528  64.076 -45.723  1.00  0.00    -0.364 N 
HETATM   30  H   UNL     1     -47.123  64.893 -45.714  1.00  0.00     0.165 HD
HETATM   31  C   UNL     1     -46.458  63.167 -46.738  1.00  0.00     0.102 A 
ENDBRANCH  21  22
ENDBRANCH   1  20
TORSDOF 4
ENDMDL
MODEL 6
REMARK VINA RESULT:      -8.2      2.736     10.730
REMARK  4 active torsions:
REMARK  status: ('A' for Active; 'I' for Inactive)
REMARK    1  A    between atoms: C_8  and  C_9 
REMARK    2  A    between atoms: N_10  and  N_11 
REMARK       I    between atoms: N_11  and  C_12 
REMARK    3  A    between atoms: C_12  and  C_13 
REMARK    4  A    between atoms: C_17  and  C_18 
ROOT
HETATM    1  N   UNL     1     -42.192  58.249 -56.059  1.00  0.00    -0.242 N 
HETATM    2  C   UNL     1     -41.673  58.567 -54.814  1.00  0.00     0.292 C 
HETATM    3  O   UNL     1     -41.332  59.689 -54.447  1.00  0.00    -0.264 OA
HETATM    4  H   UNL     1     -42.437  57.277 -56.229  1.00  0.00     0.192 HD
ENDROOT
BRANCH   2   5
HETATM    5  C   UNL     1     -41.566  57.395 -53.930  1.00  0.00     0.148 A 
HETATM    6  N   UNL     1     -42.014  57.392 -52.658  1.00  0.00    -0.169 NA
HETATM    7  N   UNL     1     -41.722  56.152 -52.219  1.00  0.00    -0.277 N 
HETATM    8  H   UNL     1     -41.954  55.917 -51.259  1.00  0.00     0.189 HD
HETATM    9  C   UNL     1     -41.112  55.346 -53.146  1.00  0.00     0.063 A 
HETATM   10  C   UNL     1     -40.997  56.142 -54.268  1.00  0.00     0.071 A 
BRANCH   9  11
HETATM   11  C   UNL     1     -40.690  53.967 -52.900  1.00  0.00    -0.005 A 
HETATM   12  C   UNL     1     -40.597  53.035 -53.944  1.00  0.00     0.053 A 
HETATM   13  C   UNL     1     -40.173  51.755 -53.643  1.00  0.00     0.106 A 
HETATM   14  C   UNL     1     -39.846  51.378 -52.362  1.00  0.00     0.105 A 
HETATM   15  O   UNL     1     -40.021  50.740 -54.535  1.00  0.00    -0.323 OA
HETATM   16  O   UNL     1     -39.450  50.081 -52.286  1.00  0.00    -0.323 OA
HETATM   17  C   UNL     1     -39.925  52.260 -51.309  1.00  0.00     0.040 A 
HETATM   18  C   UNL     1     -39.547  49.686 -53.669  1.00  0.00     0.352 A 
HETATM   19  C   UNL     1     -40.349  53.565 -51.586  1.00  0.00     0.017 A 
ENDBRANCH   9  11
ENDBRANCH   2   5
BRANCH   1  20
HETATM   20  N   UNL     1     -42.370  59.217 -57.001  1.00  0.00    -0.183 NA
HETATM   21  C   UNL     1     -41.975  58.931 -58.199  1.00  0.00     0.152 C 
BRANCH  21  22
HETATM   22  C   UNL     1     -42.141  59.922 -59.244  1.00  0.00     0.011 A 
HETATM   23  C   UNL     1     -41.491  61.192 -59.366  1.00  0.00     0.004 A 
HETATM   24  C   UNL     1     -40.538  61.893 -58.596  1.00  0.00     0.014 A 
HETATM   25  C   UNL     1     -41.967  61.794 -60.534  1.00  0.00     0.043 A 
HETATM   26  C   UNL     1     -40.102  63.156 -59.018  1.00  0.00     0.001 A 
HETATM   27  C   UNL     1     -40.599  63.726 -60.187  1.00  0.00     0.002 A 
HETATM   28  C   UNL     1     -41.543  63.056 -60.969  1.00  0.00     0.030 A 
HETATM   29  N   UNL     1     -42.873  60.926 -61.098  1.00  0.00    -0.364 N 
HETATM   30  H   UNL     1     -43.379  61.099 -61.956  1.00  0.00     0.165 HD
HETATM   31  C   UNL     1     -42.983  59.801 -60.334  1.00  0.00     0.102 A 
ENDBRANCH  21  22
ENDBRANCH   1  20
TORSDOF 4
ENDMDL
MODEL 7
REMARK VINA RESULT:      -8.1      7.054     11.386
REMARK  4 active torsions:
REMARK  status: ('A' for Active; 'I' for Inactive)
REMARK    1  A    between atoms: C_8  and  C_9 
REMARK    2  A    between atoms: N_10  and  N_11 
REMARK       I    between atoms: N_11  and  C_12 
REMARK    3  A    between atoms: C_12  and  C_13 
REMARK    4  A    between atoms: C_17  and  C_18 
ROOT
HETATM    1  N   UNL     1     -43.550  58.624 -50.951  1.00  0.00    -0.242 N 
HETATM    2  C   UNL     1     -42.212  58.548 -51.305  1.00  0.00     0.292 C 
HETATM    3  O   UNL     1     -41.510  59.495 -51.655  1.00  0.00    -0.264 OA
HETATM    4  H   UNL     1     -44.010  57.760 -50.675  1.00  0.00     0.192 HD
ENDROOT
BRANCH   2   5
HETATM    5  C   UNL     1     -41.680  57.179 -51.215  1.00  0.00     0.148 A 
HETATM    6  N   UNL     1     -41.257  56.631 -50.058  1.00  0.00    -0.169 NA
HETATM    7  N   UNL     1     -40.856  55.395 -50.418  1.00  0.00    -0.277 N 
HETATM    8  H   UNL     1     -40.470  54.789 -49.700  1.00  0.00     0.189 HD
HETATM    9  C   UNL     1     -41.005  55.112 -51.751  1.00  0.00     0.063 A 
HETATM   10  C   UNL     1     -41.537  56.266 -52.289  1.00  0.00     0.071 A 
BRANCH   9  11
HETATM   11  C   UNL     1     -40.630  53.844 -52.379  1.00  0.00    -0.005 A 
HETATM   12  C   UNL     1     -40.232  52.739 -51.610  1.00  0.00     0.053 A 
HETATM   13  C   UNL     1     -39.910  51.567 -52.268  1.00  0.00     0.106 A 
HETATM   14  C   UNL     1     -39.968  51.460 -53.636  1.00  0.00     0.105 A 
HETATM   15  O   UNL     1     -39.517  50.409 -51.674  1.00  0.00    -0.323 OA
HETATM   16  O   UNL     1     -39.617  50.224 -54.077  1.00  0.00    -0.323 OA
HETATM   17  C   UNL     1     -40.350  52.519 -54.427  1.00  0.00     0.040 A 
HETATM   18  C   UNL     1     -39.347  49.557 -52.828  1.00  0.00     0.352 A 
HETATM   19  C   UNL     1     -40.685  53.718 -53.787  1.00  0.00     0.017 A 
ENDBRANCH   9  11
ENDBRANCH   2   5
BRANCH   1  20
HETATM   20  N   UNL     1     -44.202  59.821 -50.966  1.00  0.00    -0.183 NA
HETATM   21  C   UNL     1     -45.157  59.964 -50.105  1.00  0.00     0.152 C 
BRANCH  21  22
HETATM   22  C   UNL     1     -45.885  61.217 -50.073  1.00  0.00     0.011 A 
HETATM   23  C   UNL     1     -46.301  61.967 -48.926  1.00  0.00     0.004 A 
HETATM   24  C   UNL     1     -46.174  61.792 -47.531  1.00  0.00     0.014 A 
HETATM   25  C   UNL     1     -46.969  63.103 -49.390  1.00  0.00     0.043 A 
HETATM   26  C   UNL     1     -46.714  62.749 -46.662  1.00  0.00     0.001 A 
HETATM   27  C   UNL     1     -47.374  63.869 -47.159  1.00  0.00     0.002 A 
HETATM   28  C   UNL     1     -47.515  64.069 -48.535  1.00  0.00     0.030 A 
HETATM   29  N   UNL     1     -46.962  63.046 -50.765  1.00  0.00    -0.364 N 
HETATM   30  H   UNL     1     -47.376  63.740 -51.372  1.00  0.00     0.165 HD
HETATM   31  C   UNL     1     -46.314  61.921 -51.184  1.00  0.00     0.102 A 
ENDBRANCH  21  22
ENDBRANCH   1  20
TORSDOF 4
ENDMDL
MODEL 8
REMARK VINA RESULT:      -8.0      4.151      5.008
REMARK  4 active torsions:
REMARK  status: ('A' for Active; 'I' for Inactive)
REMARK    1  A    between atoms: C_8  and  C_9 
REMARK    2  A    between atoms: N_10  and  N_11 
REMARK       I    between atoms: N_11  and  C_12 
REMARK    3  A    between atoms: C_12  and  C_13 
REMARK    4  A    between atoms: C_17  and  C_18 
ROOT
HETATM    1  N   UNL     1     -43.708  56.461 -54.775  1.00  0.00    -0.242 N 
HETATM    2  C   UNL     1     -43.462  57.626 -55.486  1.00  0.00     0.292 C 
HETATM    3  O   UNL     1     -42.412  58.265 -55.470  1.00  0.00    -0.264 OA
HETATM    4  H   UNL     1     -44.622  56.031 -54.884  1.00  0.00     0.192 HD
ENDROOT
BRANCH   2   5
HETATM    5  C   UNL     1     -44.614  58.044 -56.301  1.00  0.00     0.148 A 
HETATM    6  N   UNL     1     -45.626  58.790 -55.813  1.00  0.00    -0.169 NA
HETATM    7  N   UNL     1     -46.452  58.937 -56.868  1.00  0.00    -0.277 N 
HETATM    8  H   UNL     1     -47.313  59.457 -56.733  1.00  0.00     0.189 HD
HETATM    9  C   UNL     1     -46.023  58.327 -58.019  1.00  0.00     0.063 A 
HETATM   10  C   UNL     1     -44.827  57.735 -57.668  1.00  0.00     0.071 A 
BRANCH   9  11
HETATM   11  C   UNL     1     -46.753  58.337 -59.287  1.00  0.00    -0.005 A 
HETATM   12  C   UNL     1     -46.844  57.188 -60.086  1.00  0.00     0.053 A 
HETATM   13  C   UNL     1     -47.566  57.263 -61.262  1.00  0.00     0.106 A 
HETATM   14  C   UNL     1     -48.188  58.421 -61.662  1.00  0.00     0.105 A 
HETATM   15  O   UNL     1     -47.757  56.244 -62.141  1.00  0.00    -0.323 OA
HETATM   16  O   UNL     1     -48.846  58.278 -62.842  1.00  0.00    -0.323 OA
HETATM   17  C   UNL     1     -48.123  59.571 -60.909  1.00  0.00     0.040 A 
HETATM   18  C   UNL     1     -48.583  56.891 -63.133  1.00  0.00     0.352 A 
HETATM   19  C   UNL     1     -47.400  59.523 -59.712  1.00  0.00     0.017 A 
ENDBRANCH   9  11
ENDBRANCH   2   5
BRANCH   1  20
HETATM   20  N   UNL     1     -42.744  55.924 -53.975  1.00  0.00    -0.183 NA
HETATM   21  C   UNL     1     -42.728  54.634 -53.884  1.00  0.00     0.152 C 
BRANCH  21  22
HETATM   22  C   UNL     1     -41.724  54.006 -53.048  1.00  0.00     0.011 A 
HETATM   23  C   UNL     1     -40.998  52.797 -53.300  1.00  0.00     0.004 A 
HETATM   24  C   UNL     1     -40.982  51.854 -54.349  1.00  0.00     0.014 A 
HETATM   25  C   UNL     1     -40.142  52.592 -52.215  1.00  0.00     0.043 A 
HETATM   26  C   UNL     1     -40.119  50.752 -54.275  1.00  0.00     0.001 A 
HETATM   27  C   UNL     1     -39.280  50.578 -53.178  1.00  0.00     0.002 A 
HETATM   28  C   UNL     1     -39.275  51.496 -52.125  1.00  0.00     0.030 A 
HETATM   29  N   UNL     1     -40.341  53.632 -51.337  1.00  0.00    -0.364 N 
HETATM   30  H   UNL     1     -39.854  53.745 -50.458  1.00  0.00     0.165 HD
HETATM   31  C   UNL     1     -41.286  54.486 -51.827  1.00  0.00     0.102 A 
ENDBRANCH  21  22
ENDBRANCH   1  20
TORSDOF 4
ENDMDL
MODEL 9
REMARK VINA RESULT:      -8.0      1.375      2.487
REMARK  4 active torsions:
REMARK  status: ('A' for Active; 'I' for Inactive)
REMARK    1  A    between atoms: C_8  and  C_9 
REMARK    2  A    between atoms: N_10  and  N_11 
REMARK       I    between atoms: N_11  and  C_12 
REMARK    3  A    between atoms: C_12  and  C_13 
REMARK    4  A    between atoms: C_17  and  C_18 
ROOT
HETATM    1  N   UNL     1     -42.082  55.444 -56.586  1.00  0.00    -0.242 N 
HETATM    2  C   UNL     1     -43.007  56.454 -56.366  1.00  0.00     0.292 C 
HETATM    3  O   UNL     1     -43.698  56.583 -55.359  1.00  0.00    -0.264 OA
HETATM    4  H   UNL     1     -41.573  55.460 -57.466  1.00  0.00     0.192 HD
ENDROOT
BRANCH   2   5
HETATM    5  C   UNL     1     -43.086  57.402 -57.489  1.00  0.00     0.148 A 
HETATM    6  N   UNL     1     -44.093  57.393 -58.386  1.00  0.00    -0.169 NA
HETATM    7  N   UNL     1     -43.780  58.399 -59.228  1.00  0.00    -0.277 N 
HETATM    8  H   UNL     1     -44.397  58.574 -60.015  1.00  0.00     0.189 HD
HETATM    9  C   UNL     1     -42.621  59.064 -58.917  1.00  0.00     0.063 A 
HETATM   10  C   UNL     1     -42.151  58.424 -57.788  1.00  0.00     0.071 A 
BRANCH   9  11
HETATM   11  C   UNL     1     -42.071  60.180 -59.688  1.00  0.00    -0.005 A 
HETATM   12  C   UNL     1     -42.308  60.302 -61.065  1.00  0.00     0.053 A 
HETATM   13  C   UNL     1     -41.773  61.391 -61.727  1.00  0.00     0.106 A 
HETATM   14  C   UNL     1     -41.026  62.343 -61.077  1.00  0.00     0.105 A 
HETATM   15  O   UNL     1     -41.915  61.661 -63.052  1.00  0.00    -0.323 OA
HETATM   16  O   UNL     1     -40.601  63.330 -61.909  1.00  0.00    -0.323 OA
HETATM   17  C   UNL     1     -40.768  62.261 -59.728  1.00  0.00     0.040 A 
HETATM   18  C   UNL     1     -41.181  62.900 -63.157  1.00  0.00     0.352 A 
HETATM   19  C   UNL     1     -41.300  61.169 -59.032  1.00  0.00     0.017 A 
ENDBRANCH   9  11
ENDBRANCH   2   5
BRANCH   1  20
HETATM   20  N   UNL     1     -41.871  54.484 -55.643  1.00  0.00    -0.183 NA
HETATM   21  C   UNL     1     -40.739  54.534 -55.018  1.00  0.00     0.152 C 
BRANCH  21  22
HETATM   22  C   UNL     1     -40.459  53.539 -54.002  1.00  0.00     0.011 A 
HETATM   23  C   UNL     1     -40.563  53.675 -52.581  1.00  0.00     0.004 A 
HETATM   24  C   UNL     1     -40.942  54.723 -51.713  1.00  0.00     0.014 A 
HETATM   25  C   UNL     1     -40.191  52.453 -52.015  1.00  0.00     0.043 A 
HETATM   26  C   UNL     1     -40.933  54.512 -50.329  1.00  0.00     0.001 A 
HETATM   27  C   UNL     1     -40.556  53.281 -49.799  1.00  0.00     0.002 A 
HETATM   28  C   UNL     1     -40.177  52.226 -50.634  1.00  0.00     0.030 A 
HETATM   29  N   UNL     1     -39.871  51.607 -53.051  1.00  0.00    -0.364 N 
HETATM   30  H   UNL     1     -39.565  50.650 -52.939  1.00  0.00     0.165 HD
HETATM   31  C   UNL     1     -40.029  52.247 -54.246  1.00  0.00     0.102 A 
ENDBRANCH  21  22
ENDBRANCH   1  20
TORSDOF 4
ENDMDL
MODEL 10
REMARK VINA RESULT:      -7.9      6.422     11.192
REMARK  4 active torsions:
REMARK  status: ('A' for Active; 'I' for Inactive)
REMARK    1  A    between atoms: C_8  and  C_9 
REMARK    2  A    between atoms: N_10  and  N_11 
REMARK       I    between atoms: N_11  and  C_12 
REMARK    3  A    between atoms: C_12  and  C_13 
REMARK    4  A    between atoms: C_17  and  C_18 
ROOT
HETATM    1  N   UNL     1     -43.484  58.627 -50.903  1.00  0.00    -0.242 N 
HETATM    2  C   UNL     1     -42.175  58.508 -51.346  1.00  0.00     0.292 C 
HETATM    3  O   UNL     1     -41.480  59.425 -51.775  1.00  0.00    -0.264 OA
HETATM    4  H   UNL     1     -43.942  57.783 -50.568  1.00  0.00     0.192 HD
ENDROOT
BRANCH   2   5
HETATM    5  C   UNL     1     -41.668  57.130 -51.246  1.00  0.00     0.148 A 
HETATM    6  N   UNL     1     -41.292  56.570 -50.078  1.00  0.00    -0.169 NA
HETATM    7  N   UNL     1     -40.898  55.329 -50.431  1.00  0.00    -0.277 N 
HETATM    8  H   UNL     1     -40.546  54.714 -49.704  1.00  0.00     0.189 HD
HETATM    9  C   UNL     1     -41.007  55.055 -51.770  1.00  0.00     0.063 A 
HETATM   10  C   UNL     1     -41.503  56.220 -52.319  1.00  0.00     0.071 A 
BRANCH   9  11
HETATM   11  C   UNL     1     -40.631  53.784 -52.392  1.00  0.00    -0.005 A 
HETATM   12  C   UNL     1     -40.227  52.686 -51.619  1.00  0.00     0.053 A 
HETATM   13  C   UNL     1     -39.904  51.511 -52.270  1.00  0.00     0.106 A 
HETATM   14  C   UNL     1     -39.968  51.395 -53.638  1.00  0.00     0.105 A 
HETATM   15  O   UNL     1     -39.504  50.357 -51.672  1.00  0.00    -0.323 OA
HETATM   16  O   UNL     1     -39.615  50.157 -54.073  1.00  0.00    -0.323 OA
HETATM   17  C   UNL     1     -40.357  52.448 -54.433  1.00  0.00     0.040 A 
HETATM   18  C   UNL     1     -39.337  49.498 -52.821  1.00  0.00     0.352 A 
HETATM   19  C   UNL     1     -40.692  53.650 -53.799  1.00  0.00     0.017 A 
ENDBRANCH   9  11
ENDBRANCH   2   5
BRANCH   1  20
HETATM   20  N   UNL     1     -44.110  59.837 -50.915  1.00  0.00    -0.183 NA
HETATM   21  C   UNL     1     -45.112  59.972 -50.108  1.00  0.00     0.152 C 
BRANCH  21  22
HETATM   22  C   UNL     1     -45.816  61.238 -50.075  1.00  0.00     0.011 A 
HETATM   23  C   UNL     1     -46.672  61.799 -51.078  1.00  0.00     0.004 A 
HETATM   24  C   UNL     1     -47.113  61.375 -52.350  1.00  0.00     0.014 A 
HETATM   25  C   UNL     1     -47.120  63.033 -50.601  1.00  0.00     0.043 A 
HETATM   26  C   UNL     1     -47.977  62.193 -53.089  1.00  0.00     0.001 A 
HETATM   27  C   UNL     1     -48.404  63.418 -52.584  1.00  0.00     0.002 A 
HETATM   28  C   UNL     1     -47.983  63.863 -51.327  1.00  0.00     0.030 A 
HETATM   29  N   UNL     1     -46.558  63.218 -49.359  1.00  0.00    -0.364 N 
HETATM   30  H   UNL     1     -46.708  64.029 -48.774  1.00  0.00     0.165 HD
HETATM   31  C   UNL     1     -45.776  62.148 -49.034  1.00  0.00     0.102 A 
ENDBRANCH  21  22
ENDBRANCH   1  20
TORSDOF 4
ENDMDL
