MODEL 1
REMARK VINA RESULT:      -8.8      0.000      0.000
REMARK  11 active torsions:
REMARK  status: ('A' for Active; 'I' for Inactive)
REMARK    1  A    between atoms: C_2  and  O_3 
REMARK    2  A    between atoms: O_3  and  C_4 
REMARK    3  A    between atoms: C_5  and  N_6 
REMARK       I    between atoms: N_6  and  C_7 
REMARK    4  A    between atoms: C_7  and  C_8 
REMARK    5  A    between atoms: C_9  and  C_10 
REMARK    6  A    between atoms: C_10  and  N_11 
REMARK    7  A    between atoms: C_24  and  N_25 
REMARK    8  A    between atoms: N_25  and  C_26 
REMARK    9  A    between atoms: C_30  and  O_31 
REMARK   10  A    between atoms: O_31  and  C_32 
REMARK   11  A    between atoms: C_32  and  C_33 
ROOT
HETATM    1  C   UNL     1     -42.064  59.680 -56.068  1.00  0.00     0.097 A 
HETATM    2  C   UNL     1     -42.318  58.320 -55.875  1.00  0.00     0.069 A 
HETATM    3  C   UNL     1     -43.005  57.908 -54.727  1.00  0.00     0.048 A 
HETATM    4  C   UNL     1     -43.510  58.817 -53.767  1.00  0.00     0.023 A 
HETATM    5  C   UNL     1     -43.246  60.188 -53.988  1.00  0.00     0.071 A 
HETATM    6  N   UNL     1     -43.658  61.155 -53.160  1.00  0.00    -0.259 NA
HETATM    7  C   UNL     1     -44.361  60.804 -52.065  1.00  0.00     0.142 A 
HETATM    8  C   UNL     1     -44.663  59.497 -51.731  1.00  0.00     0.089 A 
HETATM    9  C   UNL     1     -45.401  59.252 -50.532  1.00  0.00     0.103 C 
HETATM   10  N   UNL     1     -45.976  59.023 -49.551  1.00  0.00    -0.191 NA
HETATM   11  C   UNL     1     -44.222  58.458 -52.577  1.00  0.00     0.067 A 
HETATM   12  C   UNL     1     -42.516  60.586 -55.101  1.00  0.00     0.071 A 
ENDROOT
BRANCH  11  13
HETATM   13  N   UNL     1     -44.508  57.117 -52.207  1.00  0.00    -0.354 N 
HETATM   14  H   UNL     1     -45.469  56.831 -52.401  1.00  0.00     0.166 HD
BRANCH  13  15
HETATM   15  C   UNL     1     -43.725  56.013 -51.817  1.00  0.00     0.034 A 
HETATM   16  C   UNL     1     -42.975  56.129 -50.636  1.00  0.00     0.056 A 
HETATM   17  C   UNL     1     -42.101  55.118 -50.233  1.00  0.00     0.069 A 
HETATM   18 CL   UNL     1     -41.207  55.337 -48.774  1.00  0.00    -0.081 Cl
HETATM   19  C   UNL     1     -41.946  53.978 -51.021  1.00  0.00     0.091 A 
HETATM   20  C   UNL     1     -42.711  53.829 -52.179  1.00  0.00     0.041 A 
HETATM   21  C   UNL     1     -43.591  54.846 -52.577  1.00  0.00     0.032 A 
BRANCH  19  22
HETATM   22  O   UNL     1     -41.107  52.980 -50.606  1.00  0.00    -0.344 OA
BRANCH  22  23
HETATM   23  C   UNL     1     -39.874  52.937 -51.342  1.00  0.00     0.235 C 
BRANCH  23  24
HETATM   24  C   UNL     1     -39.820  51.767 -52.305  1.00  0.00     0.058 A 
HETATM   25  N   UNL     1     -39.549  50.548 -51.760  1.00  0.00    -0.263 NA
HETATM   26  C   UNL     1     -39.443  49.498 -52.607  1.00  0.00     0.117 A 
HETATM   27  C   UNL     1     -39.602  49.590 -53.978  1.00  0.00     0.019 A 
HETATM   28  C   UNL     1     -39.879  50.836 -54.520  1.00  0.00     0.003 A 
HETATM   29  C   UNL     1     -39.979  51.941 -53.679  1.00  0.00     0.029 A 
ENDBRANCH  23  24
ENDBRANCH  22  23
ENDBRANCH  19  22
ENDBRANCH  13  15
ENDBRANCH  11  13
BRANCH   2  30
HETATM   30  N   UNL     1     -42.073  57.308 -56.830  1.00  0.00    -0.321 N 
HETATM   31  C   UNL     1     -42.951  56.678 -57.660  1.00  0.00     0.245 C 
HETATM   32  O   UNL     1     -42.851  55.480 -57.913  1.00  0.00    -0.268 OA
HETATM   33  H   UNL     1     -41.259  56.738 -56.623  1.00  0.00     0.169 HD
BRANCH  31  34
HETATM   34  C   UNL     1     -43.793  57.570 -58.506  1.00  0.00     0.072 C 
HETATM   35  C   UNL     1     -44.906  57.051 -59.052  1.00  0.00     0.006 C 
BRANCH  35  36
HETATM   36  C   UNL     1     -45.680  57.672 -60.161  1.00  0.00     0.261 C 
BRANCH  36  37
HETATM   37  N   UNL     1     -46.072  56.620 -61.179  1.00  0.00    -0.076 N 
HETATM   38  H   UNL     1     -45.728  56.961 -62.087  1.00  0.00     0.279 HD
HETATM   39  C   UNL     1     -45.405  55.292 -60.941  1.00  0.00     0.269 C 
HETATM   40  C   UNL     1     -47.558  56.472 -61.316  1.00  0.00     0.269 C 
ENDBRANCH  36  37
ENDBRANCH  35  36
ENDBRANCH  31  34
ENDBRANCH   2  30
BRANCH   1  41
HETATM   41  O   UNL     1     -41.417  60.071 -57.210  1.00  0.00    -0.349 OA
BRANCH  41  42
HETATM   42  C   UNL     1     -41.828  61.323 -57.770  1.00  0.00     0.171 C 
HETATM   43  C   UNL     1     -42.563  61.041 -59.067  1.00  0.00     0.034 C 
ENDBRANCH  41  42
ENDBRANCH   1  41
TORSDOF 11
ENDMDL
MODEL 2
REMARK VINA RESULT:      -8.0      2.623      7.829
REMARK  11 active torsions:
REMARK  status: ('A' for Active; 'I' for Inactive)
REMARK    1  A    between atoms: C_2  and  O_3 
REMARK    2  A    between atoms: O_3  and  C_4 
REMARK    3  A    between atoms: C_5  and  N_6 
REMARK       I    between atoms: N_6  and  C_7 
REMARK    4  A    between atoms: C_7  and  C_8 
REMARK    5  A    between atoms: C_9  and  C_10 
REMARK    6  A    between atoms: C_10  and  N_11 
REMARK    7  A    between atoms: C_24  and  N_25 
REMARK    8  A    between atoms: N_25  and  C_26 
REMARK    9  A    between atoms: C_30  and  O_31 
REMARK   10  A    between atoms: O_31  and  C_32 
REMARK   11  A    between atoms: C_32  and  C_33 
ROOT
HETATM    1  C   UNL     1     -42.336  55.577 -51.587  1.00  0.00     0.097 A 
HETATM    2  C   UNL     1     -43.208  55.734 -52.667  1.00  0.00     0.069 A 
HETATM    3  C   UNL     1     -43.614  57.022 -53.038  1.00  0.00     0.048 A 
HETATM    4  C   UNL     1     -43.134  58.191 -52.401  1.00  0.00     0.023 A 
HETATM    5  C   UNL     1     -42.247  58.006 -51.316  1.00  0.00     0.071 A 
HETATM    6  N   UNL     1     -41.721  59.021 -50.621  1.00  0.00    -0.259 NA
HETATM    7  C   UNL     1     -42.052  60.279 -50.975  1.00  0.00     0.142 A 
HETATM    8  C   UNL     1     -42.924  60.585 -52.002  1.00  0.00     0.089 A 
HETATM    9  C   UNL     1     -43.208  61.960 -52.269  1.00  0.00     0.103 C 
HETATM   10  N   UNL     1     -43.477  63.067 -52.490  1.00  0.00    -0.191 NA
HETATM   11  C   UNL     1     -43.507  59.532 -52.737  1.00  0.00     0.067 A 
HETATM   12  C   UNL     1     -41.892  56.723 -50.919  1.00  0.00     0.071 A 
ENDROOT
BRANCH  11  13
HETATM   13  N   UNL     1     -44.429  59.857 -53.769  1.00  0.00    -0.354 N 
HETATM   14  H   UNL     1     -45.242  60.382 -53.444  1.00  0.00     0.166 HD
BRANCH  13  15
HETATM   15  C   UNL     1     -44.394  59.802 -55.176  1.00  0.00     0.034 A 
HETATM   16  C   UNL     1     -45.423  59.103 -55.827  1.00  0.00     0.056 A 
HETATM   17  C   UNL     1     -45.409  58.921 -57.212  1.00  0.00     0.069 A 
HETATM   18 CL   UNL     1     -46.704  58.044 -57.939  1.00  0.00    -0.081 Cl
HETATM   19  C   UNL     1     -44.347  59.420 -57.967  1.00  0.00     0.091 A 
HETATM   20  C   UNL     1     -43.336  60.150 -57.341  1.00  0.00     0.041 A 
HETATM   21  C   UNL     1     -43.358  60.333 -55.950  1.00  0.00     0.032 A 
BRANCH  19  22
HETATM   22  O   UNL     1     -44.354  59.260 -59.326  1.00  0.00    -0.344 OA
BRANCH  22  23
HETATM   23  C   UNL     1     -43.354  58.339 -59.790  1.00  0.00     0.235 C 
BRANCH  23  24
HETATM   24  C   UNL     1     -43.873  56.916 -59.863  1.00  0.00     0.058 A 
HETATM   25  N   UNL     1     -44.927  56.699 -60.697  1.00  0.00    -0.263 NA
HETATM   26  C   UNL     1     -45.440  55.447 -60.738  1.00  0.00     0.117 A 
HETATM   27  C   UNL     1     -44.954  54.386 -59.995  1.00  0.00     0.019 A 
HETATM   28  C   UNL     1     -43.878  54.620 -59.150  1.00  0.00     0.003 A 
HETATM   29  C   UNL     1     -43.336  55.900 -59.072  1.00  0.00     0.029 A 
ENDBRANCH  23  24
ENDBRANCH  22  23
ENDBRANCH  19  22
ENDBRANCH  13  15
ENDBRANCH  11  13
BRANCH   2  30
HETATM   30  N   UNL     1     -43.613  54.698 -53.538  1.00  0.00    -0.321 N 
HETATM   31  C   UNL     1     -43.043  54.284 -54.704  1.00  0.00     0.245 C 
HETATM   32  O   UNL     1     -43.725  53.928 -55.663  1.00  0.00    -0.268 OA
HETATM   33  H   UNL     1     -44.606  54.493 -53.499  1.00  0.00     0.169 HD
BRANCH  31  34
HETATM   34  C   UNL     1     -41.593  53.947 -54.631  1.00  0.00     0.072 C 
HETATM   35  C   UNL     1     -41.256  52.684 -54.320  1.00  0.00     0.006 C 
BRANCH  35  36
HETATM   36  C   UNL     1     -39.900  52.246 -53.890  1.00  0.00     0.261 C 
BRANCH  36  37
HETATM   37  N   UNL     1     -39.963  50.851 -53.302  1.00  0.00    -0.076 N 
HETATM   38  H   UNL     1     -40.963  50.617 -53.231  1.00  0.00     0.279 HD
HETATM   39  C   UNL     1     -39.341  49.808 -54.190  1.00  0.00     0.269 C 
HETATM   40  C   UNL     1     -39.413  50.785 -51.909  1.00  0.00     0.269 C 
ENDBRANCH  36  37
ENDBRANCH  35  36
ENDBRANCH  31  34
ENDBRANCH   2  30
BRANCH   1  41
HETATM   41  O   UNL     1     -41.925  54.314 -51.255  1.00  0.00    -0.349 OA
BRANCH  41  42
HETATM   42  C   UNL     1     -40.561  54.184 -50.838  1.00  0.00     0.171 C 
HETATM   43  C   UNL     1     -40.548  53.530 -49.469  1.00  0.00     0.034 C 
ENDBRANCH  41  42
ENDBRANCH   1  41
TORSDOF 11
ENDMDL
MODEL 3
REMARK VINA RESULT:      -7.8      3.276      9.066
REMARK  11 active torsions:
REMARK  status: ('A' for Active; 'I' for Inactive)
REMARK    1  A    between atoms: C_2  and  O_3 
REMARK    2  A    between atoms: O_3  and  C_4 
REMARK    3  A    between atoms: C_5  and  N_6 
REMARK       I    between atoms: N_6  and  C_7 
REMARK    4  A    between atoms: C_7  and  C_8 
REMARK    5  A    between atoms: C_9  and  C_10 
REMARK    6  A    between atoms: C_10  and  N_11 
REMARK    7  A    between atoms: C_24  and  N_25 
REMARK    8  A    between atoms: N_25  and  C_26 
REMARK    9  A    between atoms: C_30  and  O_31 
REMARK   10  A    between atoms: O_31  and  C_32 
REMARK   11  A    between atoms: C_32  and  C_33 
ROOT
HETATM    1  C   UNL     1     -41.626  53.799 -53.734  1.00  0.00     0.097 A 
HETATM    2  C   UNL     1     -42.416  54.501 -52.819  1.00  0.00     0.069 A 
HETATM    3  C   UNL     1     -43.213  55.558 -53.273  1.00  0.00     0.048 A 
HETATM    4  C   UNL     1     -43.303  55.920 -54.639  1.00  0.00     0.023 A 
HETATM    5  C   UNL     1     -42.500  55.191 -55.545  1.00  0.00     0.071 A 
HETATM    6  N   UNL     1     -42.481  55.430 -56.861  1.00  0.00    -0.259 NA
HETATM    7  C   UNL     1     -43.269  56.411 -57.345  1.00  0.00     0.142 A 
HETATM    8  C   UNL     1     -44.080  57.205 -56.558  1.00  0.00     0.089 A 
HETATM    9  C   UNL     1     -44.857  58.226 -57.188  1.00  0.00     0.103 C 
HETATM   10  N   UNL     1     -45.477  59.079 -57.671  1.00  0.00    -0.191 NA
HETATM   11  C   UNL     1     -44.102  56.986 -55.164  1.00  0.00     0.067 A 
HETATM   12  C   UNL     1     -41.670  54.179 -55.080  1.00  0.00     0.071 A 
ENDROOT
BRANCH  11  13
HETATM   13  N   UNL     1     -44.914  57.831 -54.359  1.00  0.00    -0.354 N 
HETATM   14  H   UNL     1     -45.913  57.634 -54.432  1.00  0.00     0.166 HD
BRANCH  13  15
HETATM   15  C   UNL     1     -44.656  58.751 -53.324  1.00  0.00     0.034 A 
HETATM   16  C   UNL     1     -44.063  59.975 -53.672  1.00  0.00     0.056 A 
HETATM   17  C   UNL     1     -43.689  60.900 -52.694  1.00  0.00     0.069 A 
HETATM   18 CL   UNL     1     -42.957  62.378 -53.198  1.00  0.00    -0.081 Cl
HETATM   19  C   UNL     1     -43.884  60.602 -51.346  1.00  0.00     0.091 A 
HETATM   20  C   UNL     1     -44.506  59.406 -50.984  1.00  0.00     0.041 A 
HETATM   21  C   UNL     1     -44.884  58.483 -51.970  1.00  0.00     0.032 A 
BRANCH  19  22
HETATM   22  O   UNL     1     -43.538  61.524 -50.395  1.00  0.00    -0.344 OA
BRANCH  22  23
HETATM   23  C   UNL     1     -44.628  62.381 -50.018  1.00  0.00     0.235 C 
BRANCH  23  24
HETATM   24  C   UNL     1     -44.861  62.388 -48.520  1.00  0.00     0.058 A 
HETATM   25  N   UNL     1     -45.007  63.610 -47.937  1.00  0.00    -0.263 NA
HETATM   26  C   UNL     1     -45.163  63.644 -46.593  1.00  0.00     0.117 A 
HETATM   27  C   UNL     1     -45.193  62.519 -45.789  1.00  0.00     0.019 A 
HETATM   28  C   UNL     1     -45.045  61.280 -46.395  1.00  0.00     0.003 A 
HETATM   29  C   UNL     1     -44.866  61.210 -47.774  1.00  0.00     0.029 A 
ENDBRANCH  23  24
ENDBRANCH  22  23
ENDBRANCH  19  22
ENDBRANCH  13  15
ENDBRANCH  11  13
BRANCH   2  30
HETATM   30  N   UNL     1     -42.605  54.137 -51.467  1.00  0.00    -0.321 N 
HETATM   31  C   UNL     1     -42.063  54.688 -50.345  1.00  0.00     0.245 C 
HETATM   32  O   UNL     1     -41.721  53.996 -49.389  1.00  0.00    -0.268 OA
HETATM   33  H   UNL     1     -42.860  53.163 -51.336  1.00  0.00     0.169 HD
BRANCH  31  34
HETATM   34  C   UNL     1     -42.241  56.161 -50.197  1.00  0.00     0.072 C 
HETATM   35  C   UNL     1     -41.210  56.954 -50.533  1.00  0.00     0.006 C 
BRANCH  35  36
HETATM   36  C   UNL     1     -41.083  58.389 -50.157  1.00  0.00     0.261 C 
BRANCH  36  37
HETATM   37  N   UNL     1     -40.372  59.156 -51.253  1.00  0.00    -0.076 N 
HETATM   38  H   UNL     1     -40.791  60.096 -51.261  1.00  0.00     0.279 HD
HETATM   39  C   UNL     1     -38.903  59.344 -50.985  1.00  0.00     0.269 C 
HETATM   40  C   UNL     1     -40.611  58.574 -52.615  1.00  0.00     0.269 C 
ENDBRANCH  36  37
ENDBRANCH  35  36
ENDBRANCH  31  34
ENDBRANCH   2  30
BRANCH   1  41
HETATM   41  O   UNL     1     -40.874  52.749 -53.280  1.00  0.00    -0.349 OA
BRANCH  41  42
HETATM   42  C   UNL     1     -40.294  51.908 -54.283  1.00  0.00     0.171 C 
HETATM   43  C   UNL     1     -39.599  50.753 -53.585  1.00  0.00     0.034 C 
ENDBRANCH  41  42
ENDBRANCH   1  41
TORSDOF 11
ENDMDL
MODEL 4
REMARK VINA RESULT:      -7.7      1.647      2.010
REMARK  11 active torsions:
REMARK  status: ('A' for Active; 'I' for Inactive)
REMARK    1  A    between atoms: C_2  and  O_3 
REMARK    2  A    between atoms: O_3  and  C_4 
REMARK    3  A    between atoms: C_5  and  N_6 
REMARK       I    between atoms: N_6  and  C_7 
REMARK    4  A    between atoms: C_7  and  C_8 
REMARK    5  A    between atoms: C_9  and  C_10 
REMARK    6  A    between atoms: C_10  and  N_11 
REMARK    7  A    between atoms: C_24  and  N_25 
REMARK    8  A    between atoms: N_25  and  C_26 
REMARK    9  A    between atoms: C_30  and  O_31 
REMARK   10  A    between atoms: O_31  and  C_32 
REMARK   11  A    between atoms: C_32  and  C_33 
ROOT
HETATM    1  C   UNL     1     -42.362  60.127 -57.871  1.00  0.00     0.097 A 
HETATM    2  C   UNL     1     -42.559  58.780 -57.558  1.00  0.00     0.069 A 
HETATM    3  C   UNL     1     -43.277  58.444 -56.404  1.00  0.00     0.048 A 
HETATM    4  C   UNL     1     -43.869  59.412 -55.558  1.00  0.00     0.023 A 
HETATM    5  C   UNL     1     -43.661  60.768 -55.901  1.00  0.00     0.071 A 
HETATM    6  N   UNL     1     -44.156  61.786 -55.188  1.00  0.00    -0.259 NA
HETATM    7  C   UNL     1     -44.891  61.504 -54.094  1.00  0.00     0.142 A 
HETATM    8  C   UNL     1     -45.145  60.221 -53.647  1.00  0.00     0.089 A 
HETATM    9  C   UNL     1     -45.924  60.052 -52.461  1.00  0.00     0.103 C 
HETATM   10  N   UNL     1     -46.532  59.888 -51.487  1.00  0.00    -0.191 NA
HETATM   11  C   UNL     1     -44.616  59.131 -54.370  1.00  0.00     0.067 A 
HETATM   12  C   UNL     1     -42.901  61.095 -57.017  1.00  0.00     0.071 A 
ENDROOT
BRANCH  11  13
HETATM   13  N   UNL     1     -44.854  57.817 -53.883  1.00  0.00    -0.354 N 
HETATM   14  H   UNL     1     -45.802  57.480 -54.053  1.00  0.00     0.166 HD
BRANCH  13  15
HETATM   15  C   UNL     1     -44.032  56.783 -53.395  1.00  0.00     0.034 A 
HETATM   16  C   UNL     1     -43.270  57.042 -52.244  1.00  0.00     0.056 A 
HETATM   17  C   UNL     1     -42.360  56.103 -51.754  1.00  0.00     0.069 A 
HETATM   18 CL   UNL     1     -41.453  56.497 -50.341  1.00  0.00    -0.081 Cl
HETATM   19  C   UNL     1     -42.181  54.893 -52.425  1.00  0.00     0.091 A 
HETATM   20  C   UNL     1     -42.957  54.603 -53.548  1.00  0.00     0.041 A 
HETATM   21  C   UNL     1     -43.873  55.548 -54.033  1.00  0.00     0.032 A 
BRANCH  19  22
HETATM   22  O   UNL     1     -41.306  53.968 -51.923  1.00  0.00    -0.344 OA
BRANCH  22  23
HETATM   23  C   UNL     1     -40.285  53.592 -52.861  1.00  0.00     0.235 C 
BRANCH  23  24
HETATM   24  C   UNL     1     -40.062  52.092 -52.897  1.00  0.00     0.058 A 
HETATM   25  N   UNL     1     -39.734  51.501 -51.716  1.00  0.00    -0.263 NA
HETATM   26  C   UNL     1     -39.479  50.172 -51.735  1.00  0.00     0.117 A 
HETATM   27  C   UNL     1     -39.541  49.388 -52.873  1.00  0.00     0.019 A 
HETATM   28  C   UNL     1     -39.878  50.002 -54.070  1.00  0.00     0.003 A 
HETATM   29  C   UNL     1     -40.131  51.371 -54.089  1.00  0.00     0.029 A 
ENDBRANCH  23  24
ENDBRANCH  22  23
ENDBRANCH  19  22
ENDBRANCH  13  15
ENDBRANCH  11  13
BRANCH   2  30
HETATM   30  N   UNL     1     -42.222  57.696 -58.399  1.00  0.00    -0.321 N 
HETATM   31  C   UNL     1     -43.044  56.829 -59.055  1.00  0.00     0.245 C 
HETATM   32  O   UNL     1     -42.765  55.637 -59.166  1.00  0.00    -0.268 OA
HETATM   33  H   UNL     1     -41.311  57.293 -58.204  1.00  0.00     0.169 HD
BRANCH  31  34
HETATM   34  C   UNL     1     -44.085  57.453 -59.919  1.00  0.00     0.072 C 
HETATM   35  C   UNL     1     -45.328  57.568 -59.421  1.00  0.00     0.006 C 
BRANCH  35  36
HETATM   36  C   UNL     1     -46.545  57.856 -60.229  1.00  0.00     0.261 C 
BRANCH  36  37
HETATM   37  N   UNL     1     -47.240  59.095 -59.702  1.00  0.00    -0.076 N 
HETATM   38  H   UNL     1     -48.188  59.082 -60.101  1.00  0.00     0.279 HD
HETATM   39  C   UNL     1     -47.405  59.088 -58.206  1.00  0.00     0.269 C 
HETATM   40  C   UNL     1     -46.598  60.365 -60.177  1.00  0.00     0.269 C 
ENDBRANCH  36  37
ENDBRANCH  35  36
ENDBRANCH  31  34
ENDBRANCH   2  30
BRANCH   1  41
HETATM   41  O   UNL     1     -41.684  60.440 -59.019  1.00  0.00    -0.349 OA
BRANCH  41  42
HETATM   42  C   UNL     1     -41.566  61.835 -59.321  1.00  0.00     0.171 C 
HETATM   43  C   UNL     1     -40.158  62.277 -58.966  1.00  0.00     0.034 C 
ENDBRANCH  41  42
ENDBRANCH   1  41
TORSDOF 11
ENDMDL
MODEL 5
REMARK VINA RESULT:      -7.5      2.649      6.657
REMARK  11 active torsions:
REMARK  status: ('A' for Active; 'I' for Inactive)
REMARK    1  A    between atoms: C_2  and  O_3 
REMARK    2  A    between atoms: O_3  and  C_4 
REMARK    3  A    between atoms: C_5  and  N_6 
REMARK       I    between atoms: N_6  and  C_7 
REMARK    4  A    between atoms: C_7  and  C_8 
REMARK    5  A    between atoms: C_9  and  C_10 
REMARK    6  A    between atoms: C_10  and  N_11 
REMARK    7  A    between atoms: C_24  and  N_25 
REMARK    8  A    between atoms: N_25  and  C_26 
REMARK    9  A    between atoms: C_30  and  O_31 
REMARK   10  A    between atoms: O_31  and  C_32 
REMARK   11  A    between atoms: C_32  and  C_33 
ROOT
HETATM    1  C   UNL     1     -42.937  56.266 -58.967  1.00  0.00     0.097 A 
HETATM    2  C   UNL     1     -43.038  56.552 -57.604  1.00  0.00     0.069 A 
HETATM    3  C   UNL     1     -42.703  57.832 -57.147  1.00  0.00     0.048 A 
HETATM    4  C   UNL     1     -42.317  58.881 -58.015  1.00  0.00     0.023 A 
HETATM    5  C   UNL     1     -42.229  58.568 -59.391  1.00  0.00     0.071 A 
HETATM    6  N   UNL     1     -41.871  59.460 -60.322  1.00  0.00    -0.259 NA
HETATM    7  C   UNL     1     -41.584  60.716 -59.928  1.00  0.00     0.142 A 
HETATM    8  C   UNL     1     -41.613  61.136 -58.613  1.00  0.00     0.089 A 
HETATM    9  C   UNL     1     -41.270  62.492 -58.320  1.00  0.00     0.103 C 
HETATM   10  N   UNL     1     -40.970  63.580 -58.052  1.00  0.00    -0.191 NA
HETATM   11  C   UNL     1     -41.968  60.210 -57.610  1.00  0.00     0.067 A 
HETATM   12  C   UNL     1     -42.510  57.281 -59.831  1.00  0.00     0.071 A 
ENDROOT
BRANCH  11  13
HETATM   13  N   UNL     1     -41.961  60.642 -56.256  1.00  0.00    -0.354 N 
HETATM   14  H   UNL     1     -41.814  61.646 -56.145  1.00  0.00     0.166 HD
BRANCH  13  15
HETATM   15  C   UNL     1     -42.310  60.045 -55.029  1.00  0.00     0.034 A 
HETATM   16  C   UNL     1     -43.614  60.250 -54.551  1.00  0.00     0.056 A 
HETATM   17  C   UNL     1     -44.008  59.773 -53.299  1.00  0.00     0.069 A 
HETATM   18 CL   UNL     1     -45.625  60.072 -52.776  1.00  0.00    -0.081 Cl
HETATM   19  C   UNL     1     -43.091  59.100 -52.492  1.00  0.00     0.091 A 
HETATM   20  C   UNL     1     -41.801  58.854 -52.967  1.00  0.00     0.041 A 
HETATM   21  C   UNL     1     -41.413  59.332 -54.227  1.00  0.00     0.032 A 
BRANCH  19  22
HETATM   22  O   UNL     1     -43.492  58.613 -51.278  1.00  0.00    -0.344 OA
BRANCH  22  23
HETATM   23  C   UNL     1     -44.129  57.329 -51.367  1.00  0.00     0.235 C 
BRANCH  23  24
HETATM   24  C   UNL     1     -43.176  56.191 -51.061  1.00  0.00     0.058 A 
HETATM   25  N   UNL     1     -42.135  56.481 -50.232  1.00  0.00    -0.263 NA
HETATM   26  C   UNL     1     -41.241  55.495 -49.987  1.00  0.00     0.117 A 
HETATM   27  C   UNL     1     -41.329  54.221 -50.518  1.00  0.00     0.019 A 
HETATM   28  C   UNL     1     -42.394  53.937 -51.360  1.00  0.00     0.003 A 
HETATM   29  C   UNL     1     -43.324  54.934 -51.646  1.00  0.00     0.029 A 
ENDBRANCH  23  24
ENDBRANCH  22  23
ENDBRANCH  19  22
ENDBRANCH  13  15
ENDBRANCH  11  13
BRANCH   2  30
HETATM   30  N   UNL     1     -43.605  55.693 -56.636  1.00  0.00    -0.321 N 
HETATM   31  C   UNL     1     -43.091  54.555 -56.091  1.00  0.00     0.245 C 
HETATM   32  O   UNL     1     -43.802  53.584 -55.841  1.00  0.00    -0.268 OA
HETATM   33  H   UNL     1     -44.620  55.706 -56.620  1.00  0.00     0.169 HD
BRANCH  31  34
HETATM   34  C   UNL     1     -41.731  54.680 -55.494  1.00  0.00     0.072 C 
HETATM   35  C   UNL     1     -41.135  53.561 -55.051  1.00  0.00     0.006 C 
BRANCH  35  36
HETATM   36  C   UNL     1     -39.949  53.527 -54.152  1.00  0.00     0.261 C 
BRANCH  36  37
HETATM   37  N   UNL     1     -39.599  52.096 -53.801  1.00  0.00    -0.076 N 
HETATM   38  H   UNL     1     -38.692  51.906 -54.249  1.00  0.00     0.279 HD
HETATM   39  C   UNL     1     -39.400  51.882 -52.325  1.00  0.00     0.269 C 
HETATM   40  C   UNL     1     -40.570  51.106 -54.373  1.00  0.00     0.269 C 
ENDBRANCH  36  37
ENDBRANCH  35  36
ENDBRANCH  31  34
ENDBRANCH   2  30
BRANCH   1  41
HETATM   41  O   UNL     1     -43.296  55.018 -59.403  1.00  0.00    -0.349 OA
BRANCH  41  42
HETATM   42  C   UNL     1     -44.687  54.824 -59.684  1.00  0.00     0.171 C 
HETATM   43  C   UNL     1     -44.896  55.003 -61.176  1.00  0.00     0.034 C 
ENDBRANCH  41  42
ENDBRANCH   1  41
TORSDOF 11
ENDMDL
MODEL 6
REMARK VINA RESULT:      -7.1      3.300      8.970
REMARK  11 active torsions:
REMARK  status: ('A' for Active; 'I' for Inactive)
REMARK    1  A    between atoms: C_2  and  O_3 
REMARK    2  A    between atoms: O_3  and  C_4 
REMARK    3  A    between atoms: C_5  and  N_6 
REMARK       I    between atoms: N_6  and  C_7 
REMARK    4  A    between atoms: C_7  and  C_8 
REMARK    5  A    between atoms: C_9  and  C_10 
REMARK    6  A    between atoms: C_10  and  N_11 
REMARK    7  A    between atoms: C_24  and  N_25 
REMARK    8  A    between atoms: N_25  and  C_26 
REMARK    9  A    between atoms: C_30  and  O_31 
REMARK   10  A    between atoms: O_31  and  C_32 
REMARK   11  A    between atoms: C_32  and  C_33 
ROOT
HETATM    1  C   UNL     1     -42.871  54.964 -54.569  1.00  0.00     0.097 A 
HETATM    2  C   UNL     1     -43.518  55.989 -53.874  1.00  0.00     0.069 A 
HETATM    3  C   UNL     1     -43.797  57.192 -54.534  1.00  0.00     0.048 A 
HETATM    4  C   UNL     1     -43.505  57.403 -55.903  1.00  0.00     0.023 A 
HETATM    5  C   UNL     1     -42.857  56.348 -56.585  1.00  0.00     0.071 A 
HETATM    6  N   UNL     1     -42.516  56.413 -57.877  1.00  0.00    -0.259 NA
HETATM    7  C   UNL     1     -42.809  57.538 -58.560  1.00  0.00     0.142 A 
HETATM    8  C   UNL     1     -43.420  58.642 -57.999  1.00  0.00     0.089 A 
HETATM    9  C   UNL     1     -43.661  59.784 -58.825  1.00  0.00     0.103 C 
HETATM   10  N   UNL     1     -43.844  60.732 -59.466  1.00  0.00    -0.191 NA
HETATM   11  C   UNL     1     -43.771  58.606 -56.633  1.00  0.00     0.067 A 
HETATM   12  C   UNL     1     -42.533  55.178 -55.910  1.00  0.00     0.071 A 
ENDROOT
BRANCH  11  13
HETATM   13  N   UNL     1     -44.367  59.760 -56.056  1.00  0.00    -0.354 N 
HETATM   14  H   UNL     1     -45.084  60.190 -56.643  1.00  0.00     0.166 HD
BRANCH  13  15
HETATM   15  C   UNL     1     -44.349  60.344 -54.775  1.00  0.00     0.034 A 
HETATM   16  C   UNL     1     -45.562  60.411 -54.071  1.00  0.00     0.056 A 
HETATM   17  C   UNL     1     -45.645  61.059 -52.836  1.00  0.00     0.069 A 
HETATM   18 CL   UNL     1     -47.172  61.107 -52.036  1.00  0.00    -0.081 Cl
HETATM   19  C   UNL     1     -44.516  61.673 -52.296  1.00  0.00     0.091 A 
HETATM   20  C   UNL     1     -43.293  61.583 -52.964  1.00  0.00     0.041 A 
HETATM   21  C   UNL     1     -43.214  60.927 -54.201  1.00  0.00     0.032 A 
BRANCH  19  22
HETATM   22  O   UNL     1     -44.600  62.283 -51.074  1.00  0.00    -0.344 OA
BRANCH  22  23
HETATM   23  C   UNL     1     -44.272  61.409 -49.983  1.00  0.00     0.235 C 
BRANCH  23  24
HETATM   24  C   UNL     1     -45.138  61.660 -48.764  1.00  0.00     0.058 A 
HETATM   25  N   UNL     1     -46.278  62.376 -48.970  1.00  0.00    -0.263 NA
HETATM   26  C   UNL     1     -47.040  62.658 -47.888  1.00  0.00     0.117 A 
HETATM   27  C   UNL     1     -46.734  62.257 -46.600  1.00  0.00     0.019 A 
HETATM   28  C   UNL     1     -45.570  61.527 -46.403  1.00  0.00     0.003 A 
HETATM   29  C   UNL     1     -44.755  61.233 -47.493  1.00  0.00     0.029 A 
ENDBRANCH  23  24
ENDBRANCH  22  23
ENDBRANCH  19  22
ENDBRANCH  13  15
ENDBRANCH  11  13
BRANCH   2  30
HETATM   30  N   UNL     1     -44.065  55.868 -52.578  1.00  0.00    -0.321 N 
HETATM   31  C   UNL     1     -43.426  55.685 -51.388  1.00  0.00     0.245 C 
HETATM   32  O   UNL     1     -43.893  54.961 -50.512  1.00  0.00    -0.268 OA
HETATM   33  H   UNL     1     -45.016  55.512 -52.565  1.00  0.00     0.169 HD
BRANCH  31  34
HETATM   34  C   UNL     1     -42.350  56.668 -51.075  1.00  0.00     0.072 C 
HETATM   35  C   UNL     1     -42.679  57.971 -51.047  1.00  0.00     0.006 C 
BRANCH  35  36
HETATM   36  C   UNL     1     -41.704  59.095 -51.075  1.00  0.00     0.261 C 
BRANCH  36  37
HETATM   37  N   UNL     1     -40.372  58.619 -51.617  1.00  0.00    -0.076 N 
HETATM   38  H   UNL     1     -40.316  57.616 -51.395  1.00  0.00     0.279 HD
HETATM   39  C   UNL     1     -40.270  58.733 -53.114  1.00  0.00     0.269 C 
HETATM   40  C   UNL     1     -39.205  59.270 -50.937  1.00  0.00     0.269 C 
ENDBRANCH  36  37
ENDBRANCH  35  36
ENDBRANCH  31  34
ENDBRANCH   2  30
BRANCH   1  41
HETATM   41  O   UNL     1     -42.630  53.783 -53.919  1.00  0.00    -0.349 OA
BRANCH  41  42
HETATM   42  C   UNL     1     -41.286  53.292 -53.979  1.00  0.00     0.171 C 
HETATM   43  C   UNL     1     -40.630  53.554 -52.635  1.00  0.00     0.034 C 
ENDBRANCH  41  42
ENDBRANCH   1  41
TORSDOF 11
ENDMDL
MODEL 7
REMARK VINA RESULT:      -7.0      3.388      8.455
REMARK  11 active torsions:
REMARK  status: ('A' for Active; 'I' for Inactive)
REMARK    1  A    between atoms: C_2  and  O_3 
REMARK    2  A    between atoms: O_3  and  C_4 
REMARK    3  A    between atoms: C_5  and  N_6 
REMARK       I    between atoms: N_6  and  C_7 
REMARK    4  A    between atoms: C_7  and  C_8 
REMARK    5  A    between atoms: C_9  and  C_10 
REMARK    6  A    between atoms: C_10  and  N_11 
REMARK    7  A    between atoms: C_24  and  N_25 
REMARK    8  A    between atoms: N_25  and  C_26 
REMARK    9  A    between atoms: C_30  and  O_31 
REMARK   10  A    between atoms: O_31  and  C_32 
REMARK   11  A    between atoms: C_32  and  C_33 
ROOT
HETATM    1  C   UNL     1     -42.698  56.825 -59.209  1.00  0.00     0.097 A 
HETATM    2  C   UNL     1     -42.867  57.047 -57.840  1.00  0.00     0.069 A 
HETATM    3  C   UNL     1     -42.638  58.328 -57.322  1.00  0.00     0.048 A 
HETATM    4  C   UNL     1     -42.295  59.435 -58.134  1.00  0.00     0.023 A 
HETATM    5  C   UNL     1     -42.136  59.185 -59.517  1.00  0.00     0.071 A 
HETATM    6  N   UNL     1     -41.808  60.136 -60.399  1.00  0.00    -0.259 NA
HETATM    7  C   UNL     1     -41.623  61.392 -59.946  1.00  0.00     0.142 A 
HETATM    8  C   UNL     1     -41.728  61.755 -58.618  1.00  0.00     0.089 A 
HETATM    9  C   UNL     1     -41.490  63.118 -58.260  1.00  0.00     0.103 C 
HETATM   10  N   UNL     1     -41.275  64.212 -57.940  1.00  0.00    -0.191 NA
HETATM   11  C   UNL     1     -42.053  60.766 -57.665  1.00  0.00     0.067 A 
HETATM   12  C   UNL     1     -42.312  57.900 -60.016  1.00  0.00     0.071 A 
ENDROOT
BRANCH  11  13
HETATM   13  N   UNL     1     -42.124  61.142 -56.297  1.00  0.00    -0.354 N 
HETATM   14  H   UNL     1     -41.278  61.595 -55.949  1.00  0.00     0.166 HD
BRANCH  13  15
HETATM   15  C   UNL     1     -43.163  61.223 -55.349  1.00  0.00     0.034 A 
HETATM   16  C   UNL     1     -43.263  60.192 -54.401  1.00  0.00     0.056 A 
HETATM   17  C   UNL     1     -44.320  60.149 -53.490  1.00  0.00     0.069 A 
HETATM   18 CL   UNL     1     -44.379  58.846 -52.361  1.00  0.00    -0.081 Cl
HETATM   19  C   UNL     1     -45.311  61.130 -53.528  1.00  0.00     0.091 A 
HETATM   20  C   UNL     1     -45.208  62.182 -54.439  1.00  0.00     0.041 A 
HETATM   21  C   UNL     1     -44.141  62.223 -55.349  1.00  0.00     0.032 A 
BRANCH  19  22
HETATM   22  O   UNL     1     -46.330  61.094 -52.615  1.00  0.00    -0.344 OA
BRANCH  22  23
HETATM   23  C   UNL     1     -46.421  62.291 -51.826  1.00  0.00     0.235 C 
BRANCH  23  24
HETATM   24  C   UNL     1     -45.793  62.126 -50.456  1.00  0.00     0.058 A 
HETATM   25  N   UNL     1     -46.060  60.960 -49.805  1.00  0.00    -0.263 NA
HETATM   26  C   UNL     1     -45.553  60.813 -48.559  1.00  0.00     0.117 A 
HETATM   27  C   UNL     1     -44.780  61.766 -47.920  1.00  0.00     0.019 A 
HETATM   28  C   UNL     1     -44.515  62.949 -48.594  1.00  0.00     0.003 A 
HETATM   29  C   UNL     1     -45.034  63.140 -49.871  1.00  0.00     0.029 A 
ENDBRANCH  23  24
ENDBRANCH  22  23
ENDBRANCH  19  22
ENDBRANCH  13  15
ENDBRANCH  11  13
BRANCH   2  30
HETATM   30  N   UNL     1     -43.407  56.113 -56.929  1.00  0.00    -0.321 N 
HETATM   31  C   UNL     1     -42.762  55.200 -56.150  1.00  0.00     0.245 C 
HETATM   32  O   UNL     1     -43.227  54.081 -55.951  1.00  0.00    -0.268 OA
HETATM   33  H   UNL     1     -44.360  55.835 -57.142  1.00  0.00     0.169 HD
BRANCH  31  34
HETATM   34  C   UNL     1     -41.677  55.742 -55.283  1.00  0.00     0.072 C 
HETATM   35  C   UNL     1     -42.033  56.356 -54.142  1.00  0.00     0.006 C 
BRANCH  35  36
HETATM   36  C   UNL     1     -41.140  57.225 -53.329  1.00  0.00     0.261 C 
BRANCH  36  37
HETATM   37  N   UNL     1     -41.194  56.813 -51.872  1.00  0.00    -0.076 N 
HETATM   38  H   UNL     1     -40.343  56.259 -51.701  1.00  0.00     0.279 HD
HETATM   39  C   UNL     1     -41.140  57.981 -50.925  1.00  0.00     0.269 C 
HETATM   40  C   UNL     1     -42.354  55.913 -51.568  1.00  0.00     0.269 C 
ENDBRANCH  36  37
ENDBRANCH  35  36
ENDBRANCH  31  34
ENDBRANCH   2  30
BRANCH   1  41
HETATM   41  O   UNL     1     -42.954  55.574 -59.706  1.00  0.00    -0.349 OA
BRANCH  41  42
HETATM   42  C   UNL     1     -44.251  55.378 -60.281  1.00  0.00     0.171 C 
HETATM   43  C   UNL     1     -44.811  54.073 -59.744  1.00  0.00     0.034 C 
ENDBRANCH  41  42
ENDBRANCH   1  41
TORSDOF 11
ENDMDL
MODEL 8
REMARK VINA RESULT:      -7.0      2.360      3.288
REMARK  11 active torsions:
REMARK  status: ('A' for Active; 'I' for Inactive)
REMARK    1  A    between atoms: C_2  and  O_3 
REMARK    2  A    between atoms: O_3  and  C_4 
REMARK    3  A    between atoms: C_5  and  N_6 
REMARK       I    between atoms: N_6  and  C_7 
REMARK    4  A    between atoms: C_7  and  C_8 
REMARK    5  A    between atoms: C_9  and  C_10 
REMARK    6  A    between atoms: C_10  and  N_11 
REMARK    7  A    between atoms: C_24  and  N_25 
REMARK    8  A    between atoms: N_25  and  C_26 
REMARK    9  A    between atoms: C_30  and  O_31 
REMARK   10  A    between atoms: O_31  and  C_32 
REMARK   11  A    between atoms: C_32  and  C_33 
ROOT
HETATM    1  C   UNL     1     -44.921  62.908 -56.385  1.00  0.00     0.097 A 
HETATM    2  C   UNL     1     -43.716  62.269 -56.079  1.00  0.00     0.069 A 
HETATM    3  C   UNL     1     -43.608  61.550 -54.882  1.00  0.00     0.048 A 
HETATM    4  C   UNL     1     -44.689  61.389 -53.983  1.00  0.00     0.023 A 
HETATM    5  C   UNL     1     -45.898  62.040 -54.318  1.00  0.00     0.071 A 
HETATM    6  N   UNL     1     -46.997  61.978 -53.557  1.00  0.00    -0.259 NA
HETATM    7  C   UNL     1     -46.948  61.259 -52.419  1.00  0.00     0.142 A 
HETATM    8  C   UNL     1     -45.819  60.598 -51.975  1.00  0.00     0.089 A 
HETATM    9  C   UNL     1     -45.888  59.882 -50.739  1.00  0.00     0.103 C 
HETATM   10  N   UNL     1     -45.909  59.316 -49.727  1.00  0.00    -0.191 NA
HETATM   11  C   UNL     1     -44.642  60.664 -52.749  1.00  0.00     0.067 A 
HETATM   12  C   UNL     1     -45.982  62.796 -55.481  1.00  0.00     0.071 A 
ENDROOT
BRANCH  11  13
HETATM   13  N   UNL     1     -43.476  60.010 -52.266  1.00  0.00    -0.354 N 
HETATM   14  H   UNL     1     -43.053  60.466 -51.456  1.00  0.00     0.166 HD
BRANCH  13  15
HETATM   15  C   UNL     1     -42.872  58.762 -52.513  1.00  0.00     0.034 A 
HETATM   16  C   UNL     1     -42.266  58.104 -51.431  1.00  0.00     0.056 A 
HETATM   17  C   UNL     1     -41.564  56.911 -51.613  1.00  0.00     0.069 A 
HETATM   18 CL   UNL     1     -40.839  56.166 -50.236  1.00  0.00    -0.081 Cl
HETATM   19  C   UNL     1     -41.438  56.366 -52.891  1.00  0.00     0.091 A 
HETATM   20  C   UNL     1     -42.066  56.987 -53.972  1.00  0.00     0.041 A 
HETATM   21  C   UNL     1     -42.773  58.183 -53.783  1.00  0.00     0.032 A 
BRANCH  19  22
HETATM   22  O   UNL     1     -40.770  55.183 -53.056  1.00  0.00    -0.344 OA
BRANCH  22  23
HETATM   23  C   UNL     1     -41.633  54.036 -52.998  1.00  0.00     0.235 C 
BRANCH  23  24
HETATM   24  C   UNL     1     -40.866  52.733 -53.116  1.00  0.00     0.058 A 
HETATM   25  N   UNL     1     -40.152  52.352 -52.022  1.00  0.00    -0.263 NA
HETATM   26  C   UNL     1     -39.417  51.220 -52.122  1.00  0.00     0.117 A 
HETATM   27  C   UNL     1     -39.359  50.432 -53.258  1.00  0.00     0.019 A 
HETATM   28  C   UNL     1     -40.093  50.831 -54.366  1.00  0.00     0.003 A 
HETATM   29  C   UNL     1     -40.847  52.000 -54.302  1.00  0.00     0.029 A 
ENDBRANCH  23  24
ENDBRANCH  22  23
ENDBRANCH  19  22
ENDBRANCH  13  15
ENDBRANCH  11  13
BRANCH   2  30
HETATM   30  N   UNL     1     -42.617  62.151 -56.958  1.00  0.00    -0.321 N 
HETATM   31  C   UNL     1     -42.010  61.026 -57.430  1.00  0.00     0.245 C 
HETATM   32  O   UNL     1     -40.792  60.967 -57.580  1.00  0.00    -0.268 OA
HETATM   33  H   UNL     1     -41.990  62.950 -56.940  1.00  0.00     0.169 HD
BRANCH  31  34
HETATM   34  C   UNL     1     -42.910  60.031 -58.081  1.00  0.00     0.072 C 
HETATM   35  C   UNL     1     -43.149  58.881 -57.429  1.00  0.00     0.006 C 
BRANCH  35  36
HETATM   36  C   UNL     1     -43.741  57.661 -58.043  1.00  0.00     0.261 C 
BRANCH  36  37
HETATM   37  N   UNL     1     -45.200  57.535 -57.656  1.00  0.00    -0.076 N 
HETATM   38  H   UNL     1     -45.368  56.532 -57.499  1.00  0.00     0.279 HD
HETATM   39  C   UNL     1     -45.529  58.230 -56.362  1.00  0.00     0.269 C 
HETATM   40  C   UNL     1     -46.129  57.954 -58.755  1.00  0.00     0.269 C 
ENDBRANCH  36  37
ENDBRANCH  35  36
ENDBRANCH  31  34
ENDBRANCH   2  30
BRANCH   1  41
HETATM   41  O   UNL     1     -45.021  63.582 -57.573  1.00  0.00    -0.349 OA
BRANCH  41  42
HETATM   42  C   UNL     1     -46.089  63.180 -58.438  1.00  0.00     0.171 C 
HETATM   43  C   UNL     1     -45.722  63.579 -59.856  1.00  0.00     0.034 C 
ENDBRANCH  41  42
ENDBRANCH   1  41
TORSDOF 11
ENDMDL
MODEL 9
REMARK VINA RESULT:      -7.0      3.354      7.377
REMARK  11 active torsions:
REMARK  status: ('A' for Active; 'I' for Inactive)
REMARK    1  A    between atoms: C_2  and  O_3 
REMARK    2  A    between atoms: O_3  and  C_4 
REMARK    3  A    between atoms: C_5  and  N_6 
REMARK       I    between atoms: N_6  and  C_7 
REMARK    4  A    between atoms: C_7  and  C_8 
REMARK    5  A    between atoms: C_9  and  C_10 
REMARK    6  A    between atoms: C_10  and  N_11 
REMARK    7  A    between atoms: C_24  and  N_25 
REMARK    8  A    between atoms: N_25  and  C_26 
REMARK    9  A    between atoms: C_30  and  O_31 
REMARK   10  A    between atoms: O_31  and  C_32 
REMARK   11  A    between atoms: C_32  and  C_33 
ROOT
HETATM    1  C   UNL     1     -41.895  56.595 -51.978  1.00  0.00     0.097 A 
HETATM    2  C   UNL     1     -41.426  56.943 -53.248  1.00  0.00     0.069 A 
HETATM    3  C   UNL     1     -41.650  58.239 -53.727  1.00  0.00     0.048 A 
HETATM    4  C   UNL     1     -42.284  59.244 -52.958  1.00  0.00     0.023 A 
HETATM    5  C   UNL     1     -42.743  58.869 -51.675  1.00  0.00     0.071 A 
HETATM    6  N   UNL     1     -43.364  59.714 -50.844  1.00  0.00    -0.259 NA
HETATM    7  C   UNL     1     -43.558  60.984 -51.251  1.00  0.00     0.142 A 
HETATM    8  C   UNL     1     -43.175  61.463 -52.489  1.00  0.00     0.089 A 
HETATM    9  C   UNL     1     -43.454  62.827 -52.810  1.00  0.00     0.103 C 
HETATM   10  N   UNL     1     -43.692  63.923 -53.106  1.00  0.00    -0.191 NA
HETATM   11  C   UNL     1     -42.536  60.586 -53.391  1.00  0.00     0.067 A 
HETATM   12  C   UNL     1     -42.566  57.565 -51.227  1.00  0.00     0.071 A 
ENDROOT
BRANCH  11  13
HETATM   13  N   UNL     1     -42.177  61.079 -54.674  1.00  0.00    -0.354 N 
HETATM   14  H   UNL     1     -41.320  61.633 -54.678  1.00  0.00     0.166 HD
BRANCH  13  15
HETATM   15  C   UNL     1     -42.614  60.819 -55.988  1.00  0.00     0.034 A 
HETATM   16  C   UNL     1     -43.884  61.289 -56.359  1.00  0.00     0.056 A 
HETATM   17  C   UNL     1     -44.427  60.990 -57.610  1.00  0.00     0.069 A 
HETATM   18 CL   UNL     1     -45.997  61.596 -57.990  1.00  0.00    -0.081 Cl
HETATM   19  C   UNL     1     -43.714  60.193 -58.505  1.00  0.00     0.091 A 
HETATM   20  C   UNL     1     -42.434  59.749 -58.168  1.00  0.00     0.041 A 
HETATM   21  C   UNL     1     -41.892  60.056 -56.911  1.00  0.00     0.032 A 
BRANCH  19  22
HETATM   22  O   UNL     1     -44.243  59.926 -59.739  1.00  0.00    -0.344 OA
BRANCH  22  23
HETATM   23  C   UNL     1     -43.509  58.926 -60.462  1.00  0.00     0.235 C 
BRANCH  23  24
HETATM   24  C   UNL     1     -44.137  57.551 -60.341  1.00  0.00     0.058 A 
HETATM   25  N   UNL     1     -45.497  57.512 -60.280  1.00  0.00    -0.263 NA
HETATM   26  C   UNL     1     -46.078  56.301 -60.118  1.00  0.00     0.117 A 
HETATM   27  C   UNL     1     -45.376  55.113 -60.021  1.00  0.00     0.019 A 
HETATM   28  C   UNL     1     -43.991  55.166 -60.085  1.00  0.00     0.003 A 
HETATM   29  C   UNL     1     -43.361  56.398 -60.236  1.00  0.00     0.029 A 
ENDBRANCH  23  24
ENDBRANCH  22  23
ENDBRANCH  19  22
ENDBRANCH  13  15
ENDBRANCH  11  13
BRANCH   2  30
HETATM   30  N   UNL     1     -40.595  56.134 -54.054  1.00  0.00    -0.321 N 
HETATM   31  C   UNL     1     -40.897  54.983 -54.716  1.00  0.00     0.245 C 
HETATM   32  O   UNL     1     -40.095  54.055 -54.793  1.00  0.00    -0.268 OA
HETATM   33  H   UNL     1     -39.609  56.199 -53.821  1.00  0.00     0.169 HD
BRANCH  31  34
HETATM   34  C   UNL     1     -42.076  55.051 -55.626  1.00  0.00     0.072 C 
HETATM   35  C   UNL     1     -42.451  56.260 -56.077  1.00  0.00     0.006 C 
BRANCH  35  36
HETATM   36  C   UNL     1     -43.763  56.562 -56.713  1.00  0.00     0.261 C 
BRANCH  36  37
HETATM   37  N   UNL     1     -44.562  57.508 -55.841  1.00  0.00    -0.076 N 
HETATM   38  H   UNL     1     -43.961  58.330 -55.687  1.00  0.00     0.279 HD
HETATM   39  C   UNL     1     -45.812  58.013 -56.510  1.00  0.00     0.269 C 
HETATM   40  C   UNL     1     -44.856  56.938 -54.486  1.00  0.00     0.269 C 
ENDBRANCH  36  37
ENDBRANCH  35  36
ENDBRANCH  31  34
ENDBRANCH   2  30
BRANCH   1  41
HETATM   41  O   UNL     1     -41.643  55.333 -51.511  1.00  0.00    -0.349 OA
BRANCH  41  42
HETATM   42  C   UNL     1     -40.638  55.224 -50.496  1.00  0.00     0.171 C 
HETATM   43  C   UNL     1     -41.297  54.695 -49.236  1.00  0.00     0.034 C 
ENDBRANCH  41  42
ENDBRANCH   1  41
TORSDOF 11
ENDMDL
MODEL 10
REMARK VINA RESULT:      -7.0      2.950      9.058
REMARK  11 active torsions:
REMARK  status: ('A' for Active; 'I' for Inactive)
REMARK    1  A    between atoms: C_2  and  O_3 
REMARK    2  A    between atoms: O_3  and  C_4 
REMARK    3  A    between atoms: C_5  and  N_6 
REMARK       I    between atoms: N_6  and  C_7 
REMARK    4  A    between atoms: C_7  and  C_8 
REMARK    5  A    between atoms: C_9  and  C_10 
REMARK    6  A    between atoms: C_10  and  N_11 
REMARK    7  A    between atoms: C_24  and  N_25 
REMARK    8  A    between atoms: N_25  and  C_26 
REMARK    9  A    between atoms: C_30  and  O_31 
REMARK   10  A    between atoms: O_31  and  C_32 
REMARK   11  A    between atoms: C_32  and  C_33 
ROOT
HETATM    1  C   UNL     1     -42.389  55.685 -51.311  1.00  0.00     0.097 A 
HETATM    2  C   UNL     1     -42.978  55.701 -52.578  1.00  0.00     0.069 A 
HETATM    3  C   UNL     1     -43.257  56.931 -53.187  1.00  0.00     0.048 A 
HETATM    4  C   UNL     1     -42.915  58.173 -52.601  1.00  0.00     0.023 A 
HETATM    5  C   UNL     1     -42.314  58.130 -51.322  1.00  0.00     0.071 A 
HETATM    6  N   UNL     1     -41.946  59.226 -50.650  1.00  0.00    -0.259 NA
HETATM    7  C   UNL     1     -42.156  60.429 -51.222  1.00  0.00     0.142 A 
HETATM    8  C   UNL     1     -42.754  60.600 -52.455  1.00  0.00     0.089 A 
HETATM    9  C   UNL     1     -42.938  61.929 -52.947  1.00  0.00     0.103 C 
HETATM   10  N   UNL     1     -43.123  62.998 -53.357  1.00  0.00    -0.191 NA
HETATM   11  C   UNL     1     -43.169  59.460 -53.175  1.00  0.00     0.067 A 
HETATM   12  C   UNL     1     -42.090  56.908 -50.700  1.00  0.00     0.071 A 
ENDROOT
BRANCH  11  13
HETATM   13  N   UNL     1     -43.815  59.648 -54.427  1.00  0.00    -0.354 N 
HETATM   14  H   UNL     1     -44.771  59.998 -54.350  1.00  0.00     0.166 HD
BRANCH  13  15
HETATM   15  C   UNL     1     -43.382  59.659 -55.768  1.00  0.00     0.034 A 
HETATM   16  C   UNL     1     -43.712  58.555 -56.569  1.00  0.00     0.056 A 
HETATM   17  C   UNL     1     -43.240  58.446 -57.879  1.00  0.00     0.069 A 
HETATM   18 CL   UNL     1     -43.681  57.055 -58.798  1.00  0.00    -0.081 Cl
HETATM   19  C   UNL     1     -42.407  59.435 -58.402  1.00  0.00     0.091 A 
HETATM   20  C   UNL     1     -42.100  60.559 -57.632  1.00  0.00     0.041 A 
HETATM   21  C   UNL     1     -42.581  60.665 -56.319  1.00  0.00     0.032 A 
BRANCH  19  22
HETATM   22  O   UNL     1     -41.970  59.334 -59.694  1.00  0.00    -0.344 OA
BRANCH  22  23
HETATM   23  C   UNL     1     -42.825  60.006 -60.633  1.00  0.00     0.235 C 
BRANCH  23  24
HETATM   24  C   UNL     1     -42.089  61.076 -61.417  1.00  0.00     0.058 A 
HETATM   25  N   UNL     1     -42.473  61.248 -62.712  1.00  0.00    -0.263 NA
HETATM   26  C   UNL     1     -41.795  62.160 -63.446  1.00  0.00     0.117 A 
HETATM   27  C   UNL     1     -40.751  62.925 -62.958  1.00  0.00     0.019 A 
HETATM   28  C   UNL     1     -40.371  62.742 -61.636  1.00  0.00     0.003 A 
HETATM   29  C   UNL     1     -41.037  61.800 -60.857  1.00  0.00     0.029 A 
ENDBRANCH  23  24
ENDBRANCH  22  23
ENDBRANCH  19  22
ENDBRANCH  13  15
ENDBRANCH  11  13
BRANCH   2  30
HETATM   30  N   UNL     1     -43.187  54.563 -53.387  1.00  0.00    -0.321 N 
HETATM   31  C   UNL     1     -42.348  53.986 -54.293  1.00  0.00     0.245 C 
HETATM   32  O   UNL     1     -42.766  53.514 -55.347  1.00  0.00    -0.268 OA
HETATM   33  H   UNL     1     -44.164  54.381 -53.595  1.00  0.00     0.169 HD
BRANCH  31  34
HETATM   34  C   UNL     1     -40.989  53.640 -53.786  1.00  0.00     0.072 C 
HETATM   35  C   UNL     1     -40.589  52.361 -53.884  1.00  0.00     0.006 C 
BRANCH  35  36
HETATM   36  C   UNL     1     -39.431  51.774 -53.157  1.00  0.00     0.261 C 
BRANCH  36  37
HETATM   37  N   UNL     1     -39.349  50.284 -53.422  1.00  0.00    -0.076 N 
HETATM   38  H   UNL     1     -38.367  50.091 -53.662  1.00  0.00     0.279 HD
HETATM   39  C   UNL     1     -39.663  49.451 -52.209  1.00  0.00     0.269 C 
HETATM   40  C   UNL     1     -40.167  49.861 -54.605  1.00  0.00     0.269 C 
ENDBRANCH  36  37
ENDBRANCH  35  36
ENDBRANCH  31  34
ENDBRANCH   2  30
BRANCH   1  41
HETATM   41  O   UNL     1     -42.095  54.476 -50.740  1.00  0.00    -0.349 OA
BRANCH  41  42
HETATM   42  C   UNL     1     -41.260  54.513 -49.577  1.00  0.00     0.171 C 
HETATM   43  C   UNL     1     -39.906  53.938 -49.952  1.00  0.00     0.034 C 
ENDBRANCH  41  42
ENDBRANCH   1  41
TORSDOF 11
ENDMDL
