MODEL 1
REMARK VINA RESULT:      -9.1      0.000      0.000
REMARK  4 active torsions:
REMARK  status: ('A' for Active; 'I' for Inactive)
REMARK    1  A    between atoms: O_2  and  C_3 
REMARK    2  A    between atoms: C_4  and  C_5 
REMARK    3  A    between atoms: C_9  and  C_10 
REMARK       I    between atoms: C_10  and  N_11 
REMARK    4  A    between atoms: N_11  and  N_12 
ROOT
HETATM    1  C   UNL     1     -42.689  55.966 -55.490  1.00  0.00     0.289 C 
HETATM    2  N   UNL     1     -42.259  56.704 -56.585  1.00  0.00    -0.241 N 
HETATM    3  O   UNL     1     -43.755  56.134 -54.906  1.00  0.00    -0.264 OA
HETATM    4  H   UNL     1     -41.290  56.633 -56.858  1.00  0.00     0.192 HD
ENDROOT
BRANCH   1   5
HETATM    5  C   UNL     1     -41.760  54.944 -55.076  1.00  0.00     0.121 A 
HETATM    6  N   UNL     1     -40.439  54.987 -55.426  1.00  0.00    -0.272 N 
HETATM    7  N   UNL     1     -39.712  53.962 -54.954  1.00  0.00    -0.174 NA
HETATM    8  H   UNL     1     -39.981  55.699 -55.990  1.00  0.00     0.189 HD
HETATM    9  C   UNL     1     -40.579  53.229 -54.245  1.00  0.00     0.092 A 
HETATM   10  C   UNL     1     -41.879  53.804 -54.306  1.00  0.00     0.071 A 
BRANCH   9  11
HETATM   11  C   UNL     1     -40.202  52.004 -53.539  1.00  0.00     0.028 A 
HETATM   12  C   UNL     1     -39.858  51.964 -52.178  1.00  0.00     0.080 A 
HETATM   13  C   UNL     1     -39.473  50.757 -51.581  1.00  0.00     0.037 A 
HETATM   14  C   UNL     1     -39.472  49.571 -52.316  1.00  0.00     0.003 A 
HETATM   15  C   UNL     1     -39.834  49.590 -53.658  1.00  0.00     0.001 A 
HETATM   16  C   UNL     1     -40.190  50.796 -54.266  1.00  0.00     0.017 A 
BRANCH  12  17
HETATM   17  O   UNL     1     -39.819  53.052 -51.344  1.00  0.00    -0.355 OA
HETATM   18  C   UNL     1     -40.421  52.801 -50.077  1.00  0.00     0.210 C 
ENDBRANCH  12  17
ENDBRANCH   9  11
ENDBRANCH   1   5
BRANCH   2  19
HETATM   19  N   UNL     1     -42.964  57.784 -57.020  1.00  0.00    -0.165 NA
HETATM   20  C   UNL     1     -43.714  57.660 -58.070  1.00  0.00     0.157 A 
HETATM   21  C   UNL     1     -44.373  58.889 -58.732  1.00  0.00     0.277 A 
HETATM   22  C   UNL     1     -44.112  56.508 -58.895  1.00  0.00     0.027 A 
HETATM   23  O   UNL     1     -44.342  60.031 -58.335  1.00  0.00    -0.266 OA
HETATM   24  N   UNL     1     -44.975  58.409 -59.872  1.00  0.00    -0.321 N 
HETATM   25  C   UNL     1     -44.835  57.030 -59.969  1.00  0.00     0.048 A 
HETATM   26  H   UNL     1     -45.488  59.004 -60.506  1.00  0.00     0.169 HD
HETATM   27  C   UNL     1     -45.359  56.226 -60.960  1.00  0.00     0.030 A 
HETATM   28  C   UNL     1     -45.158  54.848 -60.847  1.00  0.00     0.002 A 
HETATM   29  C   UNL     1     -44.466  54.310 -59.748  1.00  0.00     0.001 A 
HETATM   30  C   UNL     1     -43.944  55.142 -58.750  1.00  0.00     0.016 A 
ENDBRANCH   2  19
TORSDOF 4
ENDMDL
MODEL 2
REMARK VINA RESULT:      -8.8      2.596      8.571
REMARK  4 active torsions:
REMARK  status: ('A' for Active; 'I' for Inactive)
REMARK    1  A    between atoms: O_2  and  C_3 
REMARK    2  A    between atoms: C_4  and  C_5 
REMARK    3  A    between atoms: C_9  and  C_10 
REMARK       I    between atoms: C_10  and  N_11 
REMARK    4  A    between atoms: N_11  and  N_12 
ROOT
HETATM    1  C   UNL     1     -43.119  56.362 -52.317  1.00  0.00     0.289 C 
HETATM    2  N   UNL     1     -41.783  56.270 -51.950  1.00  0.00    -0.241 N 
HETATM    3  O   UNL     1     -44.068  56.222 -51.553  1.00  0.00    -0.264 OA
HETATM    4  H   UNL     1     -41.092  56.191 -52.680  1.00  0.00     0.192 HD
ENDROOT
BRANCH   1   5
HETATM    5  C   UNL     1     -43.319  56.652 -53.716  1.00  0.00     0.121 A 
HETATM    6  N   UNL     1     -44.482  57.201 -54.180  1.00  0.00    -0.272 N 
HETATM    7  N   UNL     1     -44.500  57.410 -55.505  1.00  0.00    -0.174 NA
HETATM    8  H   UNL     1     -45.299  57.452 -53.629  1.00  0.00     0.189 HD
HETATM    9  C   UNL     1     -43.296  57.009 -55.929  1.00  0.00     0.092 A 
HETATM   10  C   UNL     1     -42.527  56.514 -54.839  1.00  0.00     0.071 A 
BRANCH   9  11
HETATM   11  C   UNL     1     -42.879  57.070 -57.331  1.00  0.00     0.028 A 
HETATM   12  C   UNL     1     -42.235  58.180 -57.904  1.00  0.00     0.080 A 
HETATM   13  C   UNL     1     -41.898  58.177 -59.263  1.00  0.00     0.037 A 
HETATM   14  C   UNL     1     -42.154  57.058 -60.056  1.00  0.00     0.003 A 
HETATM   15  C   UNL     1     -42.768  55.943 -59.497  1.00  0.00     0.001 A 
HETATM   16  C   UNL     1     -43.133  55.950 -58.148  1.00  0.00     0.017 A 
BRANCH  12  17
HETATM   17  O   UNL     1     -41.925  59.339 -57.240  1.00  0.00    -0.355 OA
HETATM   18  C   UNL     1     -41.551  60.397 -58.119  1.00  0.00     0.210 C 
ENDBRANCH  12  17
ENDBRANCH   9  11
ENDBRANCH   1   5
BRANCH   2  19
HETATM   19  N   UNL     1     -41.429  55.881 -50.695  1.00  0.00    -0.165 NA
HETATM   20  C   UNL     1     -40.952  54.689 -50.521  1.00  0.00     0.157 A 
HETATM   21  C   UNL     1     -40.725  54.117 -49.105  1.00  0.00     0.277 A 
HETATM   22  C   UNL     1     -40.557  53.615 -51.447  1.00  0.00     0.027 A 
HETATM   23  O   UNL     1     -40.875  54.697 -48.055  1.00  0.00    -0.266 OA
HETATM   24  N   UNL     1     -40.342  52.809 -49.298  1.00  0.00    -0.321 N 
HETATM   25  C   UNL     1     -40.235  52.513 -50.651  1.00  0.00     0.048 A 
HETATM   26  H   UNL     1     -40.126  52.189 -48.531  1.00  0.00     0.169 HD
HETATM   27  C   UNL     1     -39.827  51.311 -51.193  1.00  0.00     0.030 A 
HETATM   28  C   UNL     1     -39.726  51.232 -52.584  1.00  0.00     0.002 A 
HETATM   29  C   UNL     1     -40.009  52.347 -53.391  1.00  0.00     0.001 A 
HETATM   30  C   UNL     1     -40.418  53.560 -52.823  1.00  0.00     0.016 A 
ENDBRANCH   2  19
TORSDOF 4
ENDMDL
MODEL 3
REMARK VINA RESULT:      -8.7      2.206      8.473
REMARK  4 active torsions:
REMARK  status: ('A' for Active; 'I' for Inactive)
REMARK    1  A    between atoms: O_2  and  C_3 
REMARK    2  A    between atoms: C_4  and  C_5 
REMARK    3  A    between atoms: C_9  and  C_10 
REMARK       I    between atoms: C_10  and  N_11 
REMARK    4  A    between atoms: N_11  and  N_12 
ROOT
HETATM    1  C   UNL     1     -42.853  55.105 -52.897  1.00  0.00     0.289 C 
HETATM    2  N   UNL     1     -41.551  55.307 -52.459  1.00  0.00    -0.241 N 
HETATM    3  O   UNL     1     -43.716  54.496 -52.274  1.00  0.00    -0.264 OA
HETATM    4  H   UNL     1     -40.867  55.632 -53.126  1.00  0.00     0.192 HD
ENDROOT
BRANCH   1   5
HETATM    5  C   UNL     1     -43.130  55.689 -54.187  1.00  0.00     0.121 A 
HETATM    6  N   UNL     1     -44.320  56.305 -54.459  1.00  0.00    -0.272 N 
HETATM    7  N   UNL     1     -44.410  56.798 -55.703  1.00  0.00    -0.174 NA
HETATM    8  H   UNL     1     -45.107  56.413 -53.825  1.00  0.00     0.189 HD
HETATM    9  C   UNL     1     -43.228  56.522 -56.266  1.00  0.00     0.092 A 
HETATM   10  C   UNL     1     -42.398  55.815 -55.352  1.00  0.00     0.071 A 
BRANCH   9  11
HETATM   11  C   UNL     1     -42.888  56.896 -57.639  1.00  0.00     0.028 A 
HETATM   12  C   UNL     1     -43.206  56.112 -58.762  1.00  0.00     0.080 A 
HETATM   13  C   UNL     1     -42.813  56.521 -60.042  1.00  0.00     0.037 A 
HETATM   14  C   UNL     1     -42.144  57.730 -60.228  1.00  0.00     0.003 A 
HETATM   15  C   UNL     1     -41.844  58.528 -59.129  1.00  0.00     0.001 A 
HETATM   16  C   UNL     1     -42.206  58.112 -57.846  1.00  0.00     0.017 A 
BRANCH  12  17
HETATM   17  O   UNL     1     -43.859  54.908 -58.720  1.00  0.00    -0.355 OA
HETATM   18  C   UNL     1     -44.452  54.556 -59.967  1.00  0.00     0.210 C 
ENDBRANCH  12  17
ENDBRANCH   9  11
ENDBRANCH   1   5
BRANCH   2  19
HETATM   19  N   UNL     1     -41.096  54.715 -51.321  1.00  0.00    -0.165 NA
HETATM   20  C   UNL     1     -40.635  53.506 -51.386  1.00  0.00     0.157 A 
HETATM   21  C   UNL     1     -40.298  52.708 -50.109  1.00  0.00     0.277 A 
HETATM   22  C   UNL     1     -40.350  52.594 -52.507  1.00  0.00     0.027 A 
HETATM   23  O   UNL     1     -40.341  53.110 -48.969  1.00  0.00    -0.266 OA
HETATM   24  N   UNL     1     -39.966  51.445 -50.545  1.00  0.00    -0.321 N 
HETATM   25  C   UNL     1     -39.986  51.374 -51.932  1.00  0.00     0.048 A 
HETATM   26  H   UNL     1     -39.698  50.706 -49.912  1.00  0.00     0.169 HD
HETATM   27  C   UNL     1     -39.658  50.273 -52.696  1.00  0.00     0.030 A 
HETATM   28  C   UNL     1     -39.682  50.421 -54.085  1.00  0.00     0.002 A 
HETATM   29  C   UNL     1     -40.008  51.656 -54.672  1.00  0.00     0.001 A 
HETATM   30  C   UNL     1     -40.335  52.764 -53.880  1.00  0.00     0.016 A 
ENDBRANCH   2  19
TORSDOF 4
ENDMDL
MODEL 4
REMARK VINA RESULT:      -8.6      2.062      8.457
REMARK  4 active torsions:
REMARK  status: ('A' for Active; 'I' for Inactive)
REMARK    1  A    between atoms: O_2  and  C_3 
REMARK    2  A    between atoms: C_4  and  C_5 
REMARK    3  A    between atoms: C_9  and  C_10 
REMARK       I    between atoms: C_10  and  N_11 
REMARK    4  A    between atoms: N_11  and  N_12 
ROOT
HETATM    1  C   UNL     1     -41.659  57.128 -54.032  1.00  0.00     0.289 C 
HETATM    2  N   UNL     1     -42.126  56.052 -53.288  1.00  0.00    -0.241 N 
HETATM    3  O   UNL     1     -40.788  57.909 -53.665  1.00  0.00    -0.264 OA
HETATM    4  H   UNL     1     -42.980  55.603 -53.583  1.00  0.00     0.192 HD
ENDROOT
BRANCH   1   5
HETATM    5  C   UNL     1     -42.294  57.264 -55.320  1.00  0.00     0.121 A 
HETATM    6  N   UNL     1     -42.240  58.430 -56.031  1.00  0.00    -0.272 N 
HETATM    7  N   UNL     1     -42.879  58.383 -57.210  1.00  0.00    -0.174 NA
HETATM    8  H   UNL     1     -41.779  59.292 -55.752  1.00  0.00     0.189 HD
HETATM    9  C   UNL     1     -43.350  57.134 -57.294  1.00  0.00     0.092 A 
HETATM   10  C   UNL     1     -43.015  56.400 -56.121  1.00  0.00     0.071 A 
BRANCH   9  11
HETATM   11  C   UNL     1     -44.114  56.640 -58.440  1.00  0.00     0.028 A 
HETATM   12  C   UNL     1     -45.296  57.241 -58.906  1.00  0.00     0.080 A 
HETATM   13  C   UNL     1     -45.990  56.687 -59.988  1.00  0.00     0.037 A 
HETATM   14  C   UNL     1     -45.497  55.562 -60.648  1.00  0.00     0.003 A 
HETATM   15  C   UNL     1     -44.316  54.971 -60.214  1.00  0.00     0.001 A 
HETATM   16  C   UNL     1     -43.633  55.501 -59.117  1.00  0.00     0.017 A 
BRANCH  12  17
HETATM   17  O   UNL     1     -45.887  58.347 -58.351  1.00  0.00    -0.355 OA
HETATM   18  C   UNL     1     -47.129  58.051 -57.718  1.00  0.00     0.210 C 
ENDBRANCH  12  17
ENDBRANCH   9  11
ENDBRANCH   1   5
BRANCH   2  19
HETATM   19  N   UNL     1     -41.718  55.860 -52.004  1.00  0.00    -0.165 NA
HETATM   20  C   UNL     1     -41.119  54.753 -51.697  1.00  0.00     0.157 A 
HETATM   21  C   UNL     1     -40.817  54.388 -50.227  1.00  0.00     0.277 A 
HETATM   22  C   UNL     1     -40.628  53.617 -52.494  1.00  0.00     0.027 A 
HETATM   23  O   UNL     1     -41.013  55.077 -49.253  1.00  0.00    -0.266 OA
HETATM   24  N   UNL     1     -40.305  53.111 -50.267  1.00  0.00    -0.321 N 
HETATM   25  C   UNL     1     -40.185  52.661 -51.576  1.00  0.00     0.048 A 
HETATM   26  H   UNL     1     -40.016  52.616 -49.436  1.00  0.00     0.169 HD
HETATM   27  C   UNL     1     -39.663  51.448 -51.976  1.00  0.00     0.030 A 
HETATM   28  C   UNL     1     -39.572  51.205 -53.349  1.00  0.00     0.002 A 
HETATM   29  C   UNL     1     -39.978  52.177 -54.280  1.00  0.00     0.001 A 
HETATM   30  C   UNL     1     -40.501  53.405 -53.855  1.00  0.00     0.016 A 
ENDBRANCH   2  19
TORSDOF 4
ENDMDL
MODEL 5
REMARK VINA RESULT:      -8.3      2.379      8.636
REMARK  4 active torsions:
REMARK  status: ('A' for Active; 'I' for Inactive)
REMARK    1  A    between atoms: O_2  and  C_3 
REMARK    2  A    between atoms: C_4  and  C_5 
REMARK    3  A    between atoms: C_9  and  C_10 
REMARK       I    between atoms: C_10  and  N_11 
REMARK    4  A    between atoms: N_11  and  N_12 
ROOT
HETATM    1  C   UNL     1     -41.569  57.312 -53.345  1.00  0.00     0.289 C 
HETATM    2  N   UNL     1     -42.052  56.181 -52.701  1.00  0.00    -0.241 N 
HETATM    3  O   UNL     1     -40.621  57.988 -52.958  1.00  0.00    -0.264 OA
HETATM    4  H   UNL     1     -42.954  55.823 -52.977  1.00  0.00     0.192 HD
ENDROOT
BRANCH   1   5
HETATM    5  C   UNL     1     -42.285  57.645 -54.551  1.00  0.00     0.121 A 
HETATM    6  N   UNL     1     -41.971  58.748 -55.296  1.00  0.00    -0.272 N 
HETATM    7  N   UNL     1     -42.732  58.907 -56.389  1.00  0.00    -0.174 NA
HETATM    8  H   UNL     1     -41.241  59.428 -55.097  1.00  0.00     0.189 HD
HETATM    9  C   UNL     1     -43.563  57.859 -56.381  1.00  0.00     0.092 A 
HETATM   10  C   UNL     1     -43.324  57.047 -55.237  1.00  0.00     0.071 A 
BRANCH   9  11
HETATM   11  C   UNL     1     -44.574  57.629 -57.414  1.00  0.00     0.028 A 
HETATM   12  C   UNL     1     -44.327  56.920 -58.602  1.00  0.00     0.080 A 
HETATM   13  C   UNL     1     -45.338  56.774 -59.560  1.00  0.00     0.037 A 
HETATM   14  C   UNL     1     -46.614  57.287 -59.330  1.00  0.00     0.003 A 
HETATM   15  C   UNL     1     -46.880  57.970 -58.149  1.00  0.00     0.001 A 
HETATM   16  C   UNL     1     -45.869  58.145 -57.202  1.00  0.00     0.017 A 
BRANCH  12  17
HETATM   17  O   UNL     1     -43.123  56.366 -58.950  1.00  0.00    -0.355 OA
HETATM   18  C   UNL     1     -42.439  57.112 -59.954  1.00  0.00     0.210 C 
ENDBRANCH  12  17
ENDBRANCH   9  11
ENDBRANCH   1   5
BRANCH   2  19
HETATM   19  N   UNL     1     -41.565  55.806 -51.486  1.00  0.00    -0.165 NA
HETATM   20  C   UNL     1     -40.983  54.653 -51.375  1.00  0.00     0.157 A 
HETATM   21  C   UNL     1     -40.595  54.084 -49.993  1.00  0.00     0.277 A 
HETATM   22  C   UNL     1     -40.582  53.626 -52.350  1.00  0.00     0.027 A 
HETATM   23  O   UNL     1     -40.703  54.637 -48.923  1.00  0.00    -0.266 OA
HETATM   24  N   UNL     1     -40.127  52.813 -50.241  1.00  0.00    -0.321 N 
HETATM   25  C   UNL     1     -40.110  52.544 -51.604  1.00  0.00     0.048 A 
HETATM   26  H   UNL     1     -39.800  52.203 -49.507  1.00  0.00     0.169 HD
HETATM   27  C   UNL     1     -39.655  51.386 -52.200  1.00  0.00     0.030 A 
HETATM   28  C   UNL     1     -39.664  51.332 -53.596  1.00  0.00     0.002 A 
HETATM   29  C   UNL     1     -40.100  52.431 -54.356  1.00  0.00     0.001 A 
HETATM   30  C   UNL     1     -40.555  53.600 -53.734  1.00  0.00     0.016 A 
ENDBRANCH   2  19
TORSDOF 4
ENDMDL
MODEL 6
REMARK VINA RESULT:      -8.3      2.499      3.012
REMARK  4 active torsions:
REMARK  status: ('A' for Active; 'I' for Inactive)
REMARK    1  A    between atoms: O_2  and  C_3 
REMARK    2  A    between atoms: C_4  and  C_5 
REMARK    3  A    between atoms: C_9  and  C_10 
REMARK       I    between atoms: C_10  and  N_11 
REMARK    4  A    between atoms: N_11  and  N_12 
ROOT
HETATM    1  C   UNL     1     -41.482  58.537 -54.125  1.00  0.00     0.289 C 
HETATM    2  N   UNL     1     -42.432  58.834 -55.093  1.00  0.00    -0.241 N 
HETATM    3  O   UNL     1     -40.686  59.342 -53.653  1.00  0.00    -0.264 OA
HETATM    4  H   UNL     1     -42.890  58.068 -55.563  1.00  0.00     0.192 HD
ENDROOT
BRANCH   1   5
HETATM    5  C   UNL     1     -41.502  57.161 -53.694  1.00  0.00     0.121 A 
HETATM    6  N   UNL     1     -42.541  56.649 -52.966  1.00  0.00    -0.272 N 
HETATM    7  N   UNL     1     -42.403  55.352 -52.652  1.00  0.00    -0.174 NA
HETATM    8  H   UNL     1     -43.370  57.147 -52.656  1.00  0.00     0.189 HD
HETATM    9  C   UNL     1     -41.245  54.986 -53.213  1.00  0.00     0.092 A 
HETATM   10  C   UNL     1     -40.640  56.096 -53.868  1.00  0.00     0.071 A 
BRANCH   9  11
HETATM   11  C   UNL     1     -40.704  53.629 -53.125  1.00  0.00     0.028 A 
HETATM   12  C   UNL     1     -40.055  53.122 -51.986  1.00  0.00     0.080 A 
HETATM   13  C   UNL     1     -39.532  51.823 -51.992  1.00  0.00     0.037 A 
HETATM   14  C   UNL     1     -39.688  50.999 -53.106  1.00  0.00     0.003 A 
HETATM   15  C   UNL     1     -40.349  51.479 -54.231  1.00  0.00     0.001 A 
HETATM   16  C   UNL     1     -40.847  52.784 -54.244  1.00  0.00     0.017 A 
BRANCH  12  17
HETATM   17  O   UNL     1     -39.837  53.822 -50.828  1.00  0.00    -0.355 OA
HETATM   18  C   UNL     1     -40.554  53.292 -49.716  1.00  0.00     0.210 C 
ENDBRANCH  12  17
ENDBRANCH   9  11
ENDBRANCH   1   5
BRANCH   2  19
HETATM   19  N   UNL     1     -42.461  60.056 -55.693  1.00  0.00    -0.165 NA
HETATM   20  C   UNL     1     -42.366  60.122 -56.984  1.00  0.00     0.157 A 
HETATM   21  C   UNL     1     -42.186  61.475 -57.704  1.00  0.00     0.277 A 
HETATM   22  C   UNL     1     -42.358  59.104 -58.047  1.00  0.00     0.027 A 
HETATM   23  O   UNL     1     -42.192  62.573 -57.199  1.00  0.00    -0.266 OA
HETATM   24  N   UNL     1     -41.994  61.158 -59.030  1.00  0.00    -0.321 N 
HETATM   25  C   UNL     1     -42.100  59.789 -59.238  1.00  0.00     0.048 A 
HETATM   26  H   UNL     1     -41.849  61.861 -59.740  1.00  0.00     0.169 HD
HETATM   27  C   UNL     1     -42.010  59.139 -60.452  1.00  0.00     0.030 A 
HETATM   28  C   UNL     1     -42.205  57.756 -60.460  1.00  0.00     0.002 A 
HETATM   29  C   UNL     1     -42.505  57.065 -59.273  1.00  0.00     0.001 A 
HETATM   30  C   UNL     1     -42.596  57.741 -58.051  1.00  0.00     0.016 A 
ENDBRANCH   2  19
TORSDOF 4
ENDMDL
MODEL 7
REMARK VINA RESULT:      -8.2      2.174      2.487
REMARK  4 active torsions:
REMARK  status: ('A' for Active; 'I' for Inactive)
REMARK    1  A    between atoms: O_2  and  C_3 
REMARK    2  A    between atoms: C_4  and  C_5 
REMARK    3  A    between atoms: C_9  and  C_10 
REMARK       I    between atoms: C_10  and  N_11 
REMARK    4  A    between atoms: N_11  and  N_12 
ROOT
HETATM    1  C   UNL     1     -44.512  57.304 -53.976  1.00  0.00     0.289 C 
HETATM    2  N   UNL     1     -44.986  57.077 -55.262  1.00  0.00    -0.241 N 
HETATM    3  O   UNL     1     -44.713  58.323 -53.324  1.00  0.00    -0.264 OA
HETATM    4  H   UNL     1     -44.595  56.309 -55.786  1.00  0.00     0.192 HD
ENDROOT
BRANCH   1   5
HETATM    5  C   UNL     1     -43.741  56.209 -53.440  1.00  0.00     0.121 A 
HETATM    6  N   UNL     1     -43.935  55.746 -52.168  1.00  0.00    -0.272 N 
HETATM    7  N   UNL     1     -43.138  54.721 -51.830  1.00  0.00    -0.174 NA
HETATM    8  H   UNL     1     -44.601  56.100 -51.487  1.00  0.00     0.189 HD
HETATM    9  C   UNL     1     -42.409  54.481 -52.926  1.00  0.00     0.092 A 
HETATM   10  C   UNL     1     -42.748  55.401 -53.957  1.00  0.00     0.071 A 
BRANCH   9  11
HETATM   11  C   UNL     1     -41.402  53.422 -53.003  1.00  0.00     0.028 A 
HETATM   12  C   UNL     1     -40.484  53.144 -51.976  1.00  0.00     0.080 A 
HETATM   13  C   UNL     1     -39.526  52.136 -52.139  1.00  0.00     0.037 A 
HETATM   14  C   UNL     1     -39.497  51.364 -53.300  1.00  0.00     0.003 A 
HETATM   15  C   UNL     1     -40.415  51.611 -54.315  1.00  0.00     0.001 A 
HETATM   16  C   UNL     1     -41.355  52.634 -54.171  1.00  0.00     0.017 A 
BRANCH  12  17
HETATM   17  O   UNL     1     -40.404  53.823 -50.788  1.00  0.00    -0.355 OA
HETATM   18  C   UNL     1     -40.402  52.959 -49.654  1.00  0.00     0.210 C 
ENDBRANCH  12  17
ENDBRANCH   9  11
ENDBRANCH   1   5
BRANCH   2  19
HETATM   19  N   UNL     1     -45.625  58.060 -55.955  1.00  0.00    -0.165 NA
HETATM   20  C   UNL     1     -45.253  58.310 -57.171  1.00  0.00     0.157 A 
HETATM   21  C   UNL     1     -45.793  59.538 -57.935  1.00  0.00     0.277 A 
HETATM   22  C   UNL     1     -44.316  57.651 -58.095  1.00  0.00     0.027 A 
HETATM   23  O   UNL     1     -46.632  60.321 -57.552  1.00  0.00    -0.266 OA
HETATM   24  N   UNL     1     -45.098  59.561 -59.123  1.00  0.00    -0.321 N 
HETATM   25  C   UNL     1     -44.248  58.468 -59.227  1.00  0.00     0.048 A 
HETATM   26  H   UNL     1     -45.252  60.268 -59.827  1.00  0.00     0.169 HD
HETATM   27  C   UNL     1     -43.445  58.159 -60.306  1.00  0.00     0.030 A 
HETATM   28  C   UNL     1     -42.704  56.977 -60.242  1.00  0.00     0.002 A 
HETATM   29  C   UNL     1     -42.797  56.129 -59.125  1.00  0.00     0.001 A 
HETATM   30  C   UNL     1     -43.620  56.457 -58.040  1.00  0.00     0.016 A 
ENDBRANCH   2  19
TORSDOF 4
ENDMDL
MODEL 8
REMARK VINA RESULT:      -7.9      2.040      9.194
REMARK  4 active torsions:
REMARK  status: ('A' for Active; 'I' for Inactive)
REMARK    1  A    between atoms: O_2  and  C_3 
REMARK    2  A    between atoms: C_4  and  C_5 
REMARK    3  A    between atoms: C_9  and  C_10 
REMARK       I    between atoms: C_10  and  N_11 
REMARK    4  A    between atoms: N_11  and  N_12 
ROOT
HETATM    1  C   UNL     1     -42.301  54.583 -55.736  1.00  0.00     0.289 C 
HETATM    2  N   UNL     1     -40.976  54.336 -55.402  1.00  0.00    -0.241 N 
HETATM    3  O   UNL     1     -43.240  53.837 -55.479  1.00  0.00    -0.264 OA
HETATM    4  H   UNL     1     -40.261  54.899 -55.837  1.00  0.00     0.192 HD
ENDROOT
BRANCH   1   5
HETATM    5  C   UNL     1     -42.502  55.832 -56.430  1.00  0.00     0.121 A 
HETATM    6  N   UNL     1     -42.236  57.036 -55.839  1.00  0.00    -0.272 N 
HETATM    7  N   UNL     1     -42.474  58.097 -56.625  1.00  0.00    -0.174 NA
HETATM    8  H   UNL     1     -41.890  57.187 -54.895  1.00  0.00     0.189 HD
HETATM    9  C   UNL     1     -42.888  57.575 -57.786  1.00  0.00     0.092 A 
HETATM   10  C   UNL     1     -42.932  56.155 -57.702  1.00  0.00     0.071 A 
BRANCH   9  11
HETATM   11  C   UNL     1     -43.252  58.389 -58.946  1.00  0.00     0.028 A 
HETATM   12  C   UNL     1     -44.577  58.608 -59.359  1.00  0.00     0.080 A 
HETATM   13  C   UNL     1     -44.844  59.371 -60.502  1.00  0.00     0.037 A 
HETATM   14  C   UNL     1     -43.805  59.963 -61.219  1.00  0.00     0.003 A 
HETATM   15  C   UNL     1     -42.490  59.776 -60.809  1.00  0.00     0.001 A 
HETATM   16  C   UNL     1     -42.215  58.992 -59.686  1.00  0.00     0.017 A 
BRANCH  12  17
HETATM   17  O   UNL     1     -45.688  58.088 -58.745  1.00  0.00    -0.355 OA
HETATM   18  C   UNL     1     -46.907  58.546 -59.325  1.00  0.00     0.210 C 
ENDBRANCH  12  17
ENDBRANCH   9  11
ENDBRANCH   1   5
BRANCH   2  19
HETATM   19  N   UNL     1     -40.603  53.146 -54.856  1.00  0.00    -0.165 NA
HETATM   20  C   UNL     1     -40.405  53.080 -53.577  1.00  0.00     0.157 A 
HETATM   21  C   UNL     1     -39.786  51.824 -52.928  1.00  0.00     0.277 A 
HETATM   22  C   UNL     1     -40.624  54.027 -52.472  1.00  0.00     0.027 A 
HETATM   23  O   UNL     1     -39.504  50.785 -53.480  1.00  0.00    -0.266 OA
HETATM   24  N   UNL     1     -39.606  52.150 -51.603  1.00  0.00    -0.321 N 
HETATM   25  C   UNL     1     -40.096  53.421 -51.329  1.00  0.00     0.048 A 
HETATM   26  H   UNL     1     -39.213  51.504 -50.934  1.00  0.00     0.169 HD
HETATM   27  C   UNL     1     -40.118  54.038 -50.095  1.00  0.00     0.030 A 
HETATM   28  C   UNL     1     -40.711  55.300 -50.015  1.00  0.00     0.002 A 
HETATM   29  C   UNL     1     -41.282  55.901 -51.151  1.00  0.00     0.001 A 
HETATM   30  C   UNL     1     -41.252  55.258 -52.395  1.00  0.00     0.016 A 
ENDBRANCH   2  19
TORSDOF 4
ENDMDL
MODEL 9
REMARK VINA RESULT:      -7.8      2.817      8.778
REMARK  4 active torsions:
REMARK  status: ('A' for Active; 'I' for Inactive)
REMARK    1  A    between atoms: O_2  and  C_3 
REMARK    2  A    between atoms: C_4  and  C_5 
REMARK    3  A    between atoms: C_9  and  C_10 
REMARK       I    between atoms: C_10  and  N_11 
REMARK    4  A    between atoms: N_11  and  N_12 
ROOT
HETATM    1  C   UNL     1     -41.293  58.832 -53.792  1.00  0.00     0.289 C 
HETATM    2  N   UNL     1     -42.077  57.808 -53.275  1.00  0.00    -0.241 N 
HETATM    3  O   UNL     1     -40.253  59.241 -53.287  1.00  0.00    -0.264 OA
HETATM    4  H   UNL     1     -43.010  57.690 -53.642  1.00  0.00     0.192 HD
ENDROOT
BRANCH   1   5
HETATM    5  C   UNL     1     -41.807  59.397 -55.015  1.00  0.00     0.121 A 
HETATM    6  N   UNL     1     -42.059  60.735 -55.140  1.00  0.00    -0.272 N 
HETATM    7  N   UNL     1     -42.529  61.094 -56.345  1.00  0.00    -0.174 NA
HETATM    8  H   UNL     1     -41.927  61.449 -54.428  1.00  0.00     0.189 HD
HETATM    9  C   UNL     1     -42.565  59.957 -57.049  1.00  0.00     0.092 A 
HETATM   10  C   UNL     1     -42.131  58.865 -56.248  1.00  0.00     0.071 A 
BRANCH   9  11
HETATM   11  C   UNL     1     -43.013  59.891 -58.441  1.00  0.00     0.028 A 
HETATM   12  C   UNL     1     -43.902  58.917 -58.927  1.00  0.00     0.080 A 
HETATM   13  C   UNL     1     -44.257  58.897 -60.281  1.00  0.00     0.037 A 
HETATM   14  C   UNL     1     -43.771  59.868 -61.157  1.00  0.00     0.003 A 
HETATM   15  C   UNL     1     -42.910  60.853 -60.685  1.00  0.00     0.001 A 
HETATM   16  C   UNL     1     -42.529  60.861 -59.341  1.00  0.00     0.017 A 
BRANCH  12  17
HETATM   17  O   UNL     1     -44.452  57.910 -58.176  1.00  0.00    -0.355 OA
HETATM   18  C   UNL     1     -44.044  56.613 -58.607  1.00  0.00     0.210 C 
ENDBRANCH  12  17
ENDBRANCH   9  11
ENDBRANCH   1   5
BRANCH   2  19
HETATM   19  N   UNL     1     -41.796  57.256 -52.064  1.00  0.00    -0.165 NA
HETATM   20  C   UNL     1     -41.368  56.033 -52.018  1.00  0.00     0.157 A 
HETATM   21  C   UNL     1     -41.228  55.285 -50.675  1.00  0.00     0.277 A 
HETATM   22  C   UNL     1     -40.965  55.066 -53.052  1.00  0.00     0.027 A 
HETATM   23  O   UNL     1     -41.409  55.738 -49.569  1.00  0.00    -0.266 OA
HETATM   24  N   UNL     1     -40.881  53.996 -51.011  1.00  0.00    -0.321 N 
HETATM   25  C   UNL     1     -40.719  53.864 -52.385  1.00  0.00     0.048 A 
HETATM   26  H   UNL     1     -40.722  53.279 -50.319  1.00  0.00     0.169 HD
HETATM   27  C   UNL     1     -40.327  52.722 -53.053  1.00  0.00     0.030 A 
HETATM   28  C   UNL     1     -40.162  52.808 -54.437  1.00  0.00     0.002 A 
HETATM   29  C   UNL     1     -40.369  54.024 -55.112  1.00  0.00     0.001 A 
HETATM   30  C   UNL     1     -40.763  55.174 -54.417  1.00  0.00     0.016 A 
ENDBRANCH   2  19
TORSDOF 4
ENDMDL
MODEL 10
REMARK VINA RESULT:      -7.7     14.148     15.834
REMARK  4 active torsions:
REMARK  status: ('A' for Active; 'I' for Inactive)
REMARK    1  A    between atoms: O_2  and  C_3 
REMARK    2  A    between atoms: C_4  and  C_5 
REMARK    3  A    between atoms: C_9  and  C_10 
REMARK       I    between atoms: C_10  and  N_11 
REMARK    4  A    between atoms: N_11  and  N_12 
ROOT
HETATM    1  C   UNL     1     -36.060  42.281 -55.475  1.00  0.00     0.289 C 
HETATM    2  N   UNL     1     -37.276  42.207 -56.142  1.00  0.00    -0.241 N 
HETATM    3  O   UNL     1     -35.031  42.755 -55.945  1.00  0.00    -0.264 OA
HETATM    4  H   UNL     1     -37.997  41.616 -55.754  1.00  0.00     0.192 HD
ENDROOT
BRANCH   1   5
HETATM    5  C   UNL     1     -36.097  41.746 -54.137  1.00  0.00     0.121 A 
HETATM    6  N   UNL     1     -37.190  41.897 -53.329  1.00  0.00    -0.272 N 
HETATM    7  N   UNL     1     -37.059  41.334 -52.118  1.00  0.00    -0.174 NA
HETATM    8  H   UNL     1     -38.054  42.381 -53.559  1.00  0.00     0.189 HD
HETATM    9  C   UNL     1     -35.847  40.768 -52.135  1.00  0.00     0.092 A 
HETATM   10  C   UNL     1     -35.203  41.013 -53.380  1.00  0.00     0.071 A 
BRANCH   9  11
HETATM   11  C   UNL     1     -35.293  40.027 -51.001  1.00  0.00     0.028 A 
HETATM   12  C   UNL     1     -33.965  40.158 -50.559  1.00  0.00     0.080 A 
HETATM   13  C   UNL     1     -33.499  39.386 -49.487  1.00  0.00     0.037 A 
HETATM   14  C   UNL     1     -34.354  38.514 -48.814  1.00  0.00     0.003 A 
HETATM   15  C   UNL     1     -35.677  38.392 -49.225  1.00  0.00     0.001 A 
HETATM   16  C   UNL     1     -36.141  39.137 -50.312  1.00  0.00     0.017 A 
BRANCH  12  17
HETATM   17  O   UNL     1     -33.024  40.976 -51.128  1.00  0.00    -0.355 OA
HETATM   18  C   UNL     1     -31.901  40.260 -51.634  1.00  0.00     0.210 C 
ENDBRANCH  12  17
ENDBRANCH   9  11
ENDBRANCH   1   5
BRANCH   2  19
HETATM   19  N   UNL     1     -37.377  42.555 -57.453  1.00  0.00    -0.165 NA
HETATM   20  C   UNL     1     -37.385  41.620 -58.351  1.00  0.00     0.157 A 
HETATM   21  C   UNL     1     -37.290  41.954 -59.855  1.00  0.00     0.277 A 
HETATM   22  C   UNL     1     -37.438  40.151 -58.276  1.00  0.00     0.027 A 
HETATM   23  O   UNL     1     -37.280  43.055 -60.355  1.00  0.00    -0.266 OA
HETATM   24  N   UNL     1     -37.195  40.738 -60.492  1.00  0.00    -0.321 N 
HETATM   25  C   UNL     1     -37.288  39.690 -59.586  1.00  0.00     0.048 A 
HETATM   26  H   UNL     1     -37.121  40.656 -61.496  1.00  0.00     0.169 HD
HETATM   27  C   UNL     1     -37.279  38.344 -59.893  1.00  0.00     0.030 A 
HETATM   28  C   UNL     1     -37.445  37.441 -58.840  1.00  0.00     0.002 A 
HETATM   29  C   UNL     1     -37.637  37.897 -57.524  1.00  0.00     0.001 A 
HETATM   30  C   UNL     1     -37.647  39.267 -57.232  1.00  0.00     0.016 A 
ENDBRANCH   2  19
TORSDOF 4
ENDMDL
