MODEL 1
REMARK VINA RESULT:      -8.2      0.000      0.000
REMARK  6 active torsions:
REMARK  status: ('A' for Active; 'I' for Inactive)
REMARK    1  A    between atoms: O_2  and  C_3 
REMARK    2  A    between atoms: C_6  and  C_7 
REMARK    3  A    between atoms: C_11  and  C_12 
REMARK       I    between atoms: C_12  and  N_13 
REMARK    4  A    between atoms: N_13  and  N_14 
REMARK       I    between atoms: N_14  and  C_15 
REMARK    5  A    between atoms: C_15  and  C_16 
REMARK    6  A    between atoms: C_16  and  C_17 
ROOT
HETATM    1  C   UNL     1     -43.080  56.635 -57.638  1.00  0.00     0.288 C 
HETATM    2  N   UNL     1     -42.992  55.572 -56.764  1.00  0.00    -0.262 N 
HETATM    3  O   UNL     1     -42.275  57.566 -57.612  1.00  0.00    -0.264 OA
HETATM    4  H   UNL     1     -43.546  54.726 -56.886  1.00  0.00     0.190 HD
ENDROOT
BRANCH   1   5
HETATM    5  C   UNL     1     -44.156  56.566 -58.588  1.00  0.00     0.121 A 
HETATM    6  N   UNL     1     -44.572  55.380 -59.123  1.00  0.00    -0.272 N 
HETATM    7  N   UNL     1     -45.594  55.493 -59.985  1.00  0.00    -0.174 NA
HETATM    8  H   UNL     1     -44.189  54.458 -58.934  1.00  0.00     0.189 HD
HETATM    9  C   UNL     1     -45.885  56.804 -59.999  1.00  0.00     0.089 A 
HETATM   10  C   UNL     1     -44.988  57.513 -59.151  1.00  0.00     0.071 A 
BRANCH   9  11
HETATM   11  C   UNL     1     -46.986  57.343 -60.802  1.00  0.00    -0.005 A 
HETATM   12  C   UNL     1     -47.825  56.499 -61.540  1.00  0.00     0.016 A 
HETATM   13  C   UNL     1     -48.871  57.028 -62.304  1.00  0.00     0.037 A 
HETATM   14  C   UNL     1     -49.104  58.403 -62.344  1.00  0.00     0.068 A 
HETATM   15  C   UNL     1     -48.270  59.253 -61.619  1.00  0.00     0.037 A 
HETATM   16  C   UNL     1     -47.218  58.725 -60.857  1.00  0.00     0.016 A 
BRANCH  14  17
HETATM   17  O   UNL     1     -50.160  58.782 -63.125  1.00  0.00    -0.356 OA
HETATM   18  C   UNL     1     -51.425  58.887 -62.484  1.00  0.00     0.210 C 
ENDBRANCH  14  17
ENDBRANCH   9  11
ENDBRANCH   1   5
BRANCH   2  19
HETATM   19  N   UNL     1     -41.809  55.412 -56.024  1.00  0.00    -0.267 N 
HETATM   20  C   UNL     1     -41.711  54.278 -55.243  1.00  0.00     0.240 C 
HETATM   21  O   UNL     1     -42.678  53.549 -55.025  1.00  0.00    -0.272 OA
HETATM   22  H   UNL     1     -40.994  55.929 -56.354  1.00  0.00     0.190 HD
BRANCH  20  23
HETATM   23  C   UNL     1     -40.329  54.013 -54.682  1.00  0.00     0.148 C 
BRANCH  23  24
HETATM   24  C   UNL     1     -40.366  53.519 -53.260  1.00  0.00     0.011 A 
HETATM   25  C   UNL     1     -40.036  52.208 -52.892  1.00  0.00     0.043 A 
HETATM   26 CL   UNL     1     -39.575  51.022 -54.060  1.00  0.00    -0.084 Cl
HETATM   27  C   UNL     1     -40.076  51.811 -51.549  1.00  0.00     0.024 A 
HETATM   28  C   UNL     1     -40.435  52.720 -50.554  1.00  0.00     0.005 A 
HETATM   29  C   UNL     1     -40.752  54.028 -50.904  1.00  0.00     0.043 A 
HETATM   30  C   UNL     1     -40.713  54.415 -52.241  1.00  0.00     0.124 A 
HETATM   31  F   UNL     1     -41.032  55.680 -52.547  1.00  0.00    -0.205 F 
ENDBRANCH  23  24
ENDBRANCH  20  23
ENDBRANCH   2  19
TORSDOF 6
ENDMDL
MODEL 2
REMARK VINA RESULT:      -8.0     16.328     21.136
REMARK  6 active torsions:
REMARK  status: ('A' for Active; 'I' for Inactive)
REMARK    1  A    between atoms: O_2  and  C_3 
REMARK    2  A    between atoms: C_6  and  C_7 
REMARK    3  A    between atoms: C_11  and  C_12 
REMARK       I    between atoms: C_12  and  N_13 
REMARK    4  A    between atoms: N_13  and  N_14 
REMARK       I    between atoms: N_14  and  C_15 
REMARK    5  A    between atoms: C_15  and  C_16 
REMARK    6  A    between atoms: C_16  and  C_17 
ROOT
HETATM    1  C   UNL     1     -35.719  41.962 -52.877  1.00  0.00     0.288 C 
HETATM    2  N   UNL     1     -35.356  42.184 -54.189  1.00  0.00    -0.262 N 
HETATM    3  O   UNL     1     -36.832  42.266 -52.450  1.00  0.00    -0.264 OA
HETATM    4  H   UNL     1     -34.507  41.788 -54.588  1.00  0.00     0.190 HD
ENDROOT
BRANCH   1   5
HETATM    5  C   UNL     1     -34.719  41.334 -52.057  1.00  0.00     0.121 A 
HETATM    6  N   UNL     1     -33.407  41.279 -52.434  1.00  0.00    -0.272 N 
HETATM    7  N   UNL     1     -32.605  40.668 -51.549  1.00  0.00    -0.174 NA
HETATM    8  H   UNL     1     -33.003  41.644 -53.291  1.00  0.00     0.189 HD
HETATM    9  C   UNL     1     -33.414  40.331 -50.532  1.00  0.00     0.089 A 
HETATM   10  C   UNL     1     -34.754  40.713 -50.825  1.00  0.00     0.071 A 
BRANCH   9  11
HETATM   11  C   UNL     1     -32.908  39.665 -49.328  1.00  0.00    -0.005 A 
HETATM   12  C   UNL     1     -31.701  40.059 -48.737  1.00  0.00     0.016 A 
HETATM   13  C   UNL     1     -31.229  39.414 -47.588  1.00  0.00     0.037 A 
HETATM   14  C   UNL     1     -31.949  38.369 -47.007  1.00  0.00     0.068 A 
HETATM   15  C   UNL     1     -33.147  37.965 -47.593  1.00  0.00     0.037 A 
HETATM   16  C   UNL     1     -33.620  38.607 -48.745  1.00  0.00     0.016 A 
BRANCH  14  17
HETATM   17  O   UNL     1     -31.375  37.833 -45.888  1.00  0.00    -0.356 OA
HETATM   18  C   UNL     1     -31.964  38.174 -44.639  1.00  0.00     0.210 C 
ENDBRANCH  14  17
ENDBRANCH   9  11
ENDBRANCH   1   5
BRANCH   2  19
HETATM   19  N   UNL     1     -36.363  42.501 -55.115  1.00  0.00    -0.267 N 
HETATM   20  C   UNL     1     -36.224  41.985 -56.388  1.00  0.00     0.240 C 
HETATM   21  O   UNL     1     -35.179  41.459 -56.769  1.00  0.00    -0.272 OA
HETATM   22  H   UNL     1     -37.264  42.782 -54.727  1.00  0.00     0.190 HD
BRANCH  20  23
HETATM   23  C   UNL     1     -37.451  42.124 -57.265  1.00  0.00     0.148 C 
BRANCH  23  24
HETATM   24  C   UNL     1     -37.561  41.023 -58.286  1.00  0.00     0.011 A 
HETATM   25  C   UNL     1     -37.455  41.240 -59.666  1.00  0.00     0.043 A 
HETATM   26 CL   UNL     1     -37.209  42.819 -60.324  1.00  0.00    -0.084 Cl
HETATM   27  C   UNL     1     -37.552  40.172 -60.568  1.00  0.00     0.024 A 
HETATM   28  C   UNL     1     -37.746  38.871 -60.103  1.00  0.00     0.005 A 
HETATM   29  C   UNL     1     -37.840  38.639 -58.735  1.00  0.00     0.043 A 
HETATM   30  C   UNL     1     -37.745  39.707 -57.846  1.00  0.00     0.124 A 
HETATM   31  F   UNL     1     -37.847  39.452 -56.534  1.00  0.00    -0.205 F 
ENDBRANCH  23  24
ENDBRANCH  20  23
ENDBRANCH   2  19
TORSDOF 6
ENDMDL
MODEL 3
REMARK VINA RESULT:      -8.0      4.698      6.215
REMARK  6 active torsions:
REMARK  status: ('A' for Active; 'I' for Inactive)
REMARK    1  A    between atoms: O_2  and  C_3 
REMARK    2  A    between atoms: C_6  and  C_7 
REMARK    3  A    between atoms: C_11  and  C_12 
REMARK       I    between atoms: C_12  and  N_13 
REMARK    4  A    between atoms: N_13  and  N_14 
REMARK       I    between atoms: N_14  and  C_15 
REMARK    5  A    between atoms: C_15  and  C_16 
REMARK    6  A    between atoms: C_16  and  C_17 
ROOT
HETATM    1  C   UNL     1     -42.845  57.412 -57.280  1.00  0.00     0.288 C 
HETATM    2  N   UNL     1     -41.915  56.478 -56.876  1.00  0.00    -0.262 N 
HETATM    3  O   UNL     1     -44.046  57.150 -57.339  1.00  0.00    -0.264 OA
HETATM    4  H   UNL     1     -40.951  56.731 -56.665  1.00  0.00     0.190 HD
ENDROOT
BRANCH   1   5
HETATM    5  C   UNL     1     -42.318  58.710 -57.601  1.00  0.00     0.121 A 
HETATM    6  N   UNL     1     -42.038  59.635 -56.635  1.00  0.00    -0.272 N 
HETATM    7  N   UNL     1     -41.542  60.789 -57.106  1.00  0.00    -0.174 NA
HETATM    8  H   UNL     1     -42.170  59.530 -55.634  1.00  0.00     0.189 HD
HETATM    9  C   UNL     1     -41.462  60.610 -58.434  1.00  0.00     0.089 A 
HETATM   10  C   UNL     1     -41.962  59.324 -58.785  1.00  0.00     0.071 A 
BRANCH   9  11
HETATM   11  C   UNL     1     -40.926  61.644 -59.323  1.00  0.00    -0.005 A 
HETATM   12  C   UNL     1     -41.355  61.750 -60.652  1.00  0.00     0.016 A 
HETATM   13  C   UNL     1     -40.834  62.742 -61.490  1.00  0.00     0.037 A 
HETATM   14  C   UNL     1     -39.880  63.646 -61.022  1.00  0.00     0.068 A 
HETATM   15  C   UNL     1     -39.441  63.545 -59.703  1.00  0.00     0.037 A 
HETATM   16  C   UNL     1     -39.958  62.549 -58.863  1.00  0.00     0.016 A 
BRANCH  14  17
HETATM   17  O   UNL     1     -39.461  64.564 -61.944  1.00  0.00    -0.356 OA
HETATM   18  C   UNL     1     -38.914  64.054 -63.154  1.00  0.00     0.210 C 
ENDBRANCH  14  17
ENDBRANCH   9  11
ENDBRANCH   1   5
BRANCH   2  19
HETATM   19  N   UNL     1     -42.374  55.303 -56.259  1.00  0.00    -0.267 N 
HETATM   20  C   UNL     1     -41.585  54.777 -55.255  1.00  0.00     0.240 C 
HETATM   21  O   UNL     1     -40.438  55.175 -55.049  1.00  0.00    -0.272 OA
HETATM   22  H   UNL     1     -43.373  55.111 -56.334  1.00  0.00     0.190 HD
BRANCH  20  23
HETATM   23  C   UNL     1     -42.241  53.680 -54.443  1.00  0.00     0.148 C 
BRANCH  23  24
HETATM   24  C   UNL     1     -41.369  53.193 -53.316  1.00  0.00     0.011 A 
HETATM   25  C   UNL     1     -41.511  53.625 -51.991  1.00  0.00     0.043 A 
HETATM   26 CL   UNL     1     -42.703  54.790 -51.535  1.00  0.00    -0.084 Cl
HETATM   27  C   UNL     1     -40.678  53.125 -50.982  1.00  0.00     0.024 A 
HETATM   28  C   UNL     1     -39.698  52.178 -51.280  1.00  0.00     0.005 A 
HETATM   29  C   UNL     1     -39.555  51.730 -52.589  1.00  0.00     0.043 A 
HETATM   30  C   UNL     1     -40.385  52.235 -53.587  1.00  0.00     0.124 A 
HETATM   31  F   UNL     1     -40.216  51.789 -54.839  1.00  0.00    -0.205 F 
ENDBRANCH  23  24
ENDBRANCH  20  23
ENDBRANCH   2  19
TORSDOF 6
ENDMDL
MODEL 4
REMARK VINA RESULT:      -7.9      8.101     11.542
REMARK  6 active torsions:
REMARK  status: ('A' for Active; 'I' for Inactive)
REMARK    1  A    between atoms: O_2  and  C_3 
REMARK    2  A    between atoms: C_6  and  C_7 
REMARK    3  A    between atoms: C_11  and  C_12 
REMARK       I    between atoms: C_12  and  N_13 
REMARK    4  A    between atoms: N_13  and  N_14 
REMARK       I    between atoms: N_14  and  C_15 
REMARK    5  A    between atoms: C_15  and  C_16 
REMARK    6  A    between atoms: C_16  and  C_17 
ROOT
HETATM    1  C   UNL     1     -43.877  58.504 -51.683  1.00  0.00     0.288 C 
HETATM    2  N   UNL     1     -43.915  59.364 -50.606  1.00  0.00    -0.262 N 
HETATM    3  O   UNL     1     -44.601  58.660 -52.665  1.00  0.00    -0.264 OA
HETATM    4  H   UNL     1     -43.210  59.341 -49.871  1.00  0.00     0.190 HD
ENDROOT
BRANCH   1   5
HETATM    5  C   UNL     1     -42.921  57.435 -51.586  1.00  0.00     0.121 A 
HETATM    6  N   UNL     1     -41.994  57.384 -50.584  1.00  0.00    -0.272 N 
HETATM    7  N   UNL     1     -41.187  56.314 -50.635  1.00  0.00    -0.174 NA
HETATM    8  H   UNL     1     -41.868  58.058 -49.834  1.00  0.00     0.189 HD
HETATM    9  C   UNL     1     -41.614  55.615 -51.698  1.00  0.00     0.089 A 
HETATM   10  C   UNL     1     -42.688  56.299 -52.334  1.00  0.00     0.071 A 
BRANCH   9  11
HETATM   11  C   UNL     1     -41.004  54.337 -52.079  1.00  0.00    -0.005 A 
HETATM   12  C   UNL     1     -41.101  53.852 -53.389  1.00  0.00     0.016 A 
HETATM   13  C   UNL     1     -40.515  52.630 -53.739  1.00  0.00     0.037 A 
HETATM   14  C   UNL     1     -39.821  51.873 -52.795  1.00  0.00     0.068 A 
HETATM   15  C   UNL     1     -39.725  52.344 -51.487  1.00  0.00     0.037 A 
HETATM   16  C   UNL     1     -40.315  53.565 -51.133  1.00  0.00     0.016 A 
BRANCH  14  17
HETATM   17  O   UNL     1     -39.296  50.705 -53.273  1.00  0.00    -0.356 OA
HETATM   18  C   UNL     1     -39.976  50.095 -54.363  1.00  0.00     0.210 C 
ENDBRANCH  14  17
ENDBRANCH   9  11
ENDBRANCH   1   5
BRANCH   2  19
HETATM   19  N   UNL     1     -44.587  60.589 -50.753  1.00  0.00    -0.267 N 
HETATM   20  C   UNL     1     -45.538  60.897 -49.801  1.00  0.00     0.240 C 
HETATM   21  O   UNL     1     -45.943  60.065 -48.989  1.00  0.00    -0.272 OA
HETATM   22  H   UNL     1     -44.118  61.299 -51.316  1.00  0.00     0.190 HD
BRANCH  20  23
HETATM   23  C   UNL     1     -46.037  62.326 -49.843  1.00  0.00     0.148 C 
BRANCH  23  24
HETATM   24  C   UNL     1     -45.684  63.100 -48.601  1.00  0.00     0.011 A 
HETATM   25  C   UNL     1     -44.485  63.810 -48.451  1.00  0.00     0.043 A 
HETATM   26 CL   UNL     1     -43.282  63.837 -49.690  1.00  0.00    -0.084 Cl
HETATM   27  C   UNL     1     -44.219  64.524 -47.275  1.00  0.00     0.024 A 
HETATM   28  C   UNL     1     -45.150  64.547 -46.237  1.00  0.00     0.005 A 
HETATM   29  C   UNL     1     -46.350  63.858 -46.377  1.00  0.00     0.043 A 
HETATM   30  C   UNL     1     -46.606  63.148 -47.548  1.00  0.00     0.124 A 
HETATM   31  F   UNL     1     -47.768  62.488 -47.650  1.00  0.00    -0.205 F 
ENDBRANCH  23  24
ENDBRANCH  20  23
ENDBRANCH   2  19
TORSDOF 6
ENDMDL
MODEL 5
REMARK VINA RESULT:      -7.8      7.414     11.064
REMARK  6 active torsions:
REMARK  status: ('A' for Active; 'I' for Inactive)
REMARK    1  A    between atoms: O_2  and  C_3 
REMARK    2  A    between atoms: C_6  and  C_7 
REMARK    3  A    between atoms: C_11  and  C_12 
REMARK       I    between atoms: C_12  and  N_13 
REMARK    4  A    between atoms: N_13  and  N_14 
REMARK       I    between atoms: N_14  and  C_15 
REMARK    5  A    between atoms: C_15  and  C_16 
REMARK    6  A    between atoms: C_16  and  C_17 
ROOT
HETATM    1  C   UNL     1     -44.063  58.533 -52.046  1.00  0.00     0.288 C 
HETATM    2  N   UNL     1     -43.923  58.752 -50.692  1.00  0.00    -0.262 N 
HETATM    3  O   UNL     1     -44.508  59.396 -52.801  1.00  0.00    -0.264 OA
HETATM    4  H   UNL     1     -43.406  58.112 -50.092  1.00  0.00     0.190 HD
ENDROOT
BRANCH   1   5
HETATM    5  C   UNL     1     -43.634  57.243 -52.510  1.00  0.00     0.121 A 
HETATM    6  N   UNL     1     -44.325  56.551 -53.465  1.00  0.00    -0.272 N 
HETATM    7  N   UNL     1     -43.781  55.369 -53.791  1.00  0.00    -0.174 NA
HETATM    8  H   UNL     1     -45.180  56.842 -53.929  1.00  0.00     0.189 HD
HETATM    9  C   UNL     1     -42.670  55.287 -53.042  1.00  0.00     0.089 A 
HETATM   10  C   UNL     1     -42.555  56.436 -52.209  1.00  0.00     0.071 A 
BRANCH   9  11
HETATM   11  C   UNL     1     -41.759  54.142 -53.133  1.00  0.00    -0.005 A 
HETATM   12  C   UNL     1     -41.622  53.418 -54.324  1.00  0.00     0.016 A 
HETATM   13  C   UNL     1     -40.749  52.327 -54.396  1.00  0.00     0.037 A 
HETATM   14  C   UNL     1     -39.996  51.938 -53.287  1.00  0.00     0.068 A 
HETATM   15  C   UNL     1     -40.131  52.648 -52.094  1.00  0.00     0.037 A 
HETATM   16  C   UNL     1     -41.007  53.739 -52.019  1.00  0.00     0.016 A 
BRANCH  14  17
HETATM   17  O   UNL     1     -39.183  50.860 -53.498  1.00  0.00    -0.356 OA
HETATM   18  C   UNL     1     -39.636  49.888 -54.431  1.00  0.00     0.210 C 
ENDBRANCH  14  17
ENDBRANCH   9  11
ENDBRANCH   1   5
BRANCH   2  19
HETATM   19  N   UNL     1     -44.026  60.069 -50.215  1.00  0.00    -0.267 N 
HETATM   20  C   UNL     1     -45.141  60.374 -49.460  1.00  0.00     0.240 C 
HETATM   21  O   UNL     1     -46.105  59.612 -49.382  1.00  0.00    -0.272 OA
HETATM   22  H   UNL     1     -43.156  60.600 -50.155  1.00  0.00     0.190 HD
BRANCH  20  23
HETATM   23  C   UNL     1     -45.079  61.709 -48.748  1.00  0.00     0.148 C 
BRANCH  23  24
HETATM   24  C   UNL     1     -46.235  62.607 -49.098  1.00  0.00     0.011 A 
HETATM   25  C   UNL     1     -46.351  63.267 -50.328  1.00  0.00     0.043 A 
HETATM   26 CL   UNL     1     -45.146  63.122 -51.558  1.00  0.00    -0.084 Cl
HETATM   27  C   UNL     1     -47.459  64.080 -50.602  1.00  0.00     0.024 A 
HETATM   28  C   UNL     1     -48.471  64.237 -49.655  1.00  0.00     0.005 A 
HETATM   29  C   UNL     1     -48.375  63.577 -48.435  1.00  0.00     0.043 A 
HETATM   30  C   UNL     1     -47.269  62.773 -48.169  1.00  0.00     0.124 A 
HETATM   31  F   UNL     1     -47.202  62.157 -46.981  1.00  0.00    -0.205 F 
ENDBRANCH  23  24
ENDBRANCH  20  23
ENDBRANCH   2  19
TORSDOF 6
ENDMDL
MODEL 6
REMARK VINA RESULT:      -7.8      2.307      3.203
REMARK  6 active torsions:
REMARK  status: ('A' for Active; 'I' for Inactive)
REMARK    1  A    between atoms: O_2  and  C_3 
REMARK    2  A    between atoms: C_6  and  C_7 
REMARK    3  A    between atoms: C_11  and  C_12 
REMARK       I    between atoms: C_12  and  N_13 
REMARK    4  A    between atoms: N_13  and  N_14 
REMARK       I    between atoms: N_14  and  C_15 
REMARK    5  A    between atoms: C_15  and  C_16 
REMARK    6  A    between atoms: C_16  and  C_17 
ROOT
HETATM    1  C   UNL     1     -42.330  57.438 -54.776  1.00  0.00     0.288 C 
HETATM    2  N   UNL     1     -42.568  56.296 -54.040  1.00  0.00    -0.262 N 
HETATM    3  O   UNL     1     -41.408  58.205 -54.504  1.00  0.00    -0.264 OA
HETATM    4  H   UNL     1     -43.216  55.576 -54.354  1.00  0.00     0.190 HD
ENDROOT
BRANCH   1   5
HETATM    5  C   UNL     1     -43.217  57.651 -55.887  1.00  0.00     0.121 A 
HETATM    6  N   UNL     1     -43.629  58.902 -56.252  1.00  0.00    -0.272 N 
HETATM    7  N   UNL     1     -44.445  58.924 -57.316  1.00  0.00    -0.174 NA
HETATM    8  H   UNL     1     -43.382  59.780 -55.805  1.00  0.00     0.189 HD
HETATM    9  C   UNL     1     -44.555  57.639 -57.688  1.00  0.00     0.089 A 
HETATM   10  C   UNL     1     -43.815  56.807 -56.800  1.00  0.00     0.071 A 
BRANCH   9  11
HETATM   11  C   UNL     1     -45.345  57.236 -58.855  1.00  0.00    -0.005 A 
HETATM   12  C   UNL     1     -46.400  58.029 -59.324  1.00  0.00     0.016 A 
HETATM   13  C   UNL     1     -47.147  57.632 -60.438  1.00  0.00     0.037 A 
HETATM   14  C   UNL     1     -46.857  56.442 -61.107  1.00  0.00     0.068 A 
HETATM   15  C   UNL     1     -45.813  55.642 -60.645  1.00  0.00     0.037 A 
HETATM   16  C   UNL     1     -45.066  56.036 -59.526  1.00  0.00     0.016 A 
BRANCH  14  17
HETATM   17  O   UNL     1     -47.661  56.179 -62.181  1.00  0.00    -0.356 OA
HETATM   18  C   UNL     1     -48.796  57.019 -62.353  1.00  0.00     0.210 C 
ENDBRANCH  14  17
ENDBRANCH   9  11
ENDBRANCH   1   5
BRANCH   2  19
HETATM   19  N   UNL     1     -41.576  55.860 -53.146  1.00  0.00    -0.267 N 
HETATM   20  C   UNL     1     -41.738  54.602 -52.600  1.00  0.00     0.240 C 
HETATM   21  O   UNL     1     -42.791  53.974 -52.707  1.00  0.00    -0.272 OA
HETATM   22  H   UNL     1     -40.667  56.319 -53.217  1.00  0.00     0.190 HD
BRANCH  20  23
HETATM   23  C   UNL     1     -40.526  54.070 -51.864  1.00  0.00     0.148 C 
BRANCH  23  24
HETATM   24  C   UNL     1     -40.202  52.647 -52.234  1.00  0.00     0.011 A 
HETATM   25  C   UNL     1     -40.010  52.219 -53.555  1.00  0.00     0.043 A 
HETATM   26 CL   UNL     1     -40.154  53.303 -54.893  1.00  0.00    -0.084 Cl
HETATM   27  C   UNL     1     -39.696  50.883 -53.836  1.00  0.00     0.024 A 
HETATM   28  C   UNL     1     -39.560  49.958 -52.801  1.00  0.00     0.005 A 
HETATM   29  C   UNL     1     -39.735  50.370 -51.485  1.00  0.00     0.043 A 
HETATM   30  C   UNL     1     -40.050  51.700 -51.214  1.00  0.00     0.124 A 
HETATM   31  F   UNL     1     -40.220  52.065 -49.936  1.00  0.00    -0.205 F 
ENDBRANCH  23  24
ENDBRANCH  20  23
ENDBRANCH   2  19
TORSDOF 6
ENDMDL
MODEL 7
REMARK VINA RESULT:      -7.7      8.711     11.734
REMARK  6 active torsions:
REMARK  status: ('A' for Active; 'I' for Inactive)
REMARK    1  A    between atoms: O_2  and  C_3 
REMARK    2  A    between atoms: C_6  and  C_7 
REMARK    3  A    between atoms: C_11  and  C_12 
REMARK       I    between atoms: C_12  and  N_13 
REMARK    4  A    between atoms: N_13  and  N_14 
REMARK       I    between atoms: N_14  and  C_15 
REMARK    5  A    between atoms: C_15  and  C_16 
REMARK    6  A    between atoms: C_16  and  C_17 
ROOT
HETATM    1  C   UNL     1     -41.989  58.962 -51.281  1.00  0.00     0.288 C 
HETATM    2  N   UNL     1     -43.051  59.381 -50.507  1.00  0.00    -0.262 N 
HETATM    3  O   UNL     1     -41.352  59.743 -51.987  1.00  0.00    -0.264 OA
HETATM    4  H   UNL     1     -43.474  58.782 -49.800  1.00  0.00     0.190 HD
ENDROOT
BRANCH   1   5
HETATM    5  C   UNL     1     -41.670  57.564 -51.186  1.00  0.00     0.121 A 
HETATM    6  N   UNL     1     -41.833  56.863 -50.024  1.00  0.00    -0.272 N 
HETATM    7  N   UNL     1     -41.499  55.567 -50.112  1.00  0.00    -0.174 NA
HETATM    8  H   UNL     1     -42.172  57.224 -49.137  1.00  0.00     0.189 HD
HETATM    9  C   UNL     1     -41.124  55.397 -51.389  1.00  0.00     0.089 A 
HETATM   10  C   UNL     1     -41.197  56.634 -52.090  1.00  0.00     0.071 A 
BRANCH   9  11
HETATM   11  C   UNL     1     -40.713  54.089 -51.907  1.00  0.00    -0.005 A 
HETATM   12  C   UNL     1     -40.098  53.143 -51.077  1.00  0.00     0.016 A 
HETATM   13  C   UNL     1     -39.709  51.898 -51.586  1.00  0.00     0.037 A 
HETATM   14  C   UNL     1     -39.928  51.571 -52.924  1.00  0.00     0.068 A 
HETATM   15  C   UNL     1     -40.533  52.509 -53.760  1.00  0.00     0.037 A 
HETATM   16  C   UNL     1     -40.919  53.758 -53.254  1.00  0.00     0.016 A 
BRANCH  14  17
HETATM   17  O   UNL     1     -39.504  50.323 -53.285  1.00  0.00    -0.356 OA
HETATM   18  C   UNL     1     -39.775  49.914 -54.620  1.00  0.00     0.210 C 
ENDBRANCH  14  17
ENDBRANCH   9  11
ENDBRANCH   1   5
BRANCH   2  19
HETATM   19  N   UNL     1     -43.228  60.760 -50.308  1.00  0.00    -0.267 N 
HETATM   20  C   UNL     1     -44.385  61.153 -49.665  1.00  0.00     0.240 C 
HETATM   21  O   UNL     1     -45.319  60.376 -49.468  1.00  0.00    -0.272 OA
HETATM   22  H   UNL     1     -42.385  61.334 -50.328  1.00  0.00     0.190 HD
BRANCH  20  23
HETATM   23  C   UNL     1     -44.408  62.605 -49.234  1.00  0.00     0.148 C 
BRANCH  23  24
HETATM   24  C   UNL     1     -45.778  63.061 -48.808  1.00  0.00     0.011 A 
HETATM   25  C   UNL     1     -46.203  63.080 -47.473  1.00  0.00     0.043 A 
HETATM   26 CL   UNL     1     -45.182  62.550 -46.184  1.00  0.00    -0.084 Cl
HETATM   27  C   UNL     1     -47.487  63.529 -47.137  1.00  0.00     0.024 A 
HETATM   28  C   UNL     1     -48.360  63.976 -48.129  1.00  0.00     0.005 A 
HETATM   29  C   UNL     1     -47.948  63.975 -49.457  1.00  0.00     0.043 A 
HETATM   30  C   UNL     1     -46.671  63.524 -49.783  1.00  0.00     0.124 A 
HETATM   31  F   UNL     1     -46.305  63.528 -51.072  1.00  0.00    -0.205 F 
ENDBRANCH  23  24
ENDBRANCH  20  23
ENDBRANCH   2  19
TORSDOF 6
ENDMDL
MODEL 8
REMARK VINA RESULT:      -7.6     16.803     17.728
REMARK  6 active torsions:
REMARK  status: ('A' for Active; 'I' for Inactive)
REMARK    1  A    between atoms: O_2  and  C_3 
REMARK    2  A    between atoms: C_6  and  C_7 
REMARK    3  A    between atoms: C_11  and  C_12 
REMARK       I    between atoms: C_12  and  N_13 
REMARK    4  A    between atoms: N_13  and  N_14 
REMARK       I    between atoms: N_14  and  C_15 
REMARK    5  A    between atoms: C_15  and  C_16 
REMARK    6  A    between atoms: C_16  and  C_17 
ROOT
HETATM    1  C   UNL     1     -36.554  41.968 -55.139  1.00  0.00     0.288 C 
HETATM    2  N   UNL     1     -37.564  41.635 -54.262  1.00  0.00    -0.262 N 
HETATM    3  O   UNL     1     -35.538  42.554 -54.768  1.00  0.00    -0.264 OA
HETATM    4  H   UNL     1     -38.324  41.010 -54.525  1.00  0.00     0.190 HD
ENDROOT
BRANCH   1   5
HETATM    5  C   UNL     1     -36.762  41.563 -56.502  1.00  0.00     0.121 A 
HETATM    6  N   UNL     1     -36.112  42.167 -57.542  1.00  0.00    -0.272 N 
HETATM    7  N   UNL     1     -36.413  41.660 -58.747  1.00  0.00    -0.174 NA
HETATM    8  H   UNL     1     -35.450  42.935 -57.484  1.00  0.00     0.189 HD
HETATM    9  C   UNL     1     -37.274  40.662 -58.493  1.00  0.00     0.089 A 
HETATM   10  C   UNL     1     -37.535  40.585 -57.095  1.00  0.00     0.071 A 
BRANCH   9  11
HETATM   11  C   UNL     1     -37.821  39.821 -59.561  1.00  0.00    -0.005 A 
HETATM   12  C   UNL     1     -37.256  39.821 -60.843  1.00  0.00     0.016 A 
HETATM   13  C   UNL     1     -37.789  39.013 -61.854  1.00  0.00     0.037 A 
HETATM   14  C   UNL     1     -38.889  38.190 -61.607  1.00  0.00     0.068 A 
HETATM   15  C   UNL     1     -39.462  38.188 -60.336  1.00  0.00     0.037 A 
HETATM   16  C   UNL     1     -38.933  39.000 -59.324  1.00  0.00     0.016 A 
BRANCH  14  17
HETATM   17  O   UNL     1     -39.302  37.452 -62.681  1.00  0.00    -0.356 OA
HETATM   18  C   UNL     1     -40.581  36.838 -62.583  1.00  0.00     0.210 C 
ENDBRANCH  14  17
ENDBRANCH   9  11
ENDBRANCH   1   5
BRANCH   2  19
HETATM   19  N   UNL     1     -37.305  41.716 -52.884  1.00  0.00    -0.267 N 
HETATM   20  C   UNL     1     -37.077  40.527 -52.221  1.00  0.00     0.240 C 
HETATM   21  O   UNL     1     -37.299  39.435 -52.744  1.00  0.00    -0.272 OA
HETATM   22  H   UNL     1     -36.970  42.616 -52.537  1.00  0.00     0.190 HD
BRANCH  20  23
HETATM   23  C   UNL     1     -36.540  40.679 -50.813  1.00  0.00     0.148 C 
BRANCH  23  24
HETATM   24  C   UNL     1     -35.088  40.299 -50.702  1.00  0.00     0.011 A 
HETATM   25  C   UNL     1     -34.653  39.028 -50.304  1.00  0.00     0.043 A 
HETATM   26 CL   UNL     1     -35.765  37.776 -49.879  1.00  0.00    -0.084 Cl
HETATM   27  C   UNL     1     -33.286  38.729 -50.233  1.00  0.00     0.024 A 
HETATM   28  C   UNL     1     -32.335  39.693 -50.568  1.00  0.00     0.005 A 
HETATM   29  C   UNL     1     -32.752  40.955 -50.976  1.00  0.00     0.043 A 
HETATM   30  C   UNL     1     -34.113  41.245 -51.042  1.00  0.00     0.124 A 
HETATM   31  F   UNL     1     -34.484  42.472 -51.432  1.00  0.00    -0.205 F 
ENDBRANCH  23  24
ENDBRANCH  20  23
ENDBRANCH   2  19
TORSDOF 6
ENDMDL
MODEL 9
REMARK VINA RESULT:      -7.6      3.959     10.523
REMARK  6 active torsions:
REMARK  status: ('A' for Active; 'I' for Inactive)
REMARK    1  A    between atoms: O_2  and  C_3 
REMARK    2  A    between atoms: C_6  and  C_7 
REMARK    3  A    between atoms: C_11  and  C_12 
REMARK       I    between atoms: C_12  and  N_13 
REMARK    4  A    between atoms: N_13  and  N_14 
REMARK       I    between atoms: N_14  and  C_15 
REMARK    5  A    between atoms: C_15  and  C_16 
REMARK    6  A    between atoms: C_16  and  C_17 
ROOT
HETATM    1  C   UNL     1     -42.818  57.059 -56.666  1.00  0.00     0.288 C 
HETATM    2  N   UNL     1     -42.349  56.702 -57.912  1.00  0.00    -0.262 N 
HETATM    3  O   UNL     1     -43.650  57.954 -56.516  1.00  0.00    -0.264 OA
HETATM    4  H   UNL     1     -41.793  55.862 -58.060  1.00  0.00     0.190 HD
ENDROOT
BRANCH   1   5
HETATM    5  C   UNL     1     -42.287  56.302 -55.566  1.00  0.00     0.121 A 
HETATM    6  N   UNL     1     -42.374  56.743 -54.276  1.00  0.00    -0.272 N 
HETATM    7  N   UNL     1     -41.838  55.910 -53.372  1.00  0.00    -0.174 NA
HETATM    8  H   UNL     1     -42.790  57.612 -53.955  1.00  0.00     0.189 HD
HETATM    9  C   UNL     1     -41.404  54.861 -54.089  1.00  0.00     0.089 A 
HETATM   10  C   UNL     1     -41.649  55.081 -55.474  1.00  0.00     0.071 A 
BRANCH   9  11
HETATM   11  C   UNL     1     -40.778  53.696 -53.456  1.00  0.00    -0.005 A 
HETATM   12  C   UNL     1     -40.473  53.692 -52.089  1.00  0.00     0.016 A 
HETATM   13  C   UNL     1     -39.875  52.574 -51.499  1.00  0.00     0.037 A 
HETATM   14  C   UNL     1     -39.573  51.440 -52.254  1.00  0.00     0.068 A 
HETATM   15  C   UNL     1     -39.867  51.437 -53.617  1.00  0.00     0.037 A 
HETATM   16  C   UNL     1     -40.462  52.558 -54.212  1.00  0.00     0.016 A 
BRANCH  14  17
HETATM   17  O   UNL     1     -38.996  50.421 -51.551  1.00  0.00    -0.356 OA
HETATM   18  C   UNL     1     -39.868  49.586 -50.799  1.00  0.00     0.210 C 
ENDBRANCH  14  17
ENDBRANCH   9  11
ENDBRANCH   1   5
BRANCH   2  19
HETATM   19  N   UNL     1     -43.035  57.173 -59.044  1.00  0.00    -0.267 N 
HETATM   20  C   UNL     1     -43.941  56.310 -59.627  1.00  0.00     0.240 C 
HETATM   21  O   UNL     1     -43.998  55.119 -59.322  1.00  0.00    -0.272 OA
HETATM   22  H   UNL     1     -43.087  58.186 -59.155  1.00  0.00     0.190 HD
BRANCH  20  23
HETATM   23  C   UNL     1     -44.845  56.945 -60.664  1.00  0.00     0.148 C 
BRANCH  23  24
HETATM   24  C   UNL     1     -45.568  58.156 -60.139  1.00  0.00     0.011 A 
HETATM   25  C   UNL     1     -45.169  59.471 -60.414  1.00  0.00     0.043 A 
HETATM   26 CL   UNL     1     -43.775  59.817 -61.376  1.00  0.00    -0.084 Cl
HETATM   27  C   UNL     1     -45.891  60.559 -59.908  1.00  0.00     0.024 A 
HETATM   28  C   UNL     1     -47.029  60.349 -59.129  1.00  0.00     0.005 A 
HETATM   29  C   UNL     1     -47.445  59.050 -58.858  1.00  0.00     0.043 A 
HETATM   30  C   UNL     1     -46.719  57.974 -59.363  1.00  0.00     0.124 A 
HETATM   31  F   UNL     1     -47.141  56.734 -59.078  1.00  0.00    -0.205 F 
ENDBRANCH  23  24
ENDBRANCH  20  23
ENDBRANCH   2  19
TORSDOF 6
ENDMDL
MODEL 10
REMARK VINA RESULT:      -7.4      4.598     10.760
REMARK  6 active torsions:
REMARK  status: ('A' for Active; 'I' for Inactive)
REMARK    1  A    between atoms: O_2  and  C_3 
REMARK    2  A    between atoms: C_6  and  C_7 
REMARK    3  A    between atoms: C_11  and  C_12 
REMARK       I    between atoms: C_12  and  N_13 
REMARK    4  A    between atoms: N_13  and  N_14 
REMARK       I    between atoms: N_14  and  C_15 
REMARK    5  A    between atoms: C_15  and  C_16 
REMARK    6  A    between atoms: C_16  and  C_17 
ROOT
HETATM    1  C   UNL     1     -43.138  56.132 -57.119  1.00  0.00     0.288 C 
HETATM    2  N   UNL     1     -44.194  56.944 -56.760  1.00  0.00    -0.262 N 
HETATM    3  O   UNL     1     -42.886  55.876 -58.295  1.00  0.00    -0.264 OA
HETATM    4  H   UNL     1     -44.308  57.294 -55.810  1.00  0.00     0.190 HD
ENDROOT
BRANCH   1   5
HETATM    5  C   UNL     1     -42.347  55.630 -56.029  1.00  0.00     0.121 A 
HETATM    6  N   UNL     1     -41.720  56.465 -55.147  1.00  0.00    -0.272 N 
HETATM    7  N   UNL     1     -41.033  55.832 -54.184  1.00  0.00    -0.174 NA
HETATM    8  H   UNL     1     -41.727  57.480 -55.158  1.00  0.00     0.189 HD
HETATM    9  C   UNL     1     -41.237  54.527 -54.420  1.00  0.00     0.089 A 
HETATM   10  C   UNL     1     -42.040  54.360 -55.585  1.00  0.00     0.071 A 
BRANCH   9  11
HETATM   11  C   UNL     1     -40.676  53.487 -53.554  1.00  0.00    -0.005 A 
HETATM   12  C   UNL     1     -40.248  52.260 -54.078  1.00  0.00     0.016 A 
HETATM   13  C   UNL     1     -39.715  51.276 -53.239  1.00  0.00     0.037 A 
HETATM   14  C   UNL     1     -39.594  51.494 -51.866  1.00  0.00     0.068 A 
HETATM   15  C   UNL     1     -40.024  52.709 -51.333  1.00  0.00     0.037 A 
HETATM   16  C   UNL     1     -40.562  53.695 -52.171  1.00  0.00     0.016 A 
BRANCH  14  17
HETATM   17  O   UNL     1     -39.054  50.452 -51.167  1.00  0.00    -0.356 OA
HETATM   18  C   UNL     1     -39.910  49.350 -50.892  1.00  0.00     0.210 C 
ENDBRANCH  14  17
ENDBRANCH   9  11
ENDBRANCH   1   5
BRANCH   2  19
HETATM   19  N   UNL     1     -44.815  57.711 -57.759  1.00  0.00    -0.267 N 
HETATM   20  C   UNL     1     -44.628  59.078 -57.702  1.00  0.00     0.240 C 
HETATM   21  O   UNL     1     -44.133  59.629 -56.719  1.00  0.00    -0.272 OA
HETATM   22  H   UNL     1     -45.060  57.222 -58.620  1.00  0.00     0.190 HD
BRANCH  20  23
HETATM   23  C   UNL     1     -45.082  59.832 -58.935  1.00  0.00     0.148 C 
BRANCH  23  24
HETATM   24  C   UNL     1     -43.932  60.408 -59.718  1.00  0.00     0.011 A 
HETATM   25  C   UNL     1     -43.480  61.725 -59.565  1.00  0.00     0.043 A 
HETATM   26 CL   UNL     1     -44.231  62.824 -58.463  1.00  0.00    -0.084 Cl
HETATM   27  C   UNL     1     -42.396  62.201 -60.313  1.00  0.00     0.024 A 
HETATM   28  C   UNL     1     -41.741  61.364 -61.217  1.00  0.00     0.005 A 
HETATM   29  C   UNL     1     -42.171  60.050 -61.370  1.00  0.00     0.043 A 
HETATM   30  C   UNL     1     -43.252  59.586 -60.624  1.00  0.00     0.124 A 
HETATM   31  F   UNL     1     -43.647  58.317 -60.800  1.00  0.00    -0.205 F 
ENDBRANCH  23  24
ENDBRANCH  20  23
ENDBRANCH   2  19
TORSDOF 6
ENDMDL
