MODEL 1
REMARK VINA RESULT:      -7.9      0.000      0.000
REMARK  6 active torsions:
REMARK  status: ('A' for Active; 'I' for Inactive)
REMARK    1  A    between atoms: N_2  and  C_5 
REMARK    2  A    between atoms: C_5  and  C_6 
REMARK    3  A    between atoms: C_6  and  N_7 
REMARK    4  A    between atoms: C_6  and  C_23 
REMARK       I    between atoms: N_7  and  C_8 
REMARK    5  A    between atoms: C_8  and  C_10 
REMARK    6  A    between atoms: C_13  and  C_17 
ROOT
HETATM    1  N   UNL     1     -40.997  54.170 -52.695  1.00  0.00    -0.347 N 
HETATM    2  C   UNL     1     -42.276  54.544 -53.041  1.00  0.00     0.252 C 
HETATM    3  O   UNL     1     -43.213  54.438 -52.253  1.00  0.00    -0.268 OA
HETATM    4  H   UNL     1     -40.342  54.039 -53.461  1.00  0.00     0.163 HD
ENDROOT
BRANCH   2   5
HETATM    5  C   UNL     1     -42.485  55.081 -54.410  1.00  0.00     0.032 A 
HETATM    6  C   UNL     1     -42.924  54.205 -55.405  1.00  0.00     0.018 A 
HETATM    7  C   UNL     1     -43.165  54.677 -56.695  1.00  0.00     0.014 A 
HETATM    8  C   UNL     1     -42.978  56.032 -57.013  1.00  0.00    -0.017 A 
HETATM    9  C   UNL     1     -42.528  56.923 -56.017  1.00  0.00    -0.050 A 
HETATM   10  C   UNL     1     -42.311  58.390 -56.284  1.00  0.00     0.049 C 
HETATM   11  C   UNL     1     -42.298  56.436 -54.714  1.00  0.00     0.024 A 
BRANCH   8  12
HETATM   12  C   UNL     1     -43.287  56.472 -58.361  1.00  0.00     0.011 A 
HETATM   13  C   UNL     1     -42.499  56.502 -59.533  1.00  0.00     0.152 A 
HETATM   14  N   UNL     1     -43.159  56.997 -60.582  1.00  0.00    -0.187 NA
HETATM   15  N   UNL     1     -44.369  57.298 -60.083  1.00  0.00    -0.289 N 
HETATM   16  H   UNL     1     -45.060  57.703 -60.707  1.00  0.00     0.188 HD
HETATM   17  C   UNL     1     -44.495  57.008 -58.753  1.00  0.00     0.123 A 
ENDBRANCH   8  12
ENDBRANCH   2   5
BRANCH   1  18
HETATM   18  C   UNL     1     -40.688  53.435 -51.463  1.00  0.00     0.143 C 
BRANCH  18  19
HETATM   19  C   UNL     1     -39.605  54.109 -50.556  1.00  0.00     0.263 C 
BRANCH  19  20
HETATM   20  N   UNL     1     -40.171  54.731 -49.289  1.00  0.00    -0.076 N 
HETATM   21  C   UNL     1     -41.323  55.657 -49.527  1.00  0.00     0.269 C 
HETATM   22  H   UNL     1     -39.410  55.328 -48.899  1.00  0.00     0.279 HD
HETATM   23  C   UNL     1     -40.473  53.714 -48.233  1.00  0.00     0.269 C 
ENDBRANCH  19  20
ENDBRANCH  18  19
BRANCH  18  24
HETATM   24  C   UNL     1     -40.232  52.031 -51.820  1.00  0.00    -0.034 A 
HETATM   25  C   UNL     1     -40.031  51.678 -53.164  1.00  0.00     0.009 A 
HETATM   26  C   UNL     1     -39.631  50.385 -53.505  1.00  0.00     0.001 A 
HETATM   27  C   UNL     1     -39.424  49.431 -52.511  1.00  0.00     0.000 A 
HETATM   28  C   UNL     1     -39.613  49.769 -51.173  1.00  0.00     0.001 A 
HETATM   29  C   UNL     1     -40.013  51.060 -50.827  1.00  0.00     0.009 A 
ENDBRANCH  18  24
ENDBRANCH   1  18
TORSDOF 6
ENDMDL
MODEL 2
REMARK VINA RESULT:      -7.5      2.634      8.109
REMARK  6 active torsions:
REMARK  status: ('A' for Active; 'I' for Inactive)
REMARK    1  A    between atoms: N_2  and  C_5 
REMARK    2  A    between atoms: C_5  and  C_6 
REMARK    3  A    between atoms: C_6  and  N_7 
REMARK    4  A    between atoms: C_6  and  C_23 
REMARK       I    between atoms: N_7  and  C_8 
REMARK    5  A    between atoms: C_8  and  C_10 
REMARK    6  A    between atoms: C_13  and  C_17 
ROOT
HETATM    1  N   UNL     1     -42.231  56.618 -55.347  1.00  0.00    -0.347 N 
HETATM    2  C   UNL     1     -41.320  56.475 -54.325  1.00  0.00     0.252 C 
HETATM    3  O   UNL     1     -40.798  57.447 -53.786  1.00  0.00    -0.268 OA
HETATM    4  H   UNL     1     -42.415  55.791 -55.907  1.00  0.00     0.163 HD
ENDROOT
BRANCH   2   5
HETATM    5  C   UNL     1     -40.987  55.092 -53.894  1.00  0.00     0.032 A 
HETATM    6  C   UNL     1     -40.631  54.162 -54.873  1.00  0.00     0.018 A 
HETATM    7  C   UNL     1     -40.279  52.863 -54.507  1.00  0.00     0.014 A 
HETATM    8  C   UNL     1     -40.269  52.471 -53.158  1.00  0.00    -0.017 A 
HETATM    9  C   UNL     1     -40.635  53.402 -52.163  1.00  0.00    -0.050 A 
HETATM   10  C   UNL     1     -40.643  53.054 -50.697  1.00  0.00     0.049 C 
HETATM   11  C   UNL     1     -40.979  54.715 -52.545  1.00  0.00     0.024 A 
BRANCH   8  12
HETATM   12  C   UNL     1     -39.851  51.120 -52.837  1.00  0.00     0.011 A 
HETATM   13  C   UNL     1     -39.731  49.967 -53.644  1.00  0.00     0.152 A 
HETATM   14  N   UNL     1     -39.319  48.900 -52.955  1.00  0.00    -0.187 NA
HETATM   15  N   UNL     1     -39.186  49.362 -51.702  1.00  0.00    -0.289 N 
HETATM   16  H   UNL     1     -38.880  48.717 -50.981  1.00  0.00     0.188 HD
HETATM   17  C   UNL     1     -39.499  50.687 -51.576  1.00  0.00     0.123 A 
ENDBRANCH   8  12
ENDBRANCH   2   5
BRANCH   1  18
HETATM   18  C   UNL     1     -42.490  57.903 -56.007  1.00  0.00     0.143 C 
BRANCH  18  19
HETATM   19  C   UNL     1     -43.861  58.561 -55.638  1.00  0.00     0.263 C 
BRANCH  19  20
HETATM   20  N   UNL     1     -43.748  59.669 -54.603  1.00  0.00    -0.076 N 
HETATM   21  C   UNL     1     -42.482  60.462 -54.696  1.00  0.00     0.269 C 
HETATM   22  H   UNL     1     -43.710  59.191 -53.676  1.00  0.00     0.279 HD
HETATM   23  C   UNL     1     -44.961  60.544 -54.561  1.00  0.00     0.269 C 
ENDBRANCH  19  20
ENDBRANCH  18  19
BRANCH  18  24
HETATM   24  C   UNL     1     -42.421  57.714 -57.513  1.00  0.00    -0.034 A 
HETATM   25  C   UNL     1     -41.958  58.757 -58.330  1.00  0.00     0.009 A 
HETATM   26  C   UNL     1     -41.909  58.602 -59.717  1.00  0.00     0.001 A 
HETATM   27  C   UNL     1     -42.318  57.406 -60.302  1.00  0.00     0.000 A 
HETATM   28  C   UNL     1     -42.773  56.360 -59.503  1.00  0.00     0.001 A 
HETATM   29  C   UNL     1     -42.824  56.511 -58.117  1.00  0.00     0.009 A 
ENDBRANCH  18  24
ENDBRANCH   1  18
TORSDOF 6
ENDMDL
MODEL 3
REMARK VINA RESULT:      -7.4      1.235      2.108
REMARK  6 active torsions:
REMARK  status: ('A' for Active; 'I' for Inactive)
REMARK    1  A    between atoms: N_2  and  C_5 
REMARK    2  A    between atoms: C_5  and  C_6 
REMARK    3  A    between atoms: C_6  and  N_7 
REMARK    4  A    between atoms: C_6  and  C_23 
REMARK       I    between atoms: N_7  and  C_8 
REMARK    5  A    between atoms: C_8  and  C_10 
REMARK    6  A    between atoms: C_13  and  C_17 
ROOT
HETATM    1  N   UNL     1     -41.373  54.655 -53.526  1.00  0.00    -0.347 N 
HETATM    2  C   UNL     1     -42.554  55.274 -53.868  1.00  0.00     0.252 C 
HETATM    3  O   UNL     1     -43.519  55.287 -53.108  1.00  0.00    -0.268 OA
HETATM    4  H   UNL     1     -40.729  54.459 -54.287  1.00  0.00     0.163 HD
ENDROOT
BRANCH   2   5
HETATM    5  C   UNL     1     -42.622  55.929 -55.201  1.00  0.00     0.032 A 
HETATM    6  C   UNL     1     -42.202  57.256 -55.308  1.00  0.00     0.018 A 
HETATM    7  C   UNL     1     -42.218  57.896 -56.548  1.00  0.00     0.014 A 
HETATM    8  C   UNL     1     -42.646  57.220 -57.703  1.00  0.00    -0.017 A 
HETATM    9  C   UNL     1     -43.078  55.881 -57.602  1.00  0.00    -0.050 A 
HETATM   10  C   UNL     1     -43.545  55.091 -58.798  1.00  0.00     0.049 C 
HETATM   11  C   UNL     1     -43.048  55.242 -56.345  1.00  0.00     0.024 A 
BRANCH   8  12
HETATM   12  C   UNL     1     -42.598  57.923 -58.970  1.00  0.00     0.011 A 
HETATM   13  C   UNL     1     -43.505  58.827 -59.567  1.00  0.00     0.152 A 
HETATM   14  N   UNL     1     -43.094  59.251 -60.764  1.00  0.00    -0.187 NA
HETATM   15  N   UNL     1     -41.928  58.610 -60.944  1.00  0.00    -0.289 N 
HETATM   16  H   UNL     1     -41.417  58.773 -61.806  1.00  0.00     0.188 HD
HETATM   17  C   UNL     1     -41.587  57.797 -59.900  1.00  0.00     0.123 A 
ENDBRANCH   8  12
ENDBRANCH   2   5
BRANCH   1  18
HETATM   18  C   UNL     1     -41.238  53.798 -52.343  1.00  0.00     0.143 C 
BRANCH  18  19
HETATM   19  C   UNL     1     -40.391  54.417 -51.182  1.00  0.00     0.263 C 
BRANCH  19  20
HETATM   20  N   UNL     1     -41.230  54.958 -50.035  1.00  0.00    -0.076 N 
HETATM   21  C   UNL     1     -40.764  54.520 -48.681  1.00  0.00     0.269 C 
HETATM   22  H   UNL     1     -42.178  54.540 -50.152  1.00  0.00     0.279 HD
HETATM   23  C   UNL     1     -41.424  56.440 -50.113  1.00  0.00     0.269 C 
ENDBRANCH  19  20
ENDBRANCH  18  19
BRANCH  18  24
HETATM   24  C   UNL     1     -40.621  52.472 -52.754  1.00  0.00    -0.034 A 
HETATM   25  C   UNL     1     -40.707  52.041 -54.087  1.00  0.00     0.009 A 
HETATM   26  C   UNL     1     -40.161  50.815 -54.472  1.00  0.00     0.001 A 
HETATM   27  C   UNL     1     -39.522  50.008 -53.534  1.00  0.00     0.000 A 
HETATM   28  C   UNL     1     -39.423  50.426 -52.209  1.00  0.00     0.001 A 
HETATM   29  C   UNL     1     -39.968  51.650 -51.820  1.00  0.00     0.009 A 
ENDBRANCH  18  24
ENDBRANCH   1  18
TORSDOF 6
ENDMDL
MODEL 4
REMARK VINA RESULT:      -7.4      1.343      2.271
REMARK  6 active torsions:
REMARK  status: ('A' for Active; 'I' for Inactive)
REMARK    1  A    between atoms: N_2  and  C_5 
REMARK    2  A    between atoms: C_5  and  C_6 
REMARK    3  A    between atoms: C_6  and  N_7 
REMARK    4  A    between atoms: C_6  and  C_23 
REMARK       I    between atoms: N_7  and  C_8 
REMARK    5  A    between atoms: C_8  and  C_10 
REMARK    6  A    between atoms: C_13  and  C_17 
ROOT
HETATM    1  N   UNL     1     -41.422  54.780 -53.573  1.00  0.00    -0.347 N 
HETATM    2  C   UNL     1     -42.575  55.466 -53.883  1.00  0.00     0.252 C 
HETATM    3  O   UNL     1     -43.513  55.541 -53.093  1.00  0.00    -0.268 OA
HETATM    4  H   UNL     1     -40.815  54.542 -54.352  1.00  0.00     0.163 HD
ENDROOT
BRANCH   2   5
HETATM    5  C   UNL     1     -42.645  56.117 -55.217  1.00  0.00     0.032 A 
HETATM    6  C   UNL     1     -42.268  57.457 -55.321  1.00  0.00     0.018 A 
HETATM    7  C   UNL     1     -42.288  58.094 -56.562  1.00  0.00     0.014 A 
HETATM    8  C   UNL     1     -42.677  57.402 -57.721  1.00  0.00    -0.017 A 
HETATM    9  C   UNL     1     -43.067  56.050 -57.624  1.00  0.00    -0.050 A 
HETATM   10  C   UNL     1     -43.490  55.244 -58.825  1.00  0.00     0.049 C 
HETATM   11  C   UNL     1     -43.033  55.415 -56.366  1.00  0.00     0.024 A 
BRANCH   8  12
HETATM   12  C   UNL     1     -42.635  58.105 -58.989  1.00  0.00     0.011 A 
HETATM   13  C   UNL     1     -41.626  58.184 -59.976  1.00  0.00     0.152 A 
HETATM   14  N   UNL     1     -41.978  58.956 -61.007  1.00  0.00    -0.187 NA
HETATM   15  N   UNL     1     -43.206  59.385 -60.679  1.00  0.00    -0.289 N 
HETATM   16  H   UNL     1     -43.688  60.005 -61.323  1.00  0.00     0.188 HD
HETATM   17  C   UNL     1     -43.645  58.909 -59.475  1.00  0.00     0.123 A 
ENDBRANCH   8  12
ENDBRANCH   2   5
BRANCH   1  18
HETATM   18  C   UNL     1     -41.302  53.922 -52.388  1.00  0.00     0.143 C 
BRANCH  18  19
HETATM   19  C   UNL     1     -40.468  54.541 -51.217  1.00  0.00     0.263 C 
BRANCH  19  20
HETATM   20  N   UNL     1     -41.317  55.232 -50.162  1.00  0.00    -0.076 N 
HETATM   21  C   UNL     1     -41.019  54.797 -48.760  1.00  0.00     0.269 C 
HETATM   22  H   UNL     1     -42.300  54.933 -50.343  1.00  0.00     0.279 HD
HETATM   23  C   UNL     1     -41.311  56.723 -50.302  1.00  0.00     0.269 C 
ENDBRANCH  19  20
ENDBRANCH  18  19
BRANCH  18  24
HETATM   24  C   UNL     1     -40.680  52.596 -52.792  1.00  0.00    -0.034 A 
HETATM   25  C   UNL     1     -39.985  51.830 -51.844  1.00  0.00     0.009 A 
HETATM   26  C   UNL     1     -39.392  50.620 -52.208  1.00  0.00     0.001 A 
HETATM   27  C   UNL     1     -39.489  50.160 -53.519  1.00  0.00     0.000 A 
HETATM   28  C   UNL     1     -40.181  50.907 -54.469  1.00  0.00     0.001 A 
HETATM   29  C   UNL     1     -40.775  52.117 -54.109  1.00  0.00     0.009 A 
ENDBRANCH  18  24
ENDBRANCH   1  18
TORSDOF 6
ENDMDL
MODEL 5
REMARK VINA RESULT:      -7.1      1.963      3.056
REMARK  6 active torsions:
REMARK  status: ('A' for Active; 'I' for Inactive)
REMARK    1  A    between atoms: N_2  and  C_5 
REMARK    2  A    between atoms: C_5  and  C_6 
REMARK    3  A    between atoms: C_6  and  N_7 
REMARK    4  A    between atoms: C_6  and  C_23 
REMARK       I    between atoms: N_7  and  C_8 
REMARK    5  A    between atoms: C_8  and  C_10 
REMARK    6  A    between atoms: C_13  and  C_17 
ROOT
HETATM    1  N   UNL     1     -42.731  54.821 -54.043  1.00  0.00    -0.347 N 
HETATM    2  C   UNL     1     -42.133  55.771 -54.841  1.00  0.00     0.252 C 
HETATM    3  O   UNL     1     -41.005  56.194 -54.603  1.00  0.00    -0.268 OA
HETATM    4  H   UNL     1     -43.737  54.716 -54.141  1.00  0.00     0.163 HD
ENDROOT
BRANCH   2   5
HETATM    5  C   UNL     1     -42.909  56.270 -56.006  1.00  0.00     0.032 A 
HETATM    6  C   UNL     1     -43.636  57.452 -55.859  1.00  0.00     0.018 A 
HETATM    7  C   UNL     1     -44.350  57.973 -56.939  1.00  0.00     0.014 A 
HETATM    8  C   UNL     1     -44.343  57.326 -58.186  1.00  0.00    -0.017 A 
HETATM    9  C   UNL     1     -43.617  56.127 -58.341  1.00  0.00    -0.050 A 
HETATM   10  C   UNL     1     -43.559  55.382 -59.650  1.00  0.00     0.049 C 
HETATM   11  C   UNL     1     -42.891  55.617 -57.245  1.00  0.00     0.024 A 
BRANCH   8  12
HETATM   12  C   UNL     1     -45.068  57.938 -59.283  1.00  0.00     0.011 A 
HETATM   13  C   UNL     1     -46.410  57.800 -59.704  1.00  0.00     0.152 A 
HETATM   14  N   UNL     1     -46.687  58.538 -60.780  1.00  0.00    -0.187 NA
HETATM   15  N   UNL     1     -45.522  59.142 -61.062  1.00  0.00    -0.289 N 
HETATM   16  H   UNL     1     -45.484  59.765 -61.861  1.00  0.00     0.188 HD
HETATM   17  C   UNL     1     -44.517  58.812 -60.196  1.00  0.00     0.123 A 
ENDBRANCH   8  12
ENDBRANCH   2   5
BRANCH   1  18
HETATM   18  C   UNL     1     -42.172  54.399 -52.753  1.00  0.00     0.143 C 
BRANCH  18  19
HETATM   19  C   UNL     1     -41.414  55.524 -51.972  1.00  0.00     0.263 C 
BRANCH  19  20
HETATM   20  N   UNL     1     -42.284  56.724 -51.632  1.00  0.00    -0.076 N 
HETATM   21  C   UNL     1     -43.557  56.373 -50.926  1.00  0.00     0.269 C 
HETATM   22  H   UNL     1     -42.577  57.134 -52.546  1.00  0.00     0.279 HD
HETATM   23  C   UNL     1     -41.526  57.804 -50.925  1.00  0.00     0.269 C 
ENDBRANCH  19  20
ENDBRANCH  18  19
BRANCH  18  24
HETATM   24  C   UNL     1     -41.228  53.229 -52.975  1.00  0.00    -0.034 A 
HETATM   25  C   UNL     1     -40.335  52.847 -51.963  1.00  0.00     0.009 A 
HETATM   26  C   UNL     1     -39.450  51.786 -52.163  1.00  0.00     0.001 A 
HETATM   27  C   UNL     1     -39.448  51.094 -53.373  1.00  0.00     0.000 A 
HETATM   28  C   UNL     1     -40.333  51.459 -54.384  1.00  0.00     0.001 A 
HETATM   29  C   UNL     1     -41.220  52.519 -54.188  1.00  0.00     0.009 A 
ENDBRANCH  18  24
ENDBRANCH   1  18
TORSDOF 6
ENDMDL
MODEL 6
REMARK VINA RESULT:      -7.1      2.509      8.153
REMARK  6 active torsions:
REMARK  status: ('A' for Active; 'I' for Inactive)
REMARK    1  A    between atoms: N_2  and  C_5 
REMARK    2  A    between atoms: C_5  and  C_6 
REMARK    3  A    between atoms: C_6  and  N_7 
REMARK    4  A    between atoms: C_6  and  C_23 
REMARK       I    between atoms: N_7  and  C_8 
REMARK    5  A    between atoms: C_8  and  C_10 
REMARK    6  A    between atoms: C_13  and  C_17 
ROOT
HETATM    1  N   UNL     1     -42.493  56.510 -55.135  1.00  0.00    -0.347 N 
HETATM    2  C   UNL     1     -41.596  56.575 -54.093  1.00  0.00     0.252 C 
HETATM    3  O   UNL     1     -41.166  57.648 -53.678  1.00  0.00    -0.268 OA
HETATM    4  H   UNL     1     -42.597  55.606 -55.586  1.00  0.00     0.163 HD
ENDROOT
BRANCH   2   5
HETATM    5  C   UNL     1     -41.161  55.290 -53.485  1.00  0.00     0.032 A 
HETATM    6  C   UNL     1     -40.992  55.237 -52.100  1.00  0.00     0.018 A 
HETATM    7  C   UNL     1     -40.617  54.041 -51.487  1.00  0.00     0.014 A 
HETATM    8  C   UNL     1     -40.412  52.877 -52.245  1.00  0.00    -0.017 A 
HETATM    9  C   UNL     1     -40.572  52.923 -53.645  1.00  0.00    -0.050 A 
HETATM   10  C   UNL     1     -40.374  51.712 -54.521  1.00  0.00     0.049 C 
HETATM   11  C   UNL     1     -40.961  54.135 -54.252  1.00  0.00     0.024 A 
BRANCH   8  12
HETATM   12  C   UNL     1     -40.066  51.653 -51.546  1.00  0.00     0.011 A 
HETATM   13  C   UNL     1     -40.430  51.179 -50.266  1.00  0.00     0.152 A 
HETATM   14  N   UNL     1     -39.886  49.993 -49.985  1.00  0.00    -0.187 NA
HETATM   15  N   UNL     1     -39.161  49.709 -51.079  1.00  0.00    -0.289 N 
HETATM   16  H   UNL     1     -38.640  48.838 -51.099  1.00  0.00     0.188 HD
HETATM   17  C   UNL     1     -39.231  50.675 -52.043  1.00  0.00     0.123 A 
ENDBRANCH   8  12
ENDBRANCH   2   5
BRANCH   1  18
HETATM   18  C   UNL     1     -42.842  57.674 -55.958  1.00  0.00     0.143 C 
BRANCH  18  19
HETATM   19  C   UNL     1     -44.298  58.207 -55.749  1.00  0.00     0.263 C 
BRANCH  19  20
HETATM   20  N   UNL     1     -44.390  59.368 -54.772  1.00  0.00    -0.076 N 
HETATM   21  C   UNL     1     -44.640  58.953 -53.355  1.00  0.00     0.269 C 
HETATM   22  H   UNL     1     -45.232  59.915 -55.054  1.00  0.00     0.279 HD
HETATM   23  C   UNL     1     -43.233  60.311 -54.887  1.00  0.00     0.269 C 
ENDBRANCH  19  20
ENDBRANCH  18  19
BRANCH  18  24
HETATM   24  C   UNL     1     -42.647  57.327 -57.424  1.00  0.00    -0.034 A 
HETATM   25  C   UNL     1     -42.018  58.241 -58.284  1.00  0.00     0.009 A 
HETATM   26  C   UNL     1     -41.851  57.941 -59.637  1.00  0.00     0.001 A 
HETATM   27  C   UNL     1     -42.306  56.726 -60.146  1.00  0.00     0.000 A 
HETATM   28  C   UNL     1     -42.927  55.807 -59.303  1.00  0.00     0.001 A 
HETATM   29  C   UNL     1     -43.095  56.103 -57.950  1.00  0.00     0.009 A 
ENDBRANCH  18  24
ENDBRANCH   1  18
TORSDOF 6
ENDMDL
MODEL 7
REMARK VINA RESULT:      -6.9      2.052      3.069
REMARK  6 active torsions:
REMARK  status: ('A' for Active; 'I' for Inactive)
REMARK    1  A    between atoms: N_2  and  C_5 
REMARK    2  A    between atoms: C_5  and  C_6 
REMARK    3  A    between atoms: C_6  and  N_7 
REMARK    4  A    between atoms: C_6  and  C_23 
REMARK       I    between atoms: N_7  and  C_8 
REMARK    5  A    between atoms: C_8  and  C_10 
REMARK    6  A    between atoms: C_13  and  C_17 
ROOT
HETATM    1  N   UNL     1     -42.502  55.600 -54.105  1.00  0.00    -0.347 N 
HETATM    2  C   UNL     1     -43.640  56.114 -54.684  1.00  0.00     0.252 C 
HETATM    3  O   UNL     1     -44.737  56.031 -54.137  1.00  0.00    -0.268 OA
HETATM    4  H   UNL     1     -41.702  55.473 -54.717  1.00  0.00     0.163 HD
ENDROOT
BRANCH   2   5
HETATM    5  C   UNL     1     -43.495  56.777 -56.006  1.00  0.00     0.032 A 
HETATM    6  C   UNL     1     -43.646  58.164 -56.072  1.00  0.00     0.018 A 
HETATM    7  C   UNL     1     -43.484  58.828 -57.288  1.00  0.00     0.014 A 
HETATM    8  C   UNL     1     -43.160  58.120 -58.457  1.00  0.00    -0.017 A 
HETATM    9  C   UNL     1     -43.012  56.719 -58.402  1.00  0.00    -0.050 A 
HETATM   10  C   UNL     1     -42.660  55.896 -59.614  1.00  0.00     0.049 C 
HETATM   11  C   UNL     1     -43.169  56.060 -57.165  1.00  0.00     0.024 A 
BRANCH   8  12
HETATM   12  C   UNL     1     -42.960  58.871 -59.682  1.00  0.00     0.011 A 
HETATM   13  C   UNL     1     -41.790  59.140 -60.428  1.00  0.00     0.152 A 
HETATM   14  N   UNL     1     -42.031  59.889 -61.506  1.00  0.00    -0.187 NA
HETATM   15  N   UNL     1     -43.353  60.114 -61.449  1.00  0.00    -0.289 N 
HETATM   16  H   UNL     1     -43.778  60.678 -62.178  1.00  0.00     0.188 HD
HETATM   17  C   UNL     1     -43.957  59.529 -60.371  1.00  0.00     0.123 A 
ENDBRANCH   8  12
ENDBRANCH   2   5
BRANCH   1  18
HETATM   18  C   UNL     1     -42.534  54.743 -52.914  1.00  0.00     0.143 C 
BRANCH  18  19
HETATM   19  C   UNL     1     -42.297  55.495 -51.562  1.00  0.00     0.263 C 
BRANCH  19  20
HETATM   20  N   UNL     1     -42.058  56.988 -51.728  1.00  0.00    -0.076 N 
HETATM   21  C   UNL     1     -43.258  57.833 -51.432  1.00  0.00     0.269 C 
HETATM   22  H   UNL     1     -41.857  57.135 -52.741  1.00  0.00     0.279 HD
HETATM   23  C   UNL     1     -40.841  57.462 -50.997  1.00  0.00     0.269 C 
ENDBRANCH  19  20
ENDBRANCH  18  19
BRANCH  18  24
HETATM   24  C   UNL     1     -41.493  53.646 -53.060  1.00  0.00    -0.034 A 
HETATM   25  C   UNL     1     -41.315  53.008 -54.297  1.00  0.00     0.009 A 
HETATM   26  C   UNL     1     -40.375  51.985 -54.437  1.00  0.00     0.001 A 
HETATM   27  C   UNL     1     -39.602  51.590 -53.348  1.00  0.00     0.000 A 
HETATM   28  C   UNL     1     -39.763  52.219 -52.116  1.00  0.00     0.001 A 
HETATM   29  C   UNL     1     -40.702  53.242 -51.971  1.00  0.00     0.009 A 
ENDBRANCH  18  24
ENDBRANCH   1  18
TORSDOF 6
ENDMDL
MODEL 8
REMARK VINA RESULT:      -6.9      2.008      4.096
REMARK  6 active torsions:
REMARK  status: ('A' for Active; 'I' for Inactive)
REMARK    1  A    between atoms: N_2  and  C_5 
REMARK    2  A    between atoms: C_5  and  C_6 
REMARK    3  A    between atoms: C_6  and  N_7 
REMARK    4  A    between atoms: C_6  and  C_23 
REMARK       I    between atoms: N_7  and  C_8 
REMARK    5  A    between atoms: C_8  and  C_10 
REMARK    6  A    between atoms: C_13  and  C_17 
ROOT
HETATM    1  N   UNL     1     -41.585  54.167 -55.022  1.00  0.00    -0.347 N 
HETATM    2  C   UNL     1     -41.472  55.523 -55.230  1.00  0.00     0.252 C 
HETATM    3  O   UNL     1     -40.688  56.212 -54.582  1.00  0.00    -0.268 OA
HETATM    4  H   UNL     1     -42.417  53.720 -55.396  1.00  0.00     0.163 HD
ENDROOT
BRANCH   2   5
HETATM    5  C   UNL     1     -42.340  56.129 -56.273  1.00  0.00     0.032 A 
HETATM    6  C   UNL     1     -42.637  57.490 -56.178  1.00  0.00     0.018 A 
HETATM    7  C   UNL     1     -43.420  58.105 -57.155  1.00  0.00     0.014 A 
HETATM    8  C   UNL     1     -43.915  57.373 -58.247  1.00  0.00    -0.017 A 
HETATM    9  C   UNL     1     -43.627  55.996 -58.347  1.00  0.00    -0.050 A 
HETATM   10  C   UNL     1     -44.119  55.149 -59.493  1.00  0.00     0.049 C 
HETATM   11  C   UNL     1     -42.825  55.389 -57.358  1.00  0.00     0.024 A 
BRANCH   8  12
HETATM   12  C   UNL     1     -44.687  58.076 -59.254  1.00  0.00     0.011 A 
HETATM   13  C   UNL     1     -46.080  58.266 -59.393  1.00  0.00     0.152 A 
HETATM   14  N   UNL     1     -46.395  58.974 -60.480  1.00  0.00    -0.187 NA
HETATM   15  N   UNL     1     -45.206  59.229 -61.049  1.00  0.00    -0.289 N 
HETATM   16  H   UNL     1     -45.189  59.762 -61.912  1.00  0.00     0.188 HD
HETATM   17  C   UNL     1     -44.149  58.707 -60.356  1.00  0.00     0.123 A 
ENDBRANCH   8  12
ENDBRANCH   2   5
BRANCH   1  18
HETATM   18  C   UNL     1     -40.949  53.480 -53.892  1.00  0.00     0.143 C 
BRANCH  18  19
HETATM   19  C   UNL     1     -41.006  51.918 -53.963  1.00  0.00     0.263 C 
BRANCH  19  20
HETATM   20  N   UNL     1     -39.687  51.242 -53.622  1.00  0.00    -0.076 N 
HETATM   21  C   UNL     1     -39.446  51.084 -52.153  1.00  0.00     0.269 C 
HETATM   22  H   UNL     1     -38.939  51.886 -53.959  1.00  0.00     0.279 HD
HETATM   23  C   UNL     1     -39.487  49.959 -54.367  1.00  0.00     0.269 C 
ENDBRANCH  19  20
ENDBRANCH  18  19
BRANCH  18  24
HETATM   24  C   UNL     1     -41.597  53.941 -52.598  1.00  0.00    -0.034 A 
HETATM   25  C   UNL     1     -40.796  54.339 -51.516  1.00  0.00     0.009 A 
HETATM   26  C   UNL     1     -41.380  54.746 -50.315  1.00  0.00     0.001 A 
HETATM   27  C   UNL     1     -42.767  54.762 -50.181  1.00  0.00     0.000 A 
HETATM   28  C   UNL     1     -43.574  54.376 -51.248  1.00  0.00     0.001 A 
HETATM   29  C   UNL     1     -42.994  53.969 -52.451  1.00  0.00     0.009 A 
ENDBRANCH  18  24
ENDBRANCH   1  18
TORSDOF 6
ENDMDL
MODEL 9
REMARK VINA RESULT:      -6.8     13.840     15.232
REMARK  6 active torsions:
REMARK  status: ('A' for Active; 'I' for Inactive)
REMARK    1  A    between atoms: N_2  and  C_5 
REMARK    2  A    between atoms: C_5  and  C_6 
REMARK    3  A    between atoms: C_6  and  N_7 
REMARK    4  A    between atoms: C_6  and  C_23 
REMARK       I    between atoms: N_7  and  C_8 
REMARK    5  A    between atoms: C_8  and  C_10 
REMARK    6  A    between atoms: C_13  and  C_17 
ROOT
HETATM    1  N   UNL     1     -35.560  40.631 -52.293  1.00  0.00    -0.347 N 
HETATM    2  C   UNL     1     -35.580  41.834 -52.962  1.00  0.00     0.252 C 
HETATM    3  O   UNL     1     -35.286  42.888 -52.403  1.00  0.00    -0.268 OA
HETATM    4  H   UNL     1     -36.057  39.862 -52.731  1.00  0.00     0.163 HD
ENDROOT
BRANCH   2   5
HETATM    5  C   UNL     1     -35.976  41.813 -54.394  1.00  0.00     0.032 A 
HETATM    6  C   UNL     1     -35.046  42.239 -55.344  1.00  0.00     0.018 A 
HETATM    7  C   UNL     1     -35.367  42.202 -56.701  1.00  0.00     0.014 A 
HETATM    8  C   UNL     1     -36.618  41.733 -57.134  1.00  0.00    -0.017 A 
HETATM    9  C   UNL     1     -37.566  41.308 -56.180  1.00  0.00    -0.050 A 
HETATM   10  C   UNL     1     -38.926  40.787 -56.571  1.00  0.00     0.049 C 
HETATM   11  C   UNL     1     -37.227  41.340 -54.812  1.00  0.00     0.024 A 
BRANCH   8  12
HETATM   12  C   UNL     1     -36.877  41.677 -58.560  1.00  0.00     0.011 A 
HETATM   13  C   UNL     1     -37.258  42.683 -59.476  1.00  0.00     0.152 A 
HETATM   14  N   UNL     1     -37.409  42.215 -60.717  1.00  0.00    -0.187 NA
HETATM   15  N   UNL     1     -37.138  40.905 -60.599  1.00  0.00    -0.289 N 
HETATM   16  H   UNL     1     -37.194  40.325 -61.429  1.00  0.00     0.188 HD
HETATM   17  C   UNL     1     -36.819  40.530 -59.323  1.00  0.00     0.123 A 
ENDBRANCH   8  12
ENDBRANCH   2   5
BRANCH   1  18
HETATM   18  C   UNL     1     -35.395  40.533 -50.838  1.00  0.00     0.143 C 
BRANCH  18  19
HETATM   19  C   UNL     1     -34.024  39.937 -50.375  1.00  0.00     0.263 C 
BRANCH  19  20
HETATM   20  N   UNL     1     -33.319  39.124 -51.449  1.00  0.00    -0.076 N 
HETATM   21  C   UNL     1     -31.877  39.482 -51.636  1.00  0.00     0.269 C 
HETATM   22  H   UNL     1     -33.786  39.370 -52.349  1.00  0.00     0.279 HD
HETATM   23  C   UNL     1     -33.515  37.650 -51.278  1.00  0.00     0.269 C 
ENDBRANCH  19  20
ENDBRANCH  18  19
BRANCH  18  24
HETATM   24  C   UNL     1     -36.521  39.691 -50.262  1.00  0.00    -0.034 A 
HETATM   25  C   UNL     1     -37.560  39.246 -51.095  1.00  0.00     0.009 A 
HETATM   26  C   UNL     1     -38.609  38.488 -50.573  1.00  0.00     0.001 A 
HETATM   27  C   UNL     1     -38.633  38.163 -49.219  1.00  0.00     0.000 A 
HETATM   28  C   UNL     1     -37.606  38.593 -48.382  1.00  0.00     0.001 A 
HETATM   29  C   UNL     1     -36.555  39.351 -48.899  1.00  0.00     0.009 A 
ENDBRANCH  18  24
ENDBRANCH   1  18
TORSDOF 6
ENDMDL
MODEL 10
REMARK VINA RESULT:      -6.7      2.377      8.828
REMARK  6 active torsions:
REMARK  status: ('A' for Active; 'I' for Inactive)
REMARK    1  A    between atoms: N_2  and  C_5 
REMARK    2  A    between atoms: C_5  and  C_6 
REMARK    3  A    between atoms: C_6  and  N_7 
REMARK    4  A    between atoms: C_6  and  C_23 
REMARK       I    between atoms: N_7  and  C_8 
REMARK    5  A    between atoms: C_8  and  C_10 
REMARK    6  A    between atoms: C_13  and  C_17 
ROOT
HETATM    1  N   UNL     1     -44.003  57.165 -57.130  1.00  0.00    -0.347 N 
HETATM    2  C   UNL     1     -44.105  56.984 -55.769  1.00  0.00     0.252 C 
HETATM    3  O   UNL     1     -44.830  57.693 -55.077  1.00  0.00    -0.268 OA
HETATM    4  H   UNL     1     -43.206  56.730 -57.586  1.00  0.00     0.163 HD
ENDROOT
BRANCH   2   5
HETATM    5  C   UNL     1     -43.298  55.892 -55.163  1.00  0.00     0.032 A 
HETATM    6  C   UNL     1     -42.240  55.362 -55.903  1.00  0.00     0.018 A 
HETATM    7  C   UNL     1     -41.438  54.360 -55.356  1.00  0.00     0.014 A 
HETATM    8  C   UNL     1     -41.674  53.875 -54.059  1.00  0.00    -0.017 A 
HETATM    9  C   UNL     1     -42.746  54.400 -53.308  1.00  0.00    -0.050 A 
HETATM   10  C   UNL     1     -43.055  53.933 -51.908  1.00  0.00     0.049 C 
HETATM   11  C   UNL     1     -43.543  55.420 -53.867  1.00  0.00     0.024 A 
BRANCH   8  12
HETATM   12  C   UNL     1     -40.780  52.865 -53.529  1.00  0.00     0.011 A 
HETATM   13  C   UNL     1     -40.371  51.617 -54.052  1.00  0.00     0.152 A 
HETATM   14  N   UNL     1     -39.534  50.970 -53.238  1.00  0.00    -0.187 NA
HETATM   15  N   UNL     1     -39.413  51.794 -52.185  1.00  0.00    -0.289 N 
HETATM   16  H   UNL     1     -38.816  51.508 -51.416  1.00  0.00     0.188 HD
HETATM   17  C   UNL     1     -40.145  52.942 -52.307  1.00  0.00     0.123 A 
ENDBRANCH   8  12
ENDBRANCH   2   5
BRANCH   1  18
HETATM   18  C   UNL     1     -44.573  58.327 -57.822  1.00  0.00     0.143 C 
BRANCH  18  19
HETATM   19  C   UNL     1     -45.333  57.988 -59.148  1.00  0.00     0.263 C 
BRANCH  19  20
HETATM   20  N   UNL     1     -45.439  56.497 -59.426  1.00  0.00    -0.076 N 
HETATM   21  C   UNL     1     -46.747  56.081 -60.025  1.00  0.00     0.269 C 
HETATM   22  H   UNL     1     -45.398  56.028 -58.495  1.00  0.00     0.279 HD
HETATM   23  C   UNL     1     -44.272  55.970 -60.201  1.00  0.00     0.269 C 
ENDBRANCH  19  20
ENDBRANCH  18  19
BRANCH  18  24
HETATM   24  C   UNL     1     -43.465  59.321 -58.128  1.00  0.00    -0.034 A 
HETATM   25  C   UNL     1     -43.023  59.495 -59.448  1.00  0.00     0.009 A 
HETATM   26  C   UNL     1     -41.992  60.391 -59.738  1.00  0.00     0.001 A 
HETATM   27  C   UNL     1     -41.394  61.123 -58.715  1.00  0.00     0.000 A 
HETATM   28  C   UNL     1     -41.826  60.966 -57.401  1.00  0.00     0.001 A 
HETATM   29  C   UNL     1     -42.856  60.071 -57.107  1.00  0.00     0.009 A 
ENDBRANCH  18  24
ENDBRANCH   1  18
TORSDOF 6
ENDMDL
