MODEL 1
REMARK VINA RESULT:      -9.0      0.000      0.000
REMARK  6 active torsions:
REMARK  status: ('A' for Active; 'I' for Inactive)
REMARK    1  A    between atoms: C_4  and  N_5 
REMARK       I    between atoms: N_5  and  C_6 
REMARK       I    between atoms: C_6  and  N_7 
REMARK    2  A    between atoms: N_7  and  C_8 
REMARK    3  A    between atoms: C_11  and  C_12 
REMARK    4  A    between atoms: C_12  and  C_13 
REMARK       I    between atoms: C_13  and  N_14 
REMARK    5  A    between atoms: N_14  and  C_15 
REMARK    6  A    between atoms: C_17  and  C_18 
ROOT
HETATM    1  C   UNL     1     -42.087  57.871 -54.505  1.00  0.00     0.174 A 
HETATM    2  S   UNL     1     -41.714  59.456 -54.000  1.00  0.00    -0.062 SA
HETATM    3  C   UNL     1     -41.768  58.927 -52.366  1.00  0.00     0.081 A 
HETATM    4  C   UNL     1     -42.057  57.576 -52.318  1.00  0.00     0.052 A 
HETATM    5  N   UNL     1     -42.240  56.983 -53.558  1.00  0.00    -0.228 NA
ENDROOT
BRANCH   4   6
HETATM    6  C   UNL     1     -42.174  56.708 -51.108  1.00  0.00     0.163 C 
BRANCH   6   7
HETATM    7  C   UNL     1     -42.113  55.221 -51.431  1.00  0.00     0.227 C 
HETATM    8  N   UNL     1     -40.901  54.801 -51.953  1.00  0.00    -0.327 N 
HETATM    9  H   UNL     1     -40.234  55.545 -52.184  1.00  0.00     0.169 HD
HETATM   10  O   UNL     1     -43.076  54.500 -51.178  1.00  0.00    -0.273 OA
BRANCH   8  11
HETATM   11  C   UNL     1     -40.519  53.494 -52.304  1.00  0.00     0.035 A 
HETATM   12  C   UNL     1     -40.327  52.461 -51.382  1.00  0.00     0.048 A 
HETATM   13  C   UNL     1     -39.937  51.178 -51.807  1.00  0.00     0.088 A 
HETATM   14  C   UNL     1     -39.761  50.947 -53.167  1.00  0.00     0.131 A 
HETATM   15  F   UNL     1     -39.407  49.730 -53.601  1.00  0.00    -0.205 F 
HETATM   16  C   UNL     1     -39.944  51.962 -54.098  1.00  0.00     0.045 A 
HETATM   17  C   UNL     1     -40.313  53.237 -53.666  1.00  0.00     0.032 A 
BRANCH  13  18
HETATM   18  C   UNL     1     -39.709  50.058 -50.839  1.00  0.00     0.420 C 
HETATM   19  F   UNL     1     -40.374  48.913 -51.169  1.00  0.00    -0.166 F 
HETATM   20  F   UNL     1     -38.398  49.702 -50.742  1.00  0.00    -0.166 F 
HETATM   21  F   UNL     1     -40.115  50.357 -49.573  1.00  0.00    -0.166 F 
ENDBRANCH  13  18
ENDBRANCH   8  11
ENDBRANCH   6   7
ENDBRANCH   4   6
BRANCH   1  22
HETATM   22  N   UNL     1     -42.148  57.696 -55.858  1.00  0.00    -0.287 N 
HETATM   23  C   UNL     1     -43.329  57.354 -56.489  1.00  0.00     0.326 C 
HETATM   24  N   UNL     1     -43.082  56.981 -57.804  1.00  0.00    -0.309 N 
HETATM   25  O   UNL     1     -44.432  57.375 -55.957  1.00  0.00    -0.247 OA
HETATM   26  H   UNL     1     -42.114  56.876 -58.062  1.00  0.00     0.170 HD
HETATM   27  H   UNL     1     -41.332  57.944 -56.389  1.00  0.00     0.172 HD
BRANCH  24  28
HETATM   28  C   UNL     1     -44.019  56.551 -58.769  1.00  0.00     0.036 A 
HETATM   29  C   UNL     1     -45.070  57.335 -59.245  1.00  0.00     0.029 A 
HETATM   30  C   UNL     1     -45.965  56.823 -60.191  1.00  0.00     0.002 A 
HETATM   31  C   UNL     1     -45.816  55.525 -60.670  1.00  0.00     0.000 A 
HETATM   32  C   UNL     1     -44.766  54.737 -60.209  1.00  0.00     0.002 A 
HETATM   33  C   UNL     1     -43.871  55.248 -59.265  1.00  0.00     0.029 A 
ENDBRANCH  24  28
ENDBRANCH   1  22
TORSDOF 6
ENDMDL
MODEL 2
REMARK VINA RESULT:      -9.0      1.273      2.337
REMARK  6 active torsions:
REMARK  status: ('A' for Active; 'I' for Inactive)
REMARK    1  A    between atoms: C_4  and  N_5 
REMARK       I    between atoms: N_5  and  C_6 
REMARK       I    between atoms: C_6  and  N_7 
REMARK    2  A    between atoms: N_7  and  C_8 
REMARK    3  A    between atoms: C_11  and  C_12 
REMARK    4  A    between atoms: C_12  and  C_13 
REMARK       I    between atoms: C_13  and  N_14 
REMARK    5  A    between atoms: N_14  and  C_15 
REMARK    6  A    between atoms: C_17  and  C_18 
ROOT
HETATM    1  C   UNL     1     -41.809  57.765 -53.484  1.00  0.00     0.174 A 
HETATM    2  S   UNL     1     -42.245  59.274 -52.820  1.00  0.00    -0.062 SA
HETATM    3  C   UNL     1     -42.193  58.575 -51.250  1.00  0.00     0.081 A 
HETATM    4  C   UNL     1     -41.835  57.242 -51.340  1.00  0.00     0.052 A 
HETATM    5  N   UNL     1     -41.620  56.792 -52.634  1.00  0.00    -0.228 NA
ENDROOT
BRANCH   4   6
HETATM    6  C   UNL     1     -41.647  56.268 -50.224  1.00  0.00     0.163 C 
BRANCH   6   7
HETATM    7  C   UNL     1     -41.757  54.817 -50.672  1.00  0.00     0.227 C 
HETATM    8  N   UNL     1     -40.539  54.198 -50.898  1.00  0.00    -0.327 N 
HETATM    9  H   UNL     1     -39.717  54.808 -50.868  1.00  0.00     0.169 HD
HETATM   10  O   UNL     1     -42.862  54.284 -50.756  1.00  0.00    -0.273 OA
BRANCH   8  11
HETATM   11  C   UNL     1     -40.306  52.861 -51.271  1.00  0.00     0.035 A 
HETATM   12  C   UNL     1     -40.195  52.428 -52.596  1.00  0.00     0.048 A 
HETATM   13  C   UNL     1     -39.969  51.072 -52.893  1.00  0.00     0.088 A 
HETATM   14  C   UNL     1     -39.838  50.167 -51.845  1.00  0.00     0.131 A 
HETATM   15  F   UNL     1     -39.605  48.873 -52.100  1.00  0.00    -0.205 F 
HETATM   16  C   UNL     1     -39.950  50.579 -50.522  1.00  0.00     0.045 A 
HETATM   17  C   UNL     1     -40.194  51.923 -50.236  1.00  0.00     0.032 A 
BRANCH  13  18
HETATM   18  C   UNL     1     -39.860  50.577 -54.303  1.00  0.00     0.420 C 
HETATM   19  F   UNL     1     -40.887  49.758 -54.671  1.00  0.00    -0.166 F 
HETATM   20  F   UNL     1     -39.855  51.587 -55.218  1.00  0.00    -0.166 F 
HETATM   21  F   UNL     1     -38.727  49.855 -54.528  1.00  0.00    -0.166 F 
ENDBRANCH  13  18
ENDBRANCH   8  11
ENDBRANCH   6   7
ENDBRANCH   4   6
BRANCH   1  22
HETATM   22  N   UNL     1     -41.666  57.753 -54.842  1.00  0.00    -0.287 N 
HETATM   23  C   UNL     1     -42.682  57.315 -55.671  1.00  0.00     0.326 C 
HETATM   24  N   UNL     1     -42.210  57.152 -56.967  1.00  0.00    -0.309 N 
HETATM   25  O   UNL     1     -43.831  57.099 -55.306  1.00  0.00    -0.247 OA
HETATM   26  H   UNL     1     -41.213  57.231 -57.090  1.00  0.00     0.170 HD
HETATM   27  H   UNL     1     -40.843  58.189 -55.220  1.00  0.00     0.172 HD
BRANCH  24  28
HETATM   28  C   UNL     1     -42.929  56.706 -58.097  1.00  0.00     0.036 A 
HETATM   29  C   UNL     1     -43.390  55.400 -58.268  1.00  0.00     0.029 A 
HETATM   30  C   UNL     1     -44.082  55.039 -59.429  1.00  0.00     0.002 A 
HETATM   31  C   UNL     1     -44.321  55.979 -60.427  1.00  0.00     0.000 A 
HETATM   32  C   UNL     1     -43.874  57.287 -60.263  1.00  0.00     0.002 A 
HETATM   33  C   UNL     1     -43.184  57.649 -59.103  1.00  0.00     0.029 A 
ENDBRANCH  24  28
ENDBRANCH   1  22
TORSDOF 6
ENDMDL
MODEL 3
REMARK VINA RESULT:      -8.6      1.216      2.353
REMARK  6 active torsions:
REMARK  status: ('A' for Active; 'I' for Inactive)
REMARK    1  A    between atoms: C_4  and  N_5 
REMARK       I    between atoms: N_5  and  C_6 
REMARK       I    between atoms: C_6  and  N_7 
REMARK    2  A    between atoms: N_7  and  C_8 
REMARK    3  A    between atoms: C_11  and  C_12 
REMARK    4  A    between atoms: C_12  and  C_13 
REMARK       I    between atoms: C_13  and  N_14 
REMARK    5  A    between atoms: N_14  and  C_15 
REMARK    6  A    between atoms: C_17  and  C_18 
ROOT
HETATM    1  C   UNL     1     -42.227  58.622 -54.468  1.00  0.00     0.174 A 
HETATM    2  S   UNL     1     -42.467  60.290 -54.209  1.00  0.00    -0.062 SA
HETATM    3  C   UNL     1     -42.478  60.005 -52.514  1.00  0.00     0.081 A 
HETATM    4  C   UNL     1     -42.287  58.658 -52.262  1.00  0.00     0.052 A 
HETATM    5  N   UNL     1     -42.147  57.876 -53.398  1.00  0.00    -0.228 NA
ENDROOT
BRANCH   4   6
HETATM    6  C   UNL     1     -42.204  57.980 -50.935  1.00  0.00     0.163 C 
BRANCH   6   7
HETATM    7  C   UNL     1     -42.235  56.461 -51.038  1.00  0.00     0.227 C 
HETATM    8  N   UNL     1     -41.013  55.886 -51.344  1.00  0.00    -0.327 N 
HETATM    9  H   UNL     1     -40.264  56.539 -51.593  1.00  0.00     0.169 HD
HETATM   10  O   UNL     1     -43.278  55.853 -50.806  1.00  0.00    -0.273 OA
BRANCH   8  11
HETATM   11  C   UNL     1     -40.708  54.517 -51.461  1.00  0.00     0.035 A 
HETATM   12  C   UNL     1     -40.564  53.851 -52.681  1.00  0.00     0.048 A 
HETATM   13  C   UNL     1     -40.264  52.477 -52.721  1.00  0.00     0.088 A 
HETATM   14  C   UNL     1     -40.095  51.792 -51.522  1.00  0.00     0.131 A 
HETATM   15  F   UNL     1     -39.792  50.487 -51.531  1.00  0.00    -0.205 F 
HETATM   16  C   UNL     1     -40.238  52.438 -50.300  1.00  0.00     0.045 A 
HETATM   17  C   UNL     1     -40.553  53.797 -50.269  1.00  0.00     0.032 A 
BRANCH  13  18
HETATM   18  C   UNL     1     -40.120  51.734 -54.013  1.00  0.00     0.420 C 
HETATM   19  F   UNL     1     -39.101  50.827 -54.007  1.00  0.00    -0.166 F 
HETATM   20  F   UNL     1     -41.236  51.026 -54.344  1.00  0.00    -0.166 F 
HETATM   21  F   UNL     1     -39.864  52.553 -55.072  1.00  0.00    -0.166 F 
ENDBRANCH  13  18
ENDBRANCH   8  11
ENDBRANCH   6   7
ENDBRANCH   4   6
BRANCH   1  22
HETATM   22  N   UNL     1     -42.107  58.254 -55.777  1.00  0.00    -0.287 N 
HETATM   23  C   UNL     1     -43.136  57.619 -56.446  1.00  0.00     0.326 C 
HETATM   24  N   UNL     1     -42.685  57.119 -57.661  1.00  0.00    -0.309 N 
HETATM   25  O   UNL     1     -44.279  57.512 -56.020  1.00  0.00    -0.247 OA
HETATM   26  H   UNL     1     -41.691  57.158 -57.816  1.00  0.00     0.170 HD
HETATM   27  H   UNL     1     -41.289  58.571 -56.269  1.00  0.00     0.172 HD
BRANCH  24  28
HETATM   28  C   UNL     1     -43.423  56.396 -58.624  1.00  0.00     0.036 A 
HETATM   29  C   UNL     1     -43.630  55.017 -58.580  1.00  0.00     0.029 A 
HETATM   30  C   UNL     1     -44.362  54.377 -59.586  1.00  0.00     0.002 A 
HETATM   31  C   UNL     1     -44.895  55.110 -60.643  1.00  0.00     0.000 A 
HETATM   32  C   UNL     1     -44.702  56.487 -60.692  1.00  0.00     0.002 A 
HETATM   33  C   UNL     1     -43.973  57.127 -59.686  1.00  0.00     0.029 A 
ENDBRANCH  24  28
ENDBRANCH   1  22
TORSDOF 6
ENDMDL
MODEL 4
REMARK VINA RESULT:      -8.4      4.360      8.524
REMARK  6 active torsions:
REMARK  status: ('A' for Active; 'I' for Inactive)
REMARK    1  A    between atoms: C_4  and  N_5 
REMARK       I    between atoms: N_5  and  C_6 
REMARK       I    between atoms: C_6  and  N_7 
REMARK    2  A    between atoms: N_7  and  C_8 
REMARK    3  A    between atoms: C_11  and  C_12 
REMARK    4  A    between atoms: C_12  and  C_13 
REMARK       I    between atoms: C_13  and  N_14 
REMARK    5  A    between atoms: N_14  and  C_15 
REMARK    6  A    between atoms: C_17  and  C_18 
ROOT
HETATM    1  C   UNL     1     -42.290  58.017 -53.881  1.00  0.00     0.174 A 
HETATM    2  S   UNL     1     -42.389  59.280 -52.739  1.00  0.00    -0.062 SA
HETATM    3  C   UNL     1     -42.279  60.420 -54.021  1.00  0.00     0.081 A 
HETATM    4  C   UNL     1     -42.186  59.758 -55.232  1.00  0.00     0.052 A 
HETATM    5  N   UNL     1     -42.192  58.376 -55.133  1.00  0.00    -0.228 NA
ENDROOT
BRANCH   4   6
HETATM    6  C   UNL     1     -42.098  60.359 -56.597  1.00  0.00     0.163 C 
BRANCH   6   7
HETATM    7  C   UNL     1     -42.684  59.465 -57.681  1.00  0.00     0.227 C 
HETATM    8  N   UNL     1     -43.944  58.968 -57.390  1.00  0.00    -0.327 N 
HETATM    9  H   UNL     1     -44.283  59.144 -56.438  1.00  0.00     0.169 HD
HETATM   10  O   UNL     1     -42.063  59.282 -58.726  1.00  0.00    -0.273 OA
BRANCH   8  11
HETATM   11  C   UNL     1     -44.763  58.161 -58.200  1.00  0.00     0.035 A 
HETATM   12  C   UNL     1     -44.340  56.969 -58.796  1.00  0.00     0.048 A 
HETATM   13  C   UNL     1     -45.213  56.216 -59.602  1.00  0.00     0.088 A 
HETATM   14  C   UNL     1     -46.517  56.668 -59.782  1.00  0.00     0.131 A 
HETATM   15  F   UNL     1     -47.374  55.962 -60.530  1.00  0.00    -0.205 F 
HETATM   16  C   UNL     1     -46.953  57.853 -59.201  1.00  0.00     0.045 A 
HETATM   17  C   UNL     1     -46.074  58.603 -58.419  1.00  0.00     0.032 A 
BRANCH  13  18
HETATM   18  C   UNL     1     -44.783  54.944 -60.265  1.00  0.00     0.420 C 
HETATM   19  F   UNL     1     -43.450  54.685 -60.128  1.00  0.00    -0.166 F 
HETATM   20  F   UNL     1     -45.419  53.847 -59.767  1.00  0.00    -0.166 F 
HETATM   21  F   UNL     1     -45.013  54.939 -61.608  1.00  0.00    -0.166 F 
ENDBRANCH  13  18
ENDBRANCH   8  11
ENDBRANCH   6   7
ENDBRANCH   4   6
BRANCH   1  22
HETATM   22  N   UNL     1     -42.365  56.758 -53.356  1.00  0.00    -0.287 N 
HETATM   23  C   UNL     1     -41.364  55.829 -53.563  1.00  0.00     0.326 C 
HETATM   24  N   UNL     1     -41.785  54.568 -53.161  1.00  0.00    -0.309 N 
HETATM   25  O   UNL     1     -40.265  56.087 -54.039  1.00  0.00    -0.247 OA
HETATM   26  H   UNL     1     -42.760  54.481 -52.921  1.00  0.00     0.170 HD
HETATM   27  H   UNL     1     -43.116  56.574 -52.713  1.00  0.00     0.172 HD
BRANCH  24  28
HETATM   28  C   UNL     1     -41.063  53.357 -53.224  1.00  0.00     0.036 A 
HETATM   29  C   UNL     1     -41.058  52.503 -54.328  1.00  0.00     0.029 A 
HETATM   30  C   UNL     1     -40.326  51.311 -54.300  1.00  0.00     0.002 A 
HETATM   31  C   UNL     1     -39.592  50.963 -53.170  1.00  0.00     0.000 A 
HETATM   32  C   UNL     1     -39.582  51.811 -52.067  1.00  0.00     0.002 A 
HETATM   33  C   UNL     1     -40.312  53.002 -52.094  1.00  0.00     0.029 A 
ENDBRANCH  24  28
ENDBRANCH   1  22
TORSDOF 6
ENDMDL
MODEL 5
REMARK VINA RESULT:      -8.4      4.163      8.268
REMARK  6 active torsions:
REMARK  status: ('A' for Active; 'I' for Inactive)
REMARK    1  A    between atoms: C_4  and  N_5 
REMARK       I    between atoms: N_5  and  C_6 
REMARK       I    between atoms: C_6  and  N_7 
REMARK    2  A    between atoms: N_7  and  C_8 
REMARK    3  A    between atoms: C_11  and  C_12 
REMARK    4  A    between atoms: C_12  and  C_13 
REMARK       I    between atoms: C_13  and  N_14 
REMARK    5  A    between atoms: N_14  and  C_15 
REMARK    6  A    between atoms: C_17  and  C_18 
ROOT
HETATM    1  C   UNL     1     -42.329  56.423 -51.972  1.00  0.00     0.174 A 
HETATM    2  S   UNL     1     -43.569  55.995 -50.883  1.00  0.00    -0.062 SA
HETATM    3  C   UNL     1     -44.462  57.374 -51.389  1.00  0.00     0.081 A 
HETATM    4  C   UNL     1     -43.757  58.059 -52.362  1.00  0.00     0.052 A 
HETATM    5  N   UNL     1     -42.530  57.499 -52.684  1.00  0.00    -0.228 NA
ENDROOT
BRANCH   4   6
HETATM    6  C   UNL     1     -44.172  59.294 -53.092  1.00  0.00     0.163 C 
BRANCH   6   7
HETATM    7  C   UNL     1     -44.227  59.105 -54.602  1.00  0.00     0.227 C 
HETATM    8  N   UNL     1     -42.990  59.113 -55.223  1.00  0.00    -0.327 N 
HETATM    9  H   UNL     1     -42.195  59.373 -54.629  1.00  0.00     0.169 HD
HETATM   10  O   UNL     1     -45.308  58.913 -55.156  1.00  0.00    -0.273 OA
BRANCH   8  11
HETATM   11  C   UNL     1     -42.706  58.917 -56.587  1.00  0.00     0.035 A 
HETATM   12  C   UNL     1     -42.948  57.722 -57.271  1.00  0.00     0.048 A 
HETATM   13  C   UNL     1     -42.632  57.597 -58.636  1.00  0.00     0.088 A 
HETATM   14  C   UNL     1     -42.088  58.690 -59.302  1.00  0.00     0.131 A 
HETATM   15  F   UNL     1     -41.793  58.604 -60.606  1.00  0.00    -0.205 F 
HETATM   16  C   UNL     1     -41.836  59.884 -58.637  1.00  0.00     0.045 A 
HETATM   17  C   UNL     1     -42.136  59.994 -57.278  1.00  0.00     0.032 A 
BRANCH  13  18
HETATM   18  C   UNL     1     -42.866  56.325 -59.391  1.00  0.00     0.420 C 
HETATM   19  F   UNL     1     -41.752  55.854 -60.022  1.00  0.00    -0.166 F 
HETATM   20  F   UNL     1     -43.288  55.306 -58.591  1.00  0.00    -0.166 F 
HETATM   21  F   UNL     1     -43.806  56.452 -60.370  1.00  0.00    -0.166 F 
ENDBRANCH  13  18
ENDBRANCH   8  11
ENDBRANCH   6   7
ENDBRANCH   4   6
BRANCH   1  22
HETATM   22  N   UNL     1     -41.269  55.562 -52.006  1.00  0.00    -0.287 N 
HETATM   23  C   UNL     1     -41.385  54.295 -52.547  1.00  0.00     0.326 C 
HETATM   24  N   UNL     1     -40.269  53.532 -52.231  1.00  0.00    -0.309 N 
HETATM   25  O   UNL     1     -42.341  53.908 -53.207  1.00  0.00    -0.247 OA
HETATM   26  H   UNL     1     -39.629  53.935 -51.565  1.00  0.00     0.170 HD
HETATM   27  H   UNL     1     -40.373  55.927 -51.734  1.00  0.00     0.172 HD
BRANCH  24  28
HETATM   28  C   UNL     1     -40.016  52.188 -52.582  1.00  0.00     0.036 A 
HETATM   29  C   UNL     1     -40.002  51.710 -53.893  1.00  0.00     0.029 A 
HETATM   30  C   UNL     1     -39.759  50.357 -54.152  1.00  0.00     0.002 A 
HETATM   31  C   UNL     1     -39.524  49.471 -53.104  1.00  0.00     0.000 A 
HETATM   32  C   UNL     1     -39.526  49.939 -51.793  1.00  0.00     0.002 A 
HETATM   33  C   UNL     1     -39.768  51.291 -51.534  1.00  0.00     0.029 A 
ENDBRANCH  24  28
ENDBRANCH   1  22
TORSDOF 6
ENDMDL
MODEL 6
REMARK VINA RESULT:      -8.3      2.298      3.289
REMARK  6 active torsions:
REMARK  status: ('A' for Active; 'I' for Inactive)
REMARK    1  A    between atoms: C_4  and  N_5 
REMARK       I    between atoms: N_5  and  C_6 
REMARK       I    between atoms: C_6  and  N_7 
REMARK    2  A    between atoms: N_7  and  C_8 
REMARK    3  A    between atoms: C_11  and  C_12 
REMARK    4  A    between atoms: C_12  and  C_13 
REMARK       I    between atoms: C_13  and  N_14 
REMARK    5  A    between atoms: N_14  and  C_15 
REMARK    6  A    between atoms: C_17  and  C_18 
ROOT
HETATM    1  C   UNL     1     -42.296  60.136 -54.337  1.00  0.00     0.174 A 
HETATM    2  S   UNL     1     -43.222  61.548 -54.098  1.00  0.00    -0.062 SA
HETATM    3  C   UNL     1     -42.989  61.390 -52.402  1.00  0.00     0.081 A 
HETATM    4  C   UNL     1     -42.212  60.277 -52.136  1.00  0.00     0.052 A 
HETATM    5  N   UNL     1     -41.824  59.565 -53.261  1.00  0.00    -0.228 NA
ENDROOT
BRANCH   4   6
HETATM    6  C   UNL     1     -41.748  59.783 -50.806  1.00  0.00     0.163 C 
BRANCH   6   7
HETATM    7  C   UNL     1     -40.958  58.484 -50.893  1.00  0.00     0.227 C 
HETATM    8  N   UNL     1     -41.715  57.381 -51.253  1.00  0.00    -0.327 N 
HETATM    9  H   UNL     1     -42.729  57.530 -51.291  1.00  0.00     0.169 HD
HETATM   10  O   UNL     1     -39.744  58.491 -50.701  1.00  0.00    -0.273 OA
BRANCH   8  11
HETATM   11  C   UNL     1     -41.273  56.062 -51.462  1.00  0.00     0.035 A 
HETATM   12  C   UNL     1     -41.250  55.435 -52.712  1.00  0.00     0.048 A 
HETATM   13  C   UNL     1     -40.802  54.109 -52.844  1.00  0.00     0.088 A 
HETATM   14  C   UNL     1     -40.362  53.432 -51.711  1.00  0.00     0.131 A 
HETATM   15  F   UNL     1     -39.914  52.174 -51.812  1.00  0.00    -0.205 F 
HETATM   16  C   UNL     1     -40.382  54.038 -50.461  1.00  0.00     0.045 A 
HETATM   17  C   UNL     1     -40.846  55.348 -50.335  1.00  0.00     0.032 A 
BRANCH  13  18
HETATM   18  C   UNL     1     -40.780  53.408 -54.168  1.00  0.00     0.420 C 
HETATM   19  F   UNL     1     -41.143  54.208 -55.212  1.00  0.00    -0.166 F 
HETATM   20  F   UNL     1     -39.548  52.925 -54.491  1.00  0.00    -0.166 F 
HETATM   21  F   UNL     1     -41.630  52.343 -54.220  1.00  0.00    -0.166 F 
ENDBRANCH  13  18
ENDBRANCH   8  11
ENDBRANCH   6   7
ENDBRANCH   4   6
BRANCH   1  22
HETATM   22  N   UNL     1     -42.118  59.778 -55.643  1.00  0.00    -0.287 N 
HETATM   23  C   UNL     1     -42.962  58.879 -56.266  1.00  0.00     0.326 C 
HETATM   24  N   UNL     1     -42.429  58.483 -57.486  1.00  0.00    -0.309 N 
HETATM   25  O   UNL     1     -44.026  58.488 -55.801  1.00  0.00    -0.247 OA
HETATM   26  H   UNL     1     -41.484  58.776 -57.674  1.00  0.00     0.170 HD
HETATM   27  H   UNL     1     -41.426  60.285 -56.166  1.00  0.00     0.172 HD
BRANCH  24  28
HETATM   28  C   UNL     1     -42.977  57.567 -58.410  1.00  0.00     0.036 A 
HETATM   29  C   UNL     1     -43.489  57.925 -59.658  1.00  0.00     0.029 A 
HETATM   30  C   UNL     1     -44.031  56.953 -60.507  1.00  0.00     0.002 A 
HETATM   31  C   UNL     1     -44.063  55.617 -60.117  1.00  0.00     0.000 A 
HETATM   32  C   UNL     1     -43.548  55.248 -58.879  1.00  0.00     0.002 A 
HETATM   33  C   UNL     1     -43.005  56.218 -58.031  1.00  0.00     0.029 A 
ENDBRANCH  24  28
ENDBRANCH   1  22
TORSDOF 6
ENDMDL
MODEL 7
REMARK VINA RESULT:      -8.3      4.375      8.473
REMARK  6 active torsions:
REMARK  status: ('A' for Active; 'I' for Inactive)
REMARK    1  A    between atoms: C_4  and  N_5 
REMARK       I    between atoms: N_5  and  C_6 
REMARK       I    between atoms: C_6  and  N_7 
REMARK    2  A    between atoms: N_7  and  C_8 
REMARK    3  A    between atoms: C_11  and  C_12 
REMARK    4  A    between atoms: C_12  and  C_13 
REMARK       I    between atoms: C_13  and  N_14 
REMARK    5  A    between atoms: N_14  and  C_15 
REMARK    6  A    between atoms: C_17  and  C_18 
ROOT
HETATM    1  C   UNL     1     -42.692  56.647 -52.298  1.00  0.00     0.174 A 
HETATM    2  S   UNL     1     -43.657  56.216 -50.960  1.00  0.00    -0.062 SA
HETATM    3  C   UNL     1     -44.731  57.501 -51.347  1.00  0.00     0.081 A 
HETATM    4  C   UNL     1     -44.286  58.162 -52.477  1.00  0.00     0.052 A 
HETATM    5  N   UNL     1     -43.109  57.659 -53.010  1.00  0.00    -0.228 NA
ENDROOT
BRANCH   4   6
HETATM    6  C   UNL     1     -44.927  59.318 -53.171  1.00  0.00     0.163 C 
BRANCH   6   7
HETATM    7  C   UNL     1     -44.765  59.270 -54.685  1.00  0.00     0.227 C 
HETATM    8  N   UNL     1     -45.425  58.217 -55.294  1.00  0.00    -0.327 N 
HETATM    9  H   UNL     1     -45.834  57.522 -54.662  1.00  0.00     0.169 HD
HETATM   10  O   UNL     1     -44.132  60.153 -55.261  1.00  0.00    -0.273 OA
BRANCH   8  11
HETATM   11  C   UNL     1     -45.507  57.929 -56.669  1.00  0.00     0.035 A 
HETATM   12  C   UNL     1     -44.435  57.462 -57.435  1.00  0.00     0.048 A 
HETATM   13  C   UNL     1     -44.589  57.202 -58.808  1.00  0.00     0.088 A 
HETATM   14  C   UNL     1     -45.836  57.399 -59.393  1.00  0.00     0.131 A 
HETATM   15  F   UNL     1     -46.015  57.143 -60.695  1.00  0.00    -0.205 F 
HETATM   16  C   UNL     1     -46.912  57.867 -58.648  1.00  0.00     0.045 A 
HETATM   17  C   UNL     1     -46.745  58.140 -57.290  1.00  0.00     0.032 A 
BRANCH  13  18
HETATM   18  C   UNL     1     -43.454  56.715 -59.656  1.00  0.00     0.420 C 
HETATM   19  F   UNL     1     -43.677  55.489 -60.211  1.00  0.00    -0.166 F 
HETATM   20  F   UNL     1     -43.183  57.545 -60.702  1.00  0.00    -0.166 F 
HETATM   21  F   UNL     1     -42.289  56.587 -58.961  1.00  0.00    -0.166 F 
ENDBRANCH  13  18
ENDBRANCH   8  11
ENDBRANCH   6   7
ENDBRANCH   4   6
BRANCH   1  22
HETATM   22  N   UNL     1     -41.599  55.852 -52.500  1.00  0.00    -0.287 N 
HETATM   23  C   UNL     1     -41.729  54.520 -52.844  1.00  0.00     0.326 C 
HETATM   24  N   UNL     1     -40.505  53.873 -52.736  1.00  0.00    -0.309 N 
HETATM   25  O   UNL     1     -42.779  53.992 -53.190  1.00  0.00    -0.247 OA
HETATM   26  H   UNL     1     -39.761  54.399 -52.306  1.00  0.00     0.170 HD
HETATM   27  H   UNL     1     -40.701  56.303 -52.509  1.00  0.00     0.172 HD
BRANCH  24  28
HETATM   28  C   UNL     1     -40.225  52.512 -52.983  1.00  0.00     0.036 A 
HETATM   29  C   UNL     1     -40.337  51.902 -54.233  1.00  0.00     0.029 A 
HETATM   30  C   UNL     1     -40.056  50.540 -54.386  1.00  0.00     0.002 A 
HETATM   31  C   UNL     1     -39.657  49.777 -53.291  1.00  0.00     0.000 A 
HETATM   32  C   UNL     1     -39.533  50.376 -52.042  1.00  0.00     0.002 A 
HETATM   33  C   UNL     1     -39.813  51.737 -51.889  1.00  0.00     0.029 A 
ENDBRANCH  24  28
ENDBRANCH   1  22
TORSDOF 6
ENDMDL
MODEL 8
REMARK VINA RESULT:      -8.2      3.700      4.552
REMARK  6 active torsions:
REMARK  status: ('A' for Active; 'I' for Inactive)
REMARK    1  A    between atoms: C_4  and  N_5 
REMARK       I    between atoms: N_5  and  C_6 
REMARK       I    between atoms: C_6  and  N_7 
REMARK    2  A    between atoms: N_7  and  C_8 
REMARK    3  A    between atoms: C_11  and  C_12 
REMARK    4  A    between atoms: C_12  and  C_13 
REMARK       I    between atoms: C_13  and  N_14 
REMARK    5  A    between atoms: N_14  and  C_15 
REMARK    6  A    between atoms: C_17  and  C_18 
ROOT
HETATM    1  C   UNL     1     -42.693  59.508 -55.253  1.00  0.00     0.174 A 
HETATM    2  S   UNL     1     -41.710  59.558 -53.861  1.00  0.00    -0.062 SA
HETATM    3  C   UNL     1     -42.254  57.981 -53.445  1.00  0.00     0.081 A 
HETATM    4  C   UNL     1     -43.139  57.521 -54.403  1.00  0.00     0.052 A 
HETATM    5  N   UNL     1     -43.383  58.414 -55.435  1.00  0.00    -0.228 NA
ENDROOT
BRANCH   4   6
HETATM    6  C   UNL     1     -43.829  56.198 -54.449  1.00  0.00     0.163 C 
BRANCH   6   7
HETATM    7  C   UNL     1     -43.195  55.161 -53.531  1.00  0.00     0.227 C 
HETATM    8  N   UNL     1     -42.086  54.529 -54.068  1.00  0.00    -0.327 N 
HETATM    9  H   UNL     1     -41.895  54.728 -55.055  1.00  0.00     0.169 HD
HETATM   10  O   UNL     1     -43.646  54.986 -52.401  1.00  0.00    -0.273 OA
BRANCH   8  11
HETATM   11  C   UNL     1     -41.259  53.568 -53.457  1.00  0.00     0.035 A 
HETATM   12  C   UNL     1     -40.983  52.313 -54.007  1.00  0.00     0.048 A 
HETATM   13  C   UNL     1     -40.152  51.398 -53.335  1.00  0.00     0.088 A 
HETATM   14  C   UNL     1     -39.592  51.771 -52.117  1.00  0.00     0.131 A 
HETATM   15  F   UNL     1     -38.783  50.926 -51.464  1.00  0.00    -0.205 F 
HETATM   16  C   UNL     1     -39.859  53.013 -51.554  1.00  0.00     0.045 A 
HETATM   17  C   UNL     1     -40.699  53.906 -52.219  1.00  0.00     0.032 A 
BRANCH  13  18
HETATM   18  C   UNL     1     -39.852  50.042 -53.893  1.00  0.00     0.420 C 
HETATM   19  F   UNL     1     -40.793  49.597 -54.775  1.00  0.00    -0.166 F 
HETATM   20  F   UNL     1     -38.670  49.998 -54.570  1.00  0.00    -0.166 F 
HETATM   21  F   UNL     1     -39.775  49.076 -52.934  1.00  0.00    -0.166 F 
ENDBRANCH  13  18
ENDBRANCH   8  11
ENDBRANCH   6   7
ENDBRANCH   4   6
BRANCH   1  22
HETATM   22  N   UNL     1     -42.619  60.614 -56.050  1.00  0.00    -0.287 N 
HETATM   23  C   UNL     1     -41.801  60.649 -57.163  1.00  0.00     0.326 C 
HETATM   24  N   UNL     1     -41.700  61.947 -57.647  1.00  0.00    -0.309 N 
HETATM   25  O   UNL     1     -41.244  59.671 -57.645  1.00  0.00    -0.247 OA
HETATM   26  H   UNL     1     -42.098  62.669 -57.069  1.00  0.00     0.170 HD
HETATM   27  H   UNL     1     -43.273  61.355 -55.866  1.00  0.00     0.172 HD
BRANCH  24  28
HETATM   28  C   UNL     1     -40.950  62.398 -58.755  1.00  0.00     0.036 A 
HETATM   29  C   UNL     1     -39.772  63.140 -58.654  1.00  0.00     0.029 A 
HETATM   30  C   UNL     1     -39.099  63.562 -59.805  1.00  0.00     0.002 A 
HETATM   31  C   UNL     1     -39.595  63.245 -61.066  1.00  0.00     0.000 A 
HETATM   32  C   UNL     1     -40.764  62.499 -61.179  1.00  0.00     0.002 A 
HETATM   33  C   UNL     1     -41.437  62.075 -60.029  1.00  0.00     0.029 A 
ENDBRANCH  24  28
ENDBRANCH   1  22
TORSDOF 6
ENDMDL
MODEL 9
REMARK VINA RESULT:      -8.1      6.090      9.398
REMARK  6 active torsions:
REMARK  status: ('A' for Active; 'I' for Inactive)
REMARK    1  A    between atoms: C_4  and  N_5 
REMARK       I    between atoms: N_5  and  C_6 
REMARK       I    between atoms: C_6  and  N_7 
REMARK    2  A    between atoms: N_7  and  C_8 
REMARK    3  A    between atoms: C_11  and  C_12 
REMARK    4  A    between atoms: C_12  and  C_13 
REMARK       I    between atoms: C_13  and  N_14 
REMARK    5  A    between atoms: N_14  and  C_15 
REMARK    6  A    between atoms: C_17  and  C_18 
ROOT
HETATM    1  C   UNL     1     -44.169  57.369 -53.111  1.00  0.00     0.174 A 
HETATM    2  S   UNL     1     -44.817  57.308 -54.687  1.00  0.00    -0.062 SA
HETATM    3  C   UNL     1     -45.066  59.007 -54.629  1.00  0.00     0.081 A 
HETATM    4  C   UNL     1     -44.626  59.506 -53.416  1.00  0.00     0.052 A 
HETATM    5  N   UNL     1     -44.115  58.548 -52.553  1.00  0.00    -0.228 NA
ENDROOT
BRANCH   4   6
HETATM    6  C   UNL     1     -44.631  60.927 -52.956  1.00  0.00     0.163 C 
BRANCH   6   7
HETATM    7  C   UNL     1     -45.349  61.122 -51.627  1.00  0.00     0.227 C 
HETATM    8  N   UNL     1     -44.505  61.322 -50.548  1.00  0.00    -0.327 N 
HETATM    9  H   UNL     1     -43.506  61.189 -50.734  1.00  0.00     0.169 HD
HETATM   10  O   UNL     1     -46.578  61.141 -51.593  1.00  0.00    -0.273 OA
BRANCH   8  11
HETATM   11  C   UNL     1     -44.859  61.577 -49.211  1.00  0.00     0.035 A 
HETATM   12  C   UNL     1     -45.430  60.627 -48.359  1.00  0.00     0.048 A 
HETATM   13  C   UNL     1     -45.765  60.956 -47.033  1.00  0.00     0.088 A 
HETATM   14  C   UNL     1     -45.501  62.243 -46.574  1.00  0.00     0.131 A 
HETATM   15  F   UNL     1     -45.794  62.578 -45.311  1.00  0.00    -0.205 F 
HETATM   16  C   UNL     1     -44.937  63.201 -47.408  1.00  0.00     0.045 A 
HETATM   17  C   UNL     1     -44.626  62.871 -48.727  1.00  0.00     0.032 A 
BRANCH  13  18
HETATM   18  C   UNL     1     -46.392  59.963 -46.104  1.00  0.00     0.420 C 
HETATM   19  F   UNL     1     -46.553  58.727 -46.659  1.00  0.00    -0.166 F 
HETATM   20  F   UNL     1     -45.659  59.762 -44.973  1.00  0.00    -0.166 F 
HETATM   21  F   UNL     1     -47.636  60.334 -45.688  1.00  0.00    -0.166 F 
ENDBRANCH  13  18
ENDBRANCH   8  11
ENDBRANCH   6   7
ENDBRANCH   4   6
BRANCH   1  22
HETATM   22  N   UNL     1     -43.738  56.170 -52.618  1.00  0.00    -0.287 N 
HETATM   23  C   UNL     1     -42.579  55.575 -53.078  1.00  0.00     0.326 C 
HETATM   24  N   UNL     1     -42.496  54.265 -52.624  1.00  0.00    -0.309 N 
HETATM   25  O   UNL     1     -41.748  56.130 -53.787  1.00  0.00    -0.247 OA
HETATM   26  H   UNL     1     -43.317  53.900 -52.168  1.00  0.00     0.170 HD
HETATM   27  H   UNL     1     -44.231  55.798 -51.825  1.00  0.00     0.172 HD
BRANCH  24  28
HETATM   28  C   UNL     1     -41.477  53.324 -52.887  1.00  0.00     0.036 A 
HETATM   29  C   UNL     1     -41.265  52.723 -54.128  1.00  0.00     0.029 A 
HETATM   30  C   UNL     1     -40.240  51.786 -54.297  1.00  0.00     0.002 A 
HETATM   31  C   UNL     1     -39.417  51.444 -53.228  1.00  0.00     0.000 A 
HETATM   32  C   UNL     1     -39.614  52.043 -51.988  1.00  0.00     0.002 A 
HETATM   33  C   UNL     1     -40.636  52.980 -51.818  1.00  0.00     0.029 A 
ENDBRANCH  24  28
ENDBRANCH   1  22
TORSDOF 6
ENDMDL
MODEL 10
REMARK VINA RESULT:      -8.0      3.180      4.896
REMARK  6 active torsions:
REMARK  status: ('A' for Active; 'I' for Inactive)
REMARK    1  A    between atoms: C_4  and  N_5 
REMARK       I    between atoms: N_5  and  C_6 
REMARK       I    between atoms: C_6  and  N_7 
REMARK    2  A    between atoms: N_7  and  C_8 
REMARK    3  A    between atoms: C_11  and  C_12 
REMARK    4  A    between atoms: C_12  and  C_13 
REMARK       I    between atoms: C_13  and  N_14 
REMARK    5  A    between atoms: N_14  and  C_15 
REMARK    6  A    between atoms: C_17  and  C_18 
ROOT
HETATM    1  C   UNL     1     -44.267  57.057 -59.558  1.00  0.00     0.174 A 
HETATM    2  S   UNL     1     -44.256  55.367 -59.789  1.00  0.00    -0.062 SA
HETATM    3  C   UNL     1     -43.275  55.202 -58.387  1.00  0.00     0.081 A 
HETATM    4  C   UNL     1     -43.034  56.446 -57.833  1.00  0.00     0.052 A 
HETATM    5  N   UNL     1     -43.610  57.503 -58.521  1.00  0.00    -0.228 NA
ENDROOT
BRANCH   4   6
HETATM    6  C   UNL     1     -42.252  56.762 -56.600  1.00  0.00     0.163 C 
BRANCH   6   7
HETATM    7  C   UNL     1     -42.286  55.641 -55.569  1.00  0.00     0.227 C 
HETATM    8  N   UNL     1     -41.047  55.095 -55.282  1.00  0.00    -0.327 N 
HETATM    9  H   UNL     1     -40.274  55.406 -55.879  1.00  0.00     0.169 HD
HETATM   10  O   UNL     1     -43.349  55.332 -55.035  1.00  0.00    -0.273 OA
BRANCH   8  11
HETATM   11  C   UNL     1     -40.742  54.087 -54.348  1.00  0.00     0.035 A 
HETATM   12  C   UNL     1     -40.551  52.743 -54.684  1.00  0.00     0.048 A 
HETATM   13  C   UNL     1     -40.256  51.788 -53.694  1.00  0.00     0.088 A 
HETATM   14  C   UNL     1     -40.139  52.206 -52.373  1.00  0.00     0.131 A 
HETATM   15  F   UNL     1     -39.841  51.320 -51.413  1.00  0.00    -0.205 F 
HETATM   16  C   UNL     1     -40.329  53.537 -52.020  1.00  0.00     0.045 A 
HETATM   17  C   UNL     1     -40.641  54.474 -53.006  1.00  0.00     0.032 A 
BRANCH  13  18
HETATM   18  C   UNL     1     -40.061  50.340 -54.023  1.00  0.00     0.420 C 
HETATM   19  F   UNL     1     -38.965  50.103 -54.800  1.00  0.00    -0.166 F 
HETATM   20  F   UNL     1     -39.897  49.564 -52.916  1.00  0.00    -0.166 F 
HETATM   21  F   UNL     1     -41.109  49.804 -54.709  1.00  0.00    -0.166 F 
ENDBRANCH  13  18
ENDBRANCH   8  11
ENDBRANCH   6   7
ENDBRANCH   4   6
BRANCH   1  22
HETATM   22  N   UNL     1     -45.002  57.758 -60.470  1.00  0.00    -0.287 N 
HETATM   23  C   UNL     1     -46.358  57.962 -60.302  1.00  0.00     0.326 C 
HETATM   24  N   UNL     1     -46.919  58.463 -61.470  1.00  0.00    -0.309 N 
HETATM   25  O   UNL     1     -46.972  57.727 -59.269  1.00  0.00    -0.247 OA
HETATM   26  H   UNL     1     -46.322  58.473 -62.281  1.00  0.00     0.170 HD
HETATM   27  H   UNL     1     -44.496  58.223 -61.205  1.00  0.00     0.172 HD
BRANCH  24  28
HETATM   28  C   UNL     1     -48.273  58.786 -61.707  1.00  0.00     0.036 A 
HETATM   29  C   UNL     1     -49.150  57.993 -62.448  1.00  0.00     0.029 A 
HETATM   30  C   UNL     1     -50.474  58.398 -62.649  1.00  0.00     0.002 A 
HETATM   31  C   UNL     1     -50.933  59.596 -62.109  1.00  0.00     0.000 A 
HETATM   32  C   UNL     1     -50.070  60.390 -61.361  1.00  0.00     0.002 A 
HETATM   33  C   UNL     1     -48.747  59.986 -61.159  1.00  0.00     0.029 A 
ENDBRANCH  24  28
ENDBRANCH   1  22
TORSDOF 6
ENDMDL
