MODEL 1
REMARK VINA RESULT:      -7.8      0.000      0.000
REMARK  5 active torsions:
REMARK  status: ('A' for Active; 'I' for Inactive)
REMARK    1  A    between atoms: C_2  and  C_3 
REMARK    2  A    between atoms: C_7  and  N_8 
REMARK    3  A    between atoms: N_8  and  C_9 
REMARK    4  A    between atoms: C_11  and  N_12 
REMARK    5  A    between atoms: C_14  and  N_15 
ROOT
HETATM    1  C   UNL     1     -41.287  55.233 -52.782  1.00  0.00     0.111 A 
HETATM    2  N   UNL     1     -41.103  55.463 -51.473  1.00  0.00    -0.206 NA
HETATM    3  C   UNL     1     -40.600  54.477 -50.726  1.00  0.00     0.202 A 
HETATM    4  N   UNL     1     -40.284  53.266 -51.173  1.00  0.00    -0.199 NA
HETATM    5  C   UNL     1     -40.495  53.044 -52.490  1.00  0.00     0.156 A 
HETATM    6  C   UNL     1     -41.018  54.001 -53.337  1.00  0.00     0.096 A 
ENDROOT
BRANCH   1   7
HETATM    7  N   UNL     1     -41.826  56.227 -53.602  1.00  0.00    -0.265 NA
HETATM    8  H   UNL     1     -41.675  57.159 -53.237  1.00  0.00     0.130 HD
BRANCH   7   9
HETATM    9  C   UNL     1     -43.178  56.020 -54.142  1.00  0.00     0.133 C 
HETATM   10  C   UNL     1     -43.232  56.262 -55.628  1.00  0.00     0.142 A 
HETATM   11  N   UNL     1     -43.726  57.422 -56.153  1.00  0.00    -0.253 N 
HETATM   12  N   UNL     1     -42.843  55.485 -56.620  1.00  0.00    -0.215 NA
HETATM   13  N   UNL     1     -43.680  57.425 -57.492  1.00  0.00    -0.155 NA
HETATM   14  C   UNL     1     -44.346  58.501 -55.421  1.00  0.00     0.153 C 
HETATM   15  C   UNL     1     -43.129  56.228 -57.740  1.00  0.00     0.151 A 
HETATM   16  C   UNL     1     -44.087  58.400 -53.920  1.00  0.00     0.024 C 
HETATM   17  C   UNL     1     -44.204  56.949 -53.439  1.00  0.00     0.029 C 
BRANCH  15  18
HETATM   18  C   UNL     1     -42.867  55.736 -59.126  1.00  0.00     0.051 C 
HETATM   19  C   UNL     1     -42.363  56.864 -60.027  1.00  0.00     0.018 C 
HETATM   20  C   UNL     1     -44.110  55.081 -59.730  1.00  0.00     0.018 C 
ENDBRANCH  15  18
ENDBRANCH   7   9
ENDBRANCH   1   7
BRANCH   3  21
HETATM   21  N   UNL     1     -40.429  54.725 -49.381  1.00  0.00    -0.271 NA
HETATM   22  H   UNL     1     -40.105  53.883 -48.924  1.00  0.00     0.127 HD
HETATM   23  H   UNL     1     -39.865  55.555 -49.257  1.00  0.00     0.127 HD
ENDBRANCH   3  21
BRANCH   5  24
HETATM   24  N   UNL     1     -40.143  51.771 -53.021  1.00  0.00    -0.227 N 
HETATM   25  N   UNL     1     -39.642  50.769 -52.246  1.00  0.00    -0.179 NA
HETATM   26  C   UNL     1     -39.461  49.753 -53.092  1.00  0.00     0.141 A 
HETATM   27  C   UNL     1     -39.838  50.069 -54.406  1.00  0.00     0.040 A 
HETATM   28  C   UNL     1     -40.274  51.369 -54.336  1.00  0.00     0.122 A 
ENDBRANCH   5  24
TORSDOF 5
ENDMDL
MODEL 2
REMARK VINA RESULT:      -7.7      1.303      6.946
REMARK  5 active torsions:
REMARK  status: ('A' for Active; 'I' for Inactive)
REMARK    1  A    between atoms: C_2  and  C_3 
REMARK    2  A    between atoms: C_7  and  N_8 
REMARK    3  A    between atoms: N_8  and  C_9 
REMARK    4  A    between atoms: C_11  and  N_12 
REMARK    5  A    between atoms: C_14  and  N_15 
ROOT
HETATM    1  C   UNL     1     -43.433  56.192 -54.101  1.00  0.00     0.111 A 
HETATM    2  N   UNL     1     -44.258  57.199 -53.778  1.00  0.00    -0.206 NA
HETATM    3  C   UNL     1     -44.670  58.012 -54.754  1.00  0.00     0.202 A 
HETATM    4  N   UNL     1     -44.309  57.918 -56.029  1.00  0.00    -0.199 NA
HETATM    5  C   UNL     1     -43.461  56.910 -56.334  1.00  0.00     0.156 A 
HETATM    6  C   UNL     1     -42.977  56.026 -55.390  1.00  0.00     0.096 A 
ENDROOT
BRANCH   1   7
HETATM    7  N   UNL     1     -42.961  55.324 -53.113  1.00  0.00    -0.265 NA
HETATM    8  H   UNL     1     -43.597  55.244 -52.329  1.00  0.00     0.130 HD
BRANCH   7   9
HETATM    9  C   UNL     1     -41.549  55.430 -52.717  1.00  0.00     0.133 C 
HETATM   10  C   UNL     1     -40.940  54.079 -52.447  1.00  0.00     0.142 A 
HETATM   11  N   UNL     1     -40.757  53.611 -51.177  1.00  0.00    -0.253 N 
HETATM   12  N   UNL     1     -40.512  53.166 -53.297  1.00  0.00    -0.215 NA
HETATM   13  N   UNL     1     -40.200  52.392 -51.168  1.00  0.00    -0.155 NA
HETATM   14  C   UNL     1     -41.000  54.335 -49.951  1.00  0.00     0.153 C 
HETATM   15  C   UNL     1     -40.072  52.151 -52.481  1.00  0.00     0.151 A 
HETATM   16  C   UNL     1     -41.837  55.590 -50.181  1.00  0.00     0.024 C 
HETATM   17  C   UNL     1     -41.393  56.320 -51.455  1.00  0.00     0.029 C 
BRANCH  15  18
HETATM   18  C   UNL     1     -39.477  50.888 -53.011  1.00  0.00     0.051 C 
HETATM   19  C   UNL     1     -40.159  50.459 -54.310  1.00  0.00     0.018 C 
HETATM   20  C   UNL     1     -39.537  49.764 -51.976  1.00  0.00     0.018 C 
ENDBRANCH  15  18
ENDBRANCH   7   9
ENDBRANCH   1   7
BRANCH   3  21
HETATM   21  N   UNL     1     -45.508  59.050 -54.404  1.00  0.00    -0.271 NA
HETATM   22  H   UNL     1     -44.966  59.896 -54.297  1.00  0.00     0.127 HD
HETATM   23  H   UNL     1     -46.289  59.088 -55.045  1.00  0.00     0.127 HD
ENDBRANCH   3  21
BRANCH   5  24
HETATM   24  N   UNL     1     -43.068  56.750 -57.694  1.00  0.00    -0.227 N 
HETATM   25  N   UNL     1     -43.343  55.621 -58.405  1.00  0.00    -0.179 NA
HETATM   26  C   UNL     1     -42.839  55.862 -59.617  1.00  0.00     0.141 A 
HETATM   27  C   UNL     1     -42.244  57.129 -59.715  1.00  0.00     0.040 A 
HETATM   28  C   UNL     1     -42.404  57.680 -58.468  1.00  0.00     0.122 A 
ENDBRANCH   5  24
TORSDOF 5
ENDMDL
MODEL 3
REMARK VINA RESULT:      -7.7      1.656      2.288
REMARK  5 active torsions:
REMARK  status: ('A' for Active; 'I' for Inactive)
REMARK    1  A    between atoms: C_2  and  C_3 
REMARK    2  A    between atoms: C_7  and  N_8 
REMARK    3  A    between atoms: N_8  and  C_9 
REMARK    4  A    between atoms: C_11  and  N_12 
REMARK    5  A    between atoms: C_14  and  N_15 
ROOT
HETATM    1  C   UNL     1     -41.629  55.602 -50.744  1.00  0.00     0.111 A 
HETATM    2  N   UNL     1     -41.404  55.528 -49.423  1.00  0.00    -0.206 NA
HETATM    3  C   UNL     1     -40.786  54.444 -48.950  1.00  0.00     0.202 A 
HETATM    4  N   UNL     1     -40.390  53.409 -49.685  1.00  0.00    -0.199 NA
HETATM    5  C   UNL     1     -40.643  53.490 -51.010  1.00  0.00     0.156 A 
HETATM    6  C   UNL     1     -41.283  54.569 -51.587  1.00  0.00     0.096 A 
ENDROOT
BRANCH   1   7
HETATM    7  N   UNL     1     -42.287  56.708 -51.285  1.00  0.00    -0.265 NA
HETATM    8  H   UNL     1     -42.202  57.535 -50.706  1.00  0.00     0.130 HD
BRANCH   7   9
HETATM    9  C   UNL     1     -43.638  56.511 -51.831  1.00  0.00     0.133 C 
HETATM   10  C   UNL     1     -43.723  56.916 -53.279  1.00  0.00     0.142 A 
HETATM   11  N   UNL     1     -44.268  58.108 -53.664  1.00  0.00    -0.253 N 
HETATM   12  N   UNL     1     -43.319  56.272 -54.357  1.00  0.00    -0.215 NA
HETATM   13  N   UNL     1     -44.243  58.264 -54.995  1.00  0.00    -0.155 NA
HETATM   14  C   UNL     1     -44.918  59.073 -52.807  1.00  0.00     0.153 C 
HETATM   15  C   UNL     1     -43.650  57.125 -55.382  1.00  0.00     0.151 A 
HETATM   16  C   UNL     1     -44.633  58.813 -51.330  1.00  0.00     0.024 C 
HETATM   17  C   UNL     1     -44.688  57.314 -51.016  1.00  0.00     0.029 C 
BRANCH  15  18
HETATM   18  C   UNL     1     -43.391  56.803 -56.817  1.00  0.00     0.051 C 
HETATM   19  C   UNL     1     -42.824  55.391 -56.973  1.00  0.00     0.018 C 
HETATM   20  C   UNL     1     -42.458  57.829 -57.461  1.00  0.00     0.018 C 
ENDBRANCH  15  18
ENDBRANCH   7   9
ENDBRANCH   1   7
BRANCH   3  21
HETATM   21  N   UNL     1     -40.573  54.377 -47.589  1.00  0.00    -0.271 NA
HETATM   22  H   UNL     1     -41.215  55.000 -47.119  1.00  0.00     0.127 HD
HETATM   23  H   UNL     1     -40.576  53.411 -47.291  1.00  0.00     0.127 HD
ENDBRANCH   3  21
BRANCH   5  24
HETATM   24  N   UNL     1     -40.210  52.418 -51.843  1.00  0.00    -0.227 N 
HETATM   25  N   UNL     1     -39.735  51.246 -51.337  1.00  0.00    -0.179 NA
HETATM   26  C   UNL     1     -39.458  50.508 -52.414  1.00  0.00     0.141 A 
HETATM   27  C   UNL     1     -39.747  51.173 -53.616  1.00  0.00     0.040 A 
HETATM   28  C   UNL     1     -40.229  52.397 -53.223  1.00  0.00     0.122 A 
ENDBRANCH   5  24
TORSDOF 5
ENDMDL
MODEL 4
REMARK VINA RESULT:      -7.7      3.726      5.700
REMARK  5 active torsions:
REMARK  status: ('A' for Active; 'I' for Inactive)
REMARK    1  A    between atoms: C_2  and  C_3 
REMARK    2  A    between atoms: C_7  and  N_8 
REMARK    3  A    between atoms: N_8  and  C_9 
REMARK    4  A    between atoms: C_11  and  N_12 
REMARK    5  A    between atoms: C_14  and  N_15 
ROOT
HETATM    1  C   UNL     1     -41.549  56.142 -50.469  1.00  0.00     0.111 A 
HETATM    2  N   UNL     1     -41.314  55.837 -49.183  1.00  0.00    -0.206 NA
HETATM    3  C   UNL     1     -40.762  54.653 -48.909  1.00  0.00     0.202 A 
HETATM    4  N   UNL     1     -40.443  53.732 -49.812  1.00  0.00    -0.199 NA
HETATM    5  C   UNL     1     -40.705  54.047 -51.100  1.00  0.00     0.156 A 
HETATM    6  C   UNL     1     -41.279  55.244 -51.478  1.00  0.00     0.096 A 
ENDROOT
BRANCH   1   7
HETATM    7  N   UNL     1     -42.140  57.362 -50.806  1.00  0.00    -0.265 NA
HETATM    8  H   UNL     1     -42.868  57.263 -51.502  1.00  0.00     0.130 HD
BRANCH   7   9
HETATM    9  C   UNL     1     -41.259  58.517 -51.035  1.00  0.00     0.133 C 
HETATM   10  C   UNL     1     -42.035  59.806 -51.121  1.00  0.00     0.142 A 
HETATM   11  N   UNL     1     -42.319  60.400 -52.317  1.00  0.00    -0.253 N 
HETATM   12  N   UNL     1     -42.552  60.540 -50.155  1.00  0.00    -0.215 NA
HETATM   13  N   UNL     1     -43.014  61.534 -52.160  1.00  0.00    -0.155 NA
HETATM   14  C   UNL     1     -41.855  59.977 -53.618  1.00  0.00     0.153 C 
HETATM   15  C   UNL     1     -43.144  61.582 -50.827  1.00  0.00     0.151 A 
HETATM   16  C   UNL     1     -41.286  58.561 -53.593  1.00  0.00     0.024 C 
HETATM   17  C   UNL     1     -40.434  58.334 -52.338  1.00  0.00     0.029 C 
BRANCH  15  18
HETATM   18  C   UNL     1     -43.855  62.694 -50.128  1.00  0.00     0.051 C 
HETATM   19  C   UNL     1     -42.924  63.884 -49.894  1.00  0.00     0.018 C 
HETATM   20  C   UNL     1     -44.468  62.224 -48.809  1.00  0.00     0.018 C 
ENDBRANCH  15  18
ENDBRANCH   7   9
ENDBRANCH   1   7
BRANCH   3  21
HETATM   21  N   UNL     1     -40.539  54.349 -47.582  1.00  0.00    -0.271 NA
HETATM   22  H   UNL     1     -40.563  53.346 -47.460  1.00  0.00     0.127 HD
HETATM   23  H   UNL     1     -39.709  54.828 -47.259  1.00  0.00     0.127 HD
ENDBRANCH   3  21
BRANCH   5  24
HETATM   24  N   UNL     1     -40.351  53.103 -52.108  1.00  0.00    -0.227 N 
HETATM   25  N   UNL     1     -39.616  51.988 -51.838  1.00  0.00    -0.179 NA
HETATM   26  C   UNL     1     -39.516  51.365 -53.014  1.00  0.00     0.141 A 
HETATM   27  C   UNL     1     -40.175  52.048 -54.047  1.00  0.00     0.040 A 
HETATM   28  C   UNL     1     -40.704  53.161 -53.441  1.00  0.00     0.122 A 
ENDBRANCH   5  24
TORSDOF 5
ENDMDL
MODEL 5
REMARK VINA RESULT:      -7.6      1.653      7.513
REMARK  5 active torsions:
REMARK  status: ('A' for Active; 'I' for Inactive)
REMARK    1  A    between atoms: C_2  and  C_3 
REMARK    2  A    between atoms: C_7  and  N_8 
REMARK    3  A    between atoms: N_8  and  C_9 
REMARK    4  A    between atoms: C_11  and  N_12 
REMARK    5  A    between atoms: C_14  and  N_15 
ROOT
HETATM    1  C   UNL     1     -41.300  55.178 -55.151  1.00  0.00     0.111 A 
HETATM    2  N   UNL     1     -41.207  56.266 -54.371  1.00  0.00    -0.206 NA
HETATM    3  C   UNL     1     -41.889  57.356 -54.729  1.00  0.00     0.202 A 
HETATM    4  N   UNL     1     -42.643  57.461 -55.819  1.00  0.00    -0.199 NA
HETATM    5  C   UNL     1     -42.709  56.363 -56.604  1.00  0.00     0.156 A 
HETATM    6  C   UNL     1     -42.033  55.194 -56.317  1.00  0.00     0.096 A 
ENDROOT
BRANCH   1   7
HETATM    7  N   UNL     1     -40.592  54.018 -54.828  1.00  0.00    -0.265 NA
HETATM    8  H   UNL     1     -40.079  53.642 -55.616  1.00  0.00     0.130 HD
BRANCH   7   9
HETATM    9  C   UNL     1     -41.275  52.992 -54.026  1.00  0.00     0.133 C 
HETATM   10  C   UNL     1     -41.038  53.182 -52.551  1.00  0.00     0.142 A 
HETATM   11  N   UNL     1     -40.133  52.426 -51.862  1.00  0.00    -0.253 N 
HETATM   12  N   UNL     1     -41.592  54.038 -51.715  1.00  0.00    -0.215 NA
HETATM   13  N   UNL     1     -40.084  52.761 -50.566  1.00  0.00    -0.155 NA
HETATM   14  C   UNL     1     -39.378  51.307 -52.377  1.00  0.00     0.153 C 
HETATM   15  C   UNL     1     -40.984  53.754 -50.516  1.00  0.00     0.151 A 
HETATM   16  C   UNL     1     -39.409  51.247 -53.902  1.00  0.00     0.024 C 
HETATM   17  C   UNL     1     -40.810  51.569 -54.436  1.00  0.00     0.029 C 
BRANCH  15  18
HETATM   18  C   UNL     1     -41.313  54.477 -49.251  1.00  0.00     0.051 C 
HETATM   19  C   UNL     1     -41.269  55.992 -49.453  1.00  0.00     0.018 C 
HETATM   20  C   UNL     1     -40.383  54.060 -48.111  1.00  0.00     0.018 C 
ENDBRANCH  15  18
ENDBRANCH   7   9
ENDBRANCH   1   7
BRANCH   3  21
HETATM   21  N   UNL     1     -41.773  58.470 -53.924  1.00  0.00    -0.271 NA
HETATM   22  H   UNL     1     -41.112  59.114 -54.337  1.00  0.00     0.127 HD
HETATM   23  H   UNL     1     -42.693  58.834 -53.713  1.00  0.00     0.127 HD
ENDBRANCH   3  21
BRANCH   5  24
HETATM   24  N   UNL     1     -43.530  56.418 -57.767  1.00  0.00    -0.227 N 
HETATM   25  N   UNL     1     -43.603  55.389 -58.658  1.00  0.00    -0.179 NA
HETATM   26  C   UNL     1     -44.473  55.810 -59.579  1.00  0.00     0.141 A 
HETATM   27  C   UNL     1     -44.974  57.091 -59.306  1.00  0.00     0.040 A 
HETATM   28  C   UNL     1     -44.355  57.461 -58.138  1.00  0.00     0.122 A 
ENDBRANCH   5  24
TORSDOF 5
ENDMDL
MODEL 6
REMARK VINA RESULT:      -7.5      2.203      7.770
REMARK  5 active torsions:
REMARK  status: ('A' for Active; 'I' for Inactive)
REMARK    1  A    between atoms: C_2  and  C_3 
REMARK    2  A    between atoms: C_7  and  N_8 
REMARK    3  A    between atoms: N_8  and  C_9 
REMARK    4  A    between atoms: C_11  and  N_12 
REMARK    5  A    between atoms: C_14  and  N_15 
ROOT
HETATM    1  C   UNL     1     -43.252  55.970 -52.630  1.00  0.00     0.111 A 
HETATM    2  N   UNL     1     -43.124  55.582 -53.909  1.00  0.00    -0.206 NA
HETATM    3  C   UNL     1     -43.649  56.361 -54.857  1.00  0.00     0.202 A 
HETATM    4  N   UNL     1     -44.316  57.489 -54.637  1.00  0.00    -0.199 NA
HETATM    5  C   UNL     1     -44.454  57.854 -53.343  1.00  0.00     0.156 A 
HETATM    6  C   UNL     1     -43.951  57.109 -52.295  1.00  0.00     0.096 A 
ENDROOT
BRANCH   1   7
HETATM    7  N   UNL     1     -42.734  55.182 -51.600  1.00  0.00    -0.265 NA
HETATM    8  H   UNL     1     -43.251  55.281 -50.735  1.00  0.00     0.130 HD
BRANCH   7   9
HETATM    9  C   UNL     1     -41.276  55.158 -51.415  1.00  0.00     0.133 C 
HETATM   10  C   UNL     1     -40.712  53.771 -51.582  1.00  0.00     0.142 A 
HETATM   11  N   UNL     1     -40.373  52.995 -50.511  1.00  0.00    -0.253 N 
HETATM   12  N   UNL     1     -40.465  53.092 -52.686  1.00  0.00    -0.215 NA
HETATM   13  N   UNL     1     -39.891  51.803 -50.888  1.00  0.00    -0.155 NA
HETATM   14  C   UNL     1     -40.394  53.391 -49.122  1.00  0.00     0.153 C 
HETATM   15  C   UNL     1     -39.970  51.897 -52.223  1.00  0.00     0.151 A 
HETATM   16  C   UNL     1     -41.182  54.680 -48.904  1.00  0.00     0.024 C 
HETATM   17  C   UNL     1     -40.887  55.698 -50.012  1.00  0.00     0.029 C 
BRANCH  15  18
HETATM   18  C   UNL     1     -39.531  50.797 -53.133  1.00  0.00     0.051 C 
HETATM   19  C   UNL     1     -40.374  50.766 -54.408  1.00  0.00     0.018 C 
HETATM   20  C   UNL     1     -39.571  49.440 -52.429  1.00  0.00     0.018 C 
ENDBRANCH  15  18
ENDBRANCH   7   9
ENDBRANCH   1   7
BRANCH   3  21
HETATM   21  N   UNL     1     -43.519  55.942 -56.165  1.00  0.00    -0.271 NA
HETATM   22  H   UNL     1     -42.629  56.252 -56.529  1.00  0.00     0.127 HD
HETATM   23  H   UNL     1     -43.717  54.953 -56.227  1.00  0.00     0.127 HD
ENDBRANCH   3  21
BRANCH   5  24
HETATM   24  N   UNL     1     -45.135  59.073 -53.058  1.00  0.00    -0.227 N 
HETATM   25  N   UNL     1     -45.581  59.385 -51.808  1.00  0.00    -0.179 NA
HETATM   26  C   UNL     1     -46.137  60.591 -51.947  1.00  0.00     0.141 A 
HETATM   27  C   UNL     1     -46.059  61.076 -53.261  1.00  0.00     0.040 A 
HETATM   28  C   UNL     1     -45.412  60.084 -53.956  1.00  0.00     0.122 A 
ENDBRANCH   5  24
TORSDOF 5
ENDMDL
MODEL 7
REMARK VINA RESULT:      -7.5      2.038      7.632
REMARK  5 active torsions:
REMARK  status: ('A' for Active; 'I' for Inactive)
REMARK    1  A    between atoms: C_2  and  C_3 
REMARK    2  A    between atoms: C_7  and  N_8 
REMARK    3  A    between atoms: N_8  and  C_9 
REMARK    4  A    between atoms: C_11  and  N_12 
REMARK    5  A    between atoms: C_14  and  N_15 
ROOT
HETATM    1  C   UNL     1     -42.684  56.164 -56.038  1.00  0.00     0.111 A 
HETATM    2  N   UNL     1     -43.236  55.334 -56.937  1.00  0.00    -0.206 NA
HETATM    3  C   UNL     1     -43.387  55.773 -58.188  1.00  0.00     0.202 A 
HETATM    4  N   UNL     1     -43.054  56.986 -58.618  1.00  0.00    -0.199 NA
HETATM    5  C   UNL     1     -42.520  57.817 -57.695  1.00  0.00     0.156 A 
HETATM    6  C   UNL     1     -42.332  57.452 -56.377  1.00  0.00     0.096 A 
ENDROOT
BRANCH   1   7
HETATM    7  N   UNL     1     -42.520  55.757 -54.712  1.00  0.00    -0.265 NA
HETATM    8  H   UNL     1     -43.242  56.117 -54.101  1.00  0.00     0.130 HD
BRANCH   7   9
HETATM    9  C   UNL     1     -41.171  55.824 -54.131  1.00  0.00     0.133 C 
HETATM   10  C   UNL     1     -40.746  54.503 -53.545  1.00  0.00     0.142 A 
HETATM   11  N   UNL     1     -40.786  54.264 -52.201  1.00  0.00    -0.253 N 
HETATM   12  N   UNL     1     -40.304  53.418 -54.151  1.00  0.00    -0.215 NA
HETATM   13  N   UNL     1     -40.364  53.028 -51.900  1.00  0.00    -0.155 NA
HETATM   14  C   UNL     1     -41.116  55.217 -51.167  1.00  0.00     0.153 C 
HETATM   15  C   UNL     1     -40.085  52.540 -53.117  1.00  0.00     0.151 A 
HETATM   16  C   UNL     1     -41.780  56.470 -51.733  1.00  0.00     0.024 C 
HETATM   17  C   UNL     1     -41.096  56.916 -53.030  1.00  0.00     0.029 C 
BRANCH  15  18
HETATM   18  C   UNL     1     -39.557  51.159 -53.327  1.00  0.00     0.051 C 
HETATM   19  C   UNL     1     -40.373  50.411 -54.383  1.00  0.00     0.018 C 
HETATM   20  C   UNL     1     -39.521  50.370 -52.018  1.00  0.00     0.018 C 
ENDBRANCH  15  18
ENDBRANCH   7   9
ENDBRANCH   1   7
BRANCH   3  21
HETATM   21  N   UNL     1     -43.967  54.912 -59.097  1.00  0.00    -0.271 NA
HETATM   22  H   UNL     1     -44.085  54.004 -58.669  1.00  0.00     0.127 HD
HETATM   23  H   UNL     1     -44.793  55.341 -59.492  1.00  0.00     0.127 HD
ENDBRANCH   3  21
BRANCH   5  24
HETATM   24  N   UNL     1     -42.119  59.118 -58.115  1.00  0.00    -0.227 N 
HETATM   25  N   UNL     1     -41.541  60.013 -57.266  1.00  0.00    -0.179 NA
HETATM   26  C   UNL     1     -41.300  61.083 -58.026  1.00  0.00     0.141 A 
HETATM   27  C   UNL     1     -41.705  60.904 -59.357  1.00  0.00     0.040 A 
HETATM   28  C   UNL     1     -42.228  59.635 -59.390  1.00  0.00     0.122 A 
ENDBRANCH   5  24
TORSDOF 5
ENDMDL
MODEL 8
REMARK VINA RESULT:      -7.4      2.320      7.013
REMARK  5 active torsions:
REMARK  status: ('A' for Active; 'I' for Inactive)
REMARK    1  A    between atoms: C_2  and  C_3 
REMARK    2  A    between atoms: C_7  and  N_8 
REMARK    3  A    between atoms: N_8  and  C_9 
REMARK    4  A    between atoms: C_11  and  N_12 
REMARK    5  A    between atoms: C_14  and  N_15 
ROOT
HETATM    1  C   UNL     1     -42.242  58.797 -55.447  1.00  0.00     0.111 A 
HETATM    2  N   UNL     1     -41.712  59.953 -55.876  1.00  0.00    -0.206 NA
HETATM    3  C   UNL     1     -41.687  60.183 -57.191  1.00  0.00     0.202 A 
HETATM    4  N   UNL     1     -42.127  59.343 -58.122  1.00  0.00    -0.199 NA
HETATM    5  C   UNL     1     -42.638  58.174 -57.674  1.00  0.00     0.156 A 
HETATM    6  C   UNL     1     -42.700  57.847 -56.335  1.00  0.00     0.096 A 
ENDROOT
BRANCH   1   7
HETATM    7  N   UNL     1     -42.277  58.502 -54.083  1.00  0.00    -0.265 NA
HETATM    8  H   UNL     1     -42.821  59.172 -53.553  1.00  0.00     0.130 HD
BRANCH   7   9
HETATM    9  C   UNL     1     -41.020  58.115 -53.427  1.00  0.00     0.133 C 
HETATM   10  C   UNL     1     -41.034  56.672 -52.994  1.00  0.00     0.142 A 
HETATM   11  N   UNL     1     -41.257  56.310 -51.696  1.00  0.00    -0.253 N 
HETATM   12  N   UNL     1     -40.861  55.579 -53.710  1.00  0.00    -0.215 NA
HETATM   13  N   UNL     1     -41.225  54.980 -51.534  1.00  0.00    -0.155 NA
HETATM   14  C   UNL     1     -41.398  57.201 -50.567  1.00  0.00     0.153 C 
HETATM   15  C   UNL     1     -40.987  54.568 -52.788  1.00  0.00     0.151 A 
HETATM   16  C   UNL     1     -41.633  58.645 -51.001  1.00  0.00     0.024 C 
HETATM   17  C   UNL     1     -40.740  59.013 -52.191  1.00  0.00     0.029 C 
BRANCH  15  18
HETATM   18  C   UNL     1     -40.849  53.125 -53.146  1.00  0.00     0.051 C 
HETATM   19  C   UNL     1     -40.000  52.379 -52.116  1.00  0.00     0.018 C 
HETATM   20  C   UNL     1     -40.268  52.950 -54.549  1.00  0.00     0.018 C 
ENDBRANCH  15  18
ENDBRANCH   7   9
ENDBRANCH   1   7
BRANCH   3  21
HETATM   21  N   UNL     1     -41.128  61.370 -57.617  1.00  0.00    -0.271 NA
HETATM   22  H   UNL     1     -41.585  61.669 -58.468  1.00  0.00     0.127 HD
HETATM   23  H   UNL     1     -41.111  62.031 -56.852  1.00  0.00     0.127 HD
ENDBRANCH   3  21
BRANCH   5  24
HETATM   24  N   UNL     1     -43.150  57.254 -58.633  1.00  0.00    -0.227 N 
HETATM   25  N   UNL     1     -43.171  55.909 -58.416  1.00  0.00    -0.179 NA
HETATM   26  C   UNL     1     -43.732  55.404 -59.517  1.00  0.00     0.141 A 
HETATM   27  C   UNL     1     -44.082  56.392 -60.449  1.00  0.00     0.040 A 
HETATM   28  C   UNL     1     -43.700  57.572 -59.859  1.00  0.00     0.122 A 
ENDBRANCH   5  24
TORSDOF 5
ENDMDL
MODEL 9
REMARK VINA RESULT:      -7.1      3.366      7.235
REMARK  5 active torsions:
REMARK  status: ('A' for Active; 'I' for Inactive)
REMARK    1  A    between atoms: C_2  and  C_3 
REMARK    2  A    between atoms: C_7  and  N_8 
REMARK    3  A    between atoms: N_8  and  C_9 
REMARK    4  A    between atoms: C_11  and  N_12 
REMARK    5  A    between atoms: C_14  and  N_15 
ROOT
HETATM    1  C   UNL     1     -41.231  58.049 -52.164  1.00  0.00     0.111 A 
HETATM    2  N   UNL     1     -40.037  58.464 -51.712  1.00  0.00    -0.206 NA
HETATM    3  C   UNL     1     -40.009  59.501 -50.872  1.00  0.00     0.202 A 
HETATM    4  N   UNL     1     -41.075  60.178 -50.458  1.00  0.00    -0.199 NA
HETATM    5  C   UNL     1     -42.268  59.760 -50.939  1.00  0.00     0.156 A 
HETATM    6  C   UNL     1     -42.393  58.702 -51.817  1.00  0.00     0.096 A 
ENDROOT
BRANCH   1   7
HETATM    7  N   UNL     1     -41.311  56.979 -53.058  1.00  0.00    -0.265 NA
HETATM    8  H   UNL     1     -41.405  57.281 -54.020  1.00  0.00     0.130 HD
BRANCH   7   9
HETATM    9  C   UNL     1     -42.186  55.850 -52.708  1.00  0.00     0.133 C 
HETATM   10  C   UNL     1     -41.594  54.530 -53.127  1.00  0.00     0.142 A 
HETATM   11  N   UNL     1     -42.012  53.876 -54.251  1.00  0.00    -0.253 N 
HETATM   12  N   UNL     1     -40.641  53.818 -52.557  1.00  0.00    -0.215 NA
HETATM   13  N   UNL     1     -41.354  52.723 -54.433  1.00  0.00    -0.155 NA
HETATM   14  C   UNL     1     -43.105  54.262 -55.113  1.00  0.00     0.153 C 
HETATM   15  C   UNL     1     -40.520  52.726 -53.383  1.00  0.00     0.151 A 
HETATM   16  C   UNL     1     -43.555  55.698 -54.863  1.00  0.00     0.024 C 
HETATM   17  C   UNL     1     -43.585  56.010 -53.362  1.00  0.00     0.029 C 
BRANCH  15  18
HETATM   18  C   UNL     1     -39.554  51.618 -53.122  1.00  0.00     0.051 C 
HETATM   19  C   UNL     1     -39.831  50.418 -54.028  1.00  0.00     0.018 C 
HETATM   20  C   UNL     1     -39.572  51.196 -51.652  1.00  0.00     0.018 C 
ENDBRANCH  15  18
ENDBRANCH   7   9
ENDBRANCH   1   7
BRANCH   3  21
HETATM   21  N   UNL     1     -38.774  59.924 -50.426  1.00  0.00    -0.271 NA
HETATM   22  H   UNL     1     -38.448  60.680 -51.012  1.00  0.00     0.127 HD
HETATM   23  H   UNL     1     -38.814  60.102 -49.432  1.00  0.00     0.127 HD
ENDBRANCH   3  21
BRANCH   5  24
HETATM   24  N   UNL     1     -43.443  60.435 -50.500  1.00  0.00    -0.227 N 
HETATM   25  N   UNL     1     -44.670  59.843 -50.506  1.00  0.00    -0.179 NA
HETATM   26  C   UNL     1     -45.490  60.775 -50.015  1.00  0.00     0.141 A 
HETATM   27  C   UNL     1     -44.822  61.964 -49.683  1.00  0.00     0.040 A 
HETATM   28  C   UNL     1     -43.509  61.721 -50.003  1.00  0.00     0.122 A 
ENDBRANCH   5  24
TORSDOF 5
ENDMDL
MODEL 10
REMARK VINA RESULT:      -6.9      2.665      4.652
REMARK  5 active torsions:
REMARK  status: ('A' for Active; 'I' for Inactive)
REMARK    1  A    between atoms: C_2  and  C_3 
REMARK    2  A    between atoms: C_7  and  N_8 
REMARK    3  A    between atoms: N_8  and  C_9 
REMARK    4  A    between atoms: C_11  and  N_12 
REMARK    5  A    between atoms: C_14  and  N_15 
ROOT
HETATM    1  C   UNL     1     -42.881  55.558 -53.933  1.00  0.00     0.111 A 
HETATM    2  N   UNL     1     -43.664  55.630 -52.846  1.00  0.00    -0.206 NA
HETATM    3  C   UNL     1     -43.484  54.726 -51.880  1.00  0.00     0.202 A 
HETATM    4  N   UNL     1     -42.598  53.736 -51.917  1.00  0.00    -0.199 NA
HETATM    5  C   UNL     1     -41.831  53.665 -53.028  1.00  0.00     0.156 A 
HETATM    6  C   UNL     1     -41.952  54.551 -54.080  1.00  0.00     0.096 A 
ENDROOT
BRANCH   1   7
HETATM    7  N   UNL     1     -43.042  56.470 -54.978  1.00  0.00    -0.265 NA
HETATM    8  H   UNL     1     -43.421  56.043 -55.814  1.00  0.00     0.130 HD
BRANCH   7   9
HETATM    9  C   UNL     1     -41.948  57.416 -55.245  1.00  0.00     0.133 C 
HETATM   10  C   UNL     1     -41.528  58.154 -54.001  1.00  0.00     0.142 A 
HETATM   11  N   UNL     1     -41.925  59.436 -53.753  1.00  0.00    -0.253 N 
HETATM   12  N   UNL     1     -40.775  57.747 -52.997  1.00  0.00    -0.215 NA
HETATM   13  N   UNL     1     -41.436  59.897 -52.594  1.00  0.00    -0.155 NA
HETATM   14  C   UNL     1     -42.679  60.289 -54.642  1.00  0.00     0.153 C 
HETATM   15  C   UNL     1     -40.745  58.835 -52.158  1.00  0.00     0.151 A 
HETATM   16  C   UNL     1     -43.322  59.505 -55.783  1.00  0.00     0.024 C 
HETATM   17  C   UNL     1     -42.359  58.446 -56.332  1.00  0.00     0.029 C 
BRANCH  15  18
HETATM   18  C   UNL     1     -39.984  58.844 -50.873  1.00  0.00     0.051 C 
HETATM   19  C   UNL     1     -40.756  59.583 -49.779  1.00  0.00     0.018 C 
HETATM   20  C   UNL     1     -38.592  59.451 -51.051  1.00  0.00     0.018 C 
ENDBRANCH  15  18
ENDBRANCH   7   9
ENDBRANCH   1   7
BRANCH   3  21
HETATM   21  N   UNL     1     -44.305  54.805 -50.775  1.00  0.00    -0.271 NA
HETATM   22  H   UNL     1     -43.782  54.542 -49.950  1.00  0.00     0.127 HD
HETATM   23  H   UNL     1     -44.763  55.707 -50.756  1.00  0.00     0.127 HD
ENDBRANCH   3  21
BRANCH   5  24
HETATM   24  N   UNL     1     -40.846  52.639 -53.101  1.00  0.00    -0.227 N 
HETATM   25  N   UNL     1     -40.086  52.279 -52.028  1.00  0.00    -0.179 NA
HETATM   26  C   UNL     1     -39.312  51.293 -52.486  1.00  0.00     0.141 A 
HETATM   27  C   UNL     1     -39.555  50.996 -53.836  1.00  0.00     0.040 A 
HETATM   28  C   UNL     1     -40.543  51.873 -54.208  1.00  0.00     0.122 A 
ENDBRANCH   5  24
TORSDOF 5
ENDMDL
