MODEL 1
REMARK VINA RESULT:      -8.5      0.000      0.000
REMARK  2 active torsions:
REMARK  status: ('A' for Active; 'I' for Inactive)
REMARK    1  A    between atoms: C_8  and  C_9 
REMARK       I    between atoms: N_10  and  C_11 
REMARK    2  A    between atoms: C_11  and  C_12 
ROOT
HETATM    1  C   UNL     1     -42.878  57.277 -54.481  1.00  0.00     0.124 C 
HETATM    2  N   UNL     1     -42.426  55.962 -54.028  1.00  0.00    -0.339 N 
HETATM    3  C   UNL     1     -41.088  55.741 -53.787  1.00  0.00     0.260 C 
HETATM    4  O   UNL     1     -40.233  56.608 -53.976  1.00  0.00    -0.267 OA
HETATM    5  C   UNL     1     -43.549  55.166 -53.547  1.00  0.00     0.127 C 
HETATM    6  C   UNL     1     -44.782  55.855 -54.108  1.00  0.00     0.022 C 
HETATM    7  C   UNL     1     -44.370  57.320 -54.123  1.00  0.00     0.032 C 
ENDROOT
BRANCH   1   8
HETATM    8  C   UNL     1     -42.625  57.510 -55.945  1.00  0.00     0.014 A 
HETATM    9  C   UNL     1     -42.643  56.651 -57.035  1.00  0.00     0.034 A 
HETATM   10  C   UNL     1     -42.885  55.197 -57.180  1.00  0.00     0.070 C 
HETATM   11  N   UNL     1     -42.316  57.412 -58.122  1.00  0.00    -0.282 N 
HETATM   12  H   UNL     1     -42.208  57.110 -59.084  1.00  0.00     0.189 HD
HETATM   13  N   UNL     1     -42.125  58.706 -57.844  1.00  0.00    -0.179 NA
HETATM   14  C   UNL     1     -42.282  58.776 -56.519  1.00  0.00     0.061 A 
HETATM   15  C   UNL     1     -42.102  60.075 -55.823  1.00  0.00     0.073 C 
ENDBRANCH   1   8
BRANCH   3  16
HETATM   16  C   UNL     1     -40.667  54.450 -53.181  1.00  0.00     0.108 A 
HETATM   17  C   UNL     1     -40.577  54.231 -51.723  1.00  0.00     0.304 A 
HETATM   18  O   UNL     1     -40.838  55.099 -50.898  1.00  0.00    -0.259 OA
HETATM   19  O   UNL     1     -40.155  52.969 -51.304  1.00  0.00    -0.274 OA
HETATM   20  C   UNL     1     -39.979  51.910 -52.213  1.00  0.00     0.089 A 
HETATM   21  C   UNL     1     -40.147  52.113 -53.578  1.00  0.00    -0.001 A 
HETATM   22  C   UNL     1     -39.657  50.661 -51.691  1.00  0.00     0.038 A 
HETATM   23  C   UNL     1     -40.001  51.028 -54.445  1.00  0.00     0.014 A 
HETATM   24  C   UNL     1     -40.481  53.445 -54.051  1.00  0.00     0.037 A 
HETATM   25  C   UNL     1     -39.687  49.764 -53.935  1.00  0.00     0.001 A 
HETATM   26  C   UNL     1     -39.512  49.581 -52.561  1.00  0.00     0.003 A 
ENDBRANCH   3  16
TORSDOF 2
ENDMDL
MODEL 2
REMARK VINA RESULT:      -8.5      3.034      4.360
REMARK  2 active torsions:
REMARK  status: ('A' for Active; 'I' for Inactive)
REMARK    1  A    between atoms: C_8  and  C_9 
REMARK       I    between atoms: N_10  and  C_11 
REMARK    2  A    between atoms: C_11  and  C_12 
ROOT
HETATM    1  C   UNL     1     -43.154  58.703 -52.782  1.00  0.00     0.124 C 
HETATM    2  N   UNL     1     -42.227  57.584 -52.619  1.00  0.00    -0.339 N 
HETATM    3  C   UNL     1     -42.650  56.425 -52.005  1.00  0.00     0.260 C 
HETATM    4  O   UNL     1     -43.787  56.301 -51.545  1.00  0.00    -0.267 OA
HETATM    5  C   UNL     1     -41.061  57.747 -53.479  1.00  0.00     0.127 C 
HETATM    6  C   UNL     1     -41.072  59.215 -53.873  1.00  0.00     0.022 C 
HETATM    7  C   UNL     1     -42.558  59.537 -53.925  1.00  0.00     0.032 C 
ENDROOT
BRANCH   1   8
HETATM    8  C   UNL     1     -43.340  59.497 -51.519  1.00  0.00     0.014 A 
HETATM    9  C   UNL     1     -42.440  59.919 -50.551  1.00  0.00     0.034 A 
HETATM   10  C   UNL     1     -40.982  59.735 -50.369  1.00  0.00     0.070 C 
HETATM   11  N   UNL     1     -43.177  60.589 -49.615  1.00  0.00    -0.282 N 
HETATM   12  H   UNL     1     -42.853  61.013 -48.753  1.00  0.00     0.189 HD
HETATM   13  N   UNL     1     -44.478  60.679 -49.909  1.00  0.00    -0.179 NA
HETATM   14  C   UNL     1     -44.598  59.995 -51.050  1.00  0.00     0.061 A 
HETATM   15  C   UNL     1     -45.934  59.835 -51.677  1.00  0.00     0.073 C 
ENDBRANCH   1   8
BRANCH   3  16
HETATM   16  C   UNL     1     -41.745  55.245 -51.987  1.00  0.00     0.108 A 
HETATM   17  C   UNL     1     -40.928  54.869 -50.815  1.00  0.00     0.304 A 
HETATM   18  O   UNL     1     -40.929  55.503 -49.767  1.00  0.00    -0.259 OA
HETATM   19  O   UNL     1     -40.119  53.741 -50.954  1.00  0.00    -0.274 OA
HETATM   20  C   UNL     1     -40.193  52.913 -52.088  1.00  0.00     0.089 A 
HETATM   21  C   UNL     1     -41.029  53.239 -53.149  1.00  0.00    -0.001 A 
HETATM   22  C   UNL     1     -39.421  51.755 -52.090  1.00  0.00     0.038 A 
HETATM   23  C   UNL     1     -41.103  52.371 -54.241  1.00  0.00     0.014 A 
HETATM   24  C   UNL     1     -41.803  54.465 -53.078  1.00  0.00     0.037 A 
HETATM   25  C   UNL     1     -40.342  51.198 -54.254  1.00  0.00     0.001 A 
HETATM   26  C   UNL     1     -39.500  50.892 -53.182  1.00  0.00     0.003 A 
ENDBRANCH   3  16
TORSDOF 2
ENDMDL
MODEL 3
REMARK VINA RESULT:      -8.2      2.452      3.126
REMARK  2 active torsions:
REMARK  status: ('A' for Active; 'I' for Inactive)
REMARK    1  A    between atoms: C_8  and  C_9 
REMARK       I    between atoms: N_10  and  C_11 
REMARK    2  A    between atoms: C_11  and  C_12 
ROOT
HETATM    1  C   UNL     1     -42.621  57.259 -51.013  1.00  0.00     0.124 C 
HETATM    2  N   UNL     1     -42.192  55.870 -51.168  1.00  0.00    -0.339 N 
HETATM    3  C   UNL     1     -40.949  55.480 -50.719  1.00  0.00     0.260 C 
HETATM    4  O   UNL     1     -40.152  56.276 -50.216  1.00  0.00    -0.267 OA
HETATM    5  C   UNL     1     -43.328  55.006 -51.467  1.00  0.00     0.127 C 
HETATM    6  C   UNL     1     -44.427  55.954 -51.921  1.00  0.00     0.022 C 
HETATM    7  C   UNL     1     -44.153  57.204 -51.098  1.00  0.00     0.032 C 
ENDROOT
BRANCH   1   8
HETATM    8  C   UNL     1     -42.016  58.176 -52.040  1.00  0.00     0.014 A 
HETATM    9  C   UNL     1     -41.539  57.943 -53.322  1.00  0.00     0.034 A 
HETATM   10  C   UNL     1     -41.415  56.725 -54.155  1.00  0.00     0.070 C 
HETATM   11  N   UNL     1     -41.084  59.148 -53.781  1.00  0.00    -0.282 N 
HETATM   12  H   UNL     1     -40.644  59.348 -54.673  1.00  0.00     0.189 HD
HETATM   13  N   UNL     1     -41.260  60.159 -52.925  1.00  0.00    -0.179 NA
HETATM   14  C   UNL     1     -41.800  59.579 -51.850  1.00  0.00     0.061 A 
HETATM   15  C   UNL     1     -42.106  60.395 -50.647  1.00  0.00     0.073 C 
ENDBRANCH   1   8
BRANCH   3  16
HETATM   16  C   UNL     1     -40.591  54.037 -50.744  1.00  0.00     0.108 A 
HETATM   17  C   UNL     1     -40.636  53.172 -49.548  1.00  0.00     0.304 A 
HETATM   18  O   UNL     1     -40.967  53.576 -48.439  1.00  0.00    -0.259 OA
HETATM   19  O   UNL     1     -40.260  51.840 -49.726  1.00  0.00    -0.274 OA
HETATM   20  C   UNL     1     -40.006  51.308 -51.003  1.00  0.00     0.089 A 
HETATM   21  C   UNL     1     -40.048  52.121 -52.130  1.00  0.00    -0.001 A 
HETATM   22  C   UNL     1     -39.740  49.945 -51.091  1.00  0.00     0.038 A 
HETATM   23  C   UNL     1     -39.828  51.548 -53.384  1.00  0.00     0.014 A 
HETATM   24  C   UNL     1     -40.331  53.535 -51.961  1.00  0.00     0.037 A 
HETATM   25  C   UNL     1     -39.568  50.178 -53.490  1.00  0.00     0.001 A 
HETATM   26  C   UNL     1     -39.521  49.378 -52.345  1.00  0.00     0.003 A 
ENDBRANCH   3  16
TORSDOF 2
ENDMDL
MODEL 4
REMARK VINA RESULT:      -8.1      2.711      4.134
REMARK  2 active torsions:
REMARK  status: ('A' for Active; 'I' for Inactive)
REMARK    1  A    between atoms: C_8  and  C_9 
REMARK       I    between atoms: N_10  and  C_11 
REMARK    2  A    between atoms: C_11  and  C_12 
ROOT
HETATM    1  C   UNL     1     -43.231  56.705 -58.542  1.00  0.00     0.124 C 
HETATM    2  N   UNL     1     -42.943  56.440 -57.133  1.00  0.00    -0.339 N 
HETATM    3  C   UNL     1     -43.132  55.174 -56.620  1.00  0.00     0.260 C 
HETATM    4  O   UNL     1     -43.575  54.247 -57.301  1.00  0.00    -0.267 OA
HETATM    5  C   UNL     1     -42.140  57.510 -56.557  1.00  0.00     0.127 C 
HETATM    6  C   UNL     1     -42.287  58.672 -57.527  1.00  0.00     0.022 C 
HETATM    7  C   UNL     1     -42.427  57.970 -58.871  1.00  0.00     0.032 C 
ENDROOT
BRANCH   1   8
HETATM    8  C   UNL     1     -44.700  56.862 -58.820  1.00  0.00     0.014 A 
HETATM    9  C   UNL     1     -45.683  57.618 -58.198  1.00  0.00     0.034 A 
HETATM   10  C   UNL     1     -45.681  58.524 -57.026  1.00  0.00     0.070 C 
HETATM   11  N   UNL     1     -46.845  57.353 -58.867  1.00  0.00    -0.282 N 
HETATM   12  H   UNL     1     -47.773  57.711 -58.670  1.00  0.00     0.189 HD
HETATM   13  N   UNL     1     -46.699  56.520 -59.902  1.00  0.00    -0.179 NA
HETATM   14  C   UNL     1     -45.406  56.190 -59.869  1.00  0.00     0.061 A 
HETATM   15  C   UNL     1     -44.864  55.228 -60.862  1.00  0.00     0.073 C 
ENDBRANCH   1   8
BRANCH   3  16
HETATM   16  C   UNL     1     -42.689  54.885 -55.231  1.00  0.00     0.108 A 
HETATM   17  C   UNL     1     -43.358  55.439 -54.036  1.00  0.00     0.304 A 
HETATM   18  O   UNL     1     -44.329  56.184 -54.096  1.00  0.00    -0.259 OA
HETATM   19  O   UNL     1     -42.820  55.086 -52.798  1.00  0.00    -0.274 OA
HETATM   20  C   UNL     1     -41.796  54.129 -52.683  1.00  0.00     0.089 A 
HETATM   21  C   UNL     1     -41.231  53.556 -53.817  1.00  0.00    -0.001 A 
HETATM   22  C   UNL     1     -41.395  53.766 -51.401  1.00  0.00     0.038 A 
HETATM   23  C   UNL     1     -40.243  52.582 -53.660  1.00  0.00     0.014 A 
HETATM   24  C   UNL     1     -41.698  53.985 -55.123  1.00  0.00     0.037 A 
HETATM   25  C   UNL     1     -39.837  52.199 -52.378  1.00  0.00     0.001 A 
HETATM   26  C   UNL     1     -40.409  52.793 -51.250  1.00  0.00     0.003 A 
ENDBRANCH   3  16
TORSDOF 2
ENDMDL
MODEL 5
REMARK VINA RESULT:      -7.9      1.307      2.095
REMARK  2 active torsions:
REMARK  status: ('A' for Active; 'I' for Inactive)
REMARK    1  A    between atoms: C_8  and  C_9 
REMARK       I    between atoms: N_10  and  C_11 
REMARK    2  A    between atoms: C_11  and  C_12 
ROOT
HETATM    1  C   UNL     1     -43.153  57.615 -53.966  1.00  0.00     0.124 C 
HETATM    2  N   UNL     1     -42.651  56.242 -54.000  1.00  0.00    -0.339 N 
HETATM    3  C   UNL     1     -41.369  55.969 -53.574  1.00  0.00     0.260 C 
HETATM    4  O   UNL     1     -40.600  56.854 -53.192  1.00  0.00    -0.267 OA
HETATM    5  C   UNL     1     -43.746  55.293 -54.155  1.00  0.00     0.127 C 
HETATM    6  C   UNL     1     -44.917  56.128 -54.649  1.00  0.00     0.022 C 
HETATM    7  C   UNL     1     -44.681  57.469 -53.971  1.00  0.00     0.032 C 
ENDROOT
BRANCH   1   8
HETATM    8  C   UNL     1     -42.646  58.452 -55.108  1.00  0.00     0.014 A 
HETATM    9  C   UNL     1     -42.437  58.159 -56.448  1.00  0.00     0.034 A 
HETATM   10  C   UNL     1     -42.598  56.929 -57.257  1.00  0.00     0.070 C 
HETATM   11  N   UNL     1     -41.943  59.302 -57.013  1.00  0.00    -0.282 N 
HETATM   12  H   UNL     1     -41.652  59.446 -57.973  1.00  0.00     0.189 HD
HETATM   13  N   UNL     1     -41.851  60.332 -56.166  1.00  0.00    -0.179 NA
HETATM   14  C   UNL     1     -42.248  59.823 -54.997  1.00  0.00     0.061 A 
HETATM   15  C   UNL     1     -42.243  60.676 -53.781  1.00  0.00     0.073 C 
ENDBRANCH   1   8
BRANCH   3  16
HETATM   16  C   UNL     1     -40.929  54.553 -53.469  1.00  0.00     0.108 A 
HETATM   17  C   UNL     1     -40.397  53.783 -54.612  1.00  0.00     0.304 A 
HETATM   18  O   UNL     1     -40.280  54.251 -55.739  1.00  0.00    -0.259 OA
HETATM   19  O   UNL     1     -40.036  52.459 -54.361  1.00  0.00    -0.274 OA
HETATM   20  C   UNL     1     -40.028  51.930 -53.058  1.00  0.00     0.089 A 
HETATM   21  C   UNL     1     -40.456  52.696 -51.979  1.00  0.00    -0.001 A 
HETATM   22  C   UNL     1     -39.554  50.632 -52.893  1.00  0.00     0.038 A 
HETATM   23  C   UNL     1     -40.396  52.148 -50.696  1.00  0.00     0.014 A 
HETATM   24  C   UNL     1     -40.939  54.043 -52.227  1.00  0.00     0.037 A 
HETATM   25  C   UNL     1     -39.913  50.849 -50.514  1.00  0.00     0.001 A 
HETATM   26  C   UNL     1     -39.496  50.090 -51.611  1.00  0.00     0.003 A 
ENDBRANCH   3  16
TORSDOF 2
ENDMDL
MODEL 6
REMARK VINA RESULT:      -7.9      2.234      2.976
REMARK  2 active torsions:
REMARK  status: ('A' for Active; 'I' for Inactive)
REMARK    1  A    between atoms: C_8  and  C_9 
REMARK       I    between atoms: N_10  and  C_11 
REMARK    2  A    between atoms: C_11  and  C_12 
ROOT
HETATM    1  C   UNL     1     -43.318  58.880 -55.357  1.00  0.00     0.124 C 
HETATM    2  N   UNL     1     -42.965  57.978 -54.262  1.00  0.00    -0.339 N 
HETATM    3  C   UNL     1     -41.726  58.072 -53.666  1.00  0.00     0.260 C 
HETATM    4  O   UNL     1     -40.872  58.874 -54.048  1.00  0.00    -0.267 OA
HETATM    5  C   UNL     1     -44.153  57.331 -53.719  1.00  0.00     0.127 C 
HETATM    6  C   UNL     1     -45.221  57.524 -54.784  1.00  0.00     0.022 C 
HETATM    7  C   UNL     1     -44.853  58.872 -55.387  1.00  0.00     0.032 C 
ENDROOT
BRANCH   1   8
HETATM    8  C   UNL     1     -42.709  58.472 -56.670  1.00  0.00     0.014 A 
HETATM    9  C   UNL     1     -42.576  57.235 -57.283  1.00  0.00     0.034 A 
HETATM   10  C   UNL     1     -42.945  55.857 -56.885  1.00  0.00     0.070 C 
HETATM   11  N   UNL     1     -41.920  57.465 -58.461  1.00  0.00    -0.282 N 
HETATM   12  H   UNL     1     -41.629  56.784 -59.154  1.00  0.00     0.189 HD
HETATM   13  N   UNL     1     -41.649  58.753 -58.691  1.00  0.00    -0.179 NA
HETATM   14  C   UNL     1     -42.098  59.376 -57.598  1.00  0.00     0.061 A 
HETATM   15  C   UNL     1     -41.933  60.846 -57.466  1.00  0.00     0.073 C 
ENDBRANCH   1   8
BRANCH   3  16
HETATM   16  C   UNL     1     -41.442  57.255 -52.457  1.00  0.00     0.108 A 
HETATM   17  C   UNL     1     -41.580  57.771 -51.080  1.00  0.00     0.304 A 
HETATM   18  O   UNL     1     -41.936  58.916 -50.826  1.00  0.00    -0.259 OA
HETATM   19  O   UNL     1     -41.266  56.888 -50.047  1.00  0.00    -0.274 OA
HETATM   20  C   UNL     1     -40.986  55.532 -50.293  1.00  0.00     0.089 A 
HETATM   21  C   UNL     1     -40.940  55.043 -51.594  1.00  0.00    -0.001 A 
HETATM   22  C   UNL     1     -40.786  54.705 -49.191  1.00  0.00     0.038 A 
HETATM   23  C   UNL     1     -40.698  53.682 -51.795  1.00  0.00     0.014 A 
HETATM   24  C   UNL     1     -41.157  55.964 -52.695  1.00  0.00     0.037 A 
HETATM   25  C   UNL     1     -40.504  52.837 -50.698  1.00  0.00     0.001 A 
HETATM   26  C   UNL     1     -40.545  53.348 -49.398  1.00  0.00     0.003 A 
ENDBRANCH   3  16
TORSDOF 2
ENDMDL
MODEL 7
REMARK VINA RESULT:      -7.8      3.151      4.761
REMARK  2 active torsions:
REMARK  status: ('A' for Active; 'I' for Inactive)
REMARK    1  A    between atoms: C_8  and  C_9 
REMARK       I    between atoms: N_10  and  C_11 
REMARK    2  A    between atoms: C_11  and  C_12 
ROOT
HETATM    1  C   UNL     1     -43.617  59.275 -53.213  1.00  0.00     0.124 C 
HETATM    2  N   UNL     1     -42.875  58.025 -53.376  1.00  0.00    -0.339 N 
HETATM    3  C   UNL     1     -43.440  56.834 -52.977  1.00  0.00     0.260 C 
HETATM    4  O   UNL     1     -44.550  56.778 -52.443  1.00  0.00    -0.267 OA
HETATM    5  C   UNL     1     -41.756  58.203 -54.293  1.00  0.00     0.127 C 
HETATM    6  C   UNL     1     -41.554  59.708 -54.372  1.00  0.00     0.022 C 
HETATM    7  C   UNL     1     -42.969  60.245 -54.210  1.00  0.00     0.032 C 
ENDROOT
BRANCH   1   8
HETATM    8  C   UNL     1     -43.590  59.791 -51.800  1.00  0.00     0.014 A 
HETATM    9  C   UNL     1     -42.558  59.919 -50.882  1.00  0.00     0.034 A 
HETATM   10  C   UNL     1     -41.116  59.582 -50.919  1.00  0.00     0.070 C 
HETATM   11  N   UNL     1     -43.122  60.430 -49.747  1.00  0.00    -0.282 N 
HETATM   12  H   UNL     1     -42.669  60.630 -48.862  1.00  0.00     0.189 HD
HETATM   13  N   UNL     1     -44.430  60.687 -49.857  1.00  0.00    -0.179 NA
HETATM   14  C   UNL     1     -44.735  60.277 -51.090  1.00  0.00     0.061 A 
HETATM   15  C   UNL     1     -46.137  60.365 -51.571  1.00  0.00     0.073 C 
ENDBRANCH   1   8
BRANCH   3  16
HETATM   16  C   UNL     1     -42.739  55.561 -53.291  1.00  0.00     0.108 A 
HETATM   17  C   UNL     1     -42.767  54.929 -54.626  1.00  0.00     0.304 A 
HETATM   18  O   UNL     1     -43.374  55.404 -55.580  1.00  0.00    -0.259 OA
HETATM   19  O   UNL     1     -42.069  53.729 -54.765  1.00  0.00    -0.274 OA
HETATM   20  C   UNL     1     -41.252  53.226 -53.737  1.00  0.00     0.089 A 
HETATM   21  C   UNL     1     -41.174  53.878 -52.511  1.00  0.00    -0.001 A 
HETATM   22  C   UNL     1     -40.515  52.077 -54.005  1.00  0.00     0.038 A 
HETATM   23  C   UNL     1     -40.322  53.369 -51.529  1.00  0.00     0.014 A 
HETATM   24  C   UNL     1     -41.974  55.072 -52.302  1.00  0.00     0.037 A 
HETATM   25  C   UNL     1     -39.567  52.220 -51.787  1.00  0.00     0.001 A 
HETATM   26  C   UNL     1     -39.666  51.573 -53.021  1.00  0.00     0.003 A 
ENDBRANCH   3  16
TORSDOF 2
ENDMDL
MODEL 8
REMARK VINA RESULT:      -7.8      2.993      3.706
REMARK  2 active torsions:
REMARK  status: ('A' for Active; 'I' for Inactive)
REMARK    1  A    between atoms: C_8  and  C_9 
REMARK       I    between atoms: N_10  and  C_11 
REMARK    2  A    between atoms: C_11  and  C_12 
ROOT
HETATM    1  C   UNL     1     -43.491  59.373 -51.122  1.00  0.00     0.124 C 
HETATM    2  N   UNL     1     -42.998  58.023 -51.392  1.00  0.00    -0.339 N 
HETATM    3  C   UNL     1     -41.657  57.740 -51.250  1.00  0.00     0.260 C 
HETATM    4  O   UNL     1     -40.833  58.601 -50.935  1.00  0.00    -0.267 OA
HETATM    5  C   UNL     1     -44.098  57.067 -51.431  1.00  0.00     0.127 C 
HETATM    6  C   UNL     1     -45.346  57.918 -51.603  1.00  0.00     0.022 C 
HETATM    7  C   UNL     1     -44.990  59.191 -50.848  1.00  0.00     0.032 C 
ENDROOT
BRANCH   1   8
HETATM    8  C   UNL     1     -43.218  60.332 -52.248  1.00  0.00     0.014 A 
HETATM    9  C   UNL     1     -42.961  60.126 -53.596  1.00  0.00     0.034 A 
HETATM   10  C   UNL     1     -42.829  58.911 -54.432  1.00  0.00     0.070 C 
HETATM   11  N   UNL     1     -42.768  61.366 -54.138  1.00  0.00    -0.282 N 
HETATM   12  H   UNL     1     -42.534  61.597 -55.097  1.00  0.00     0.189 HD
HETATM   13  N   UNL     1     -42.919  62.370 -53.268  1.00  0.00    -0.179 NA
HETATM   14  C   UNL     1     -43.165  61.756 -52.108  1.00  0.00     0.061 A 
HETATM   15  C   UNL     1     -43.351  62.559 -50.873  1.00  0.00     0.073 C 
ENDBRANCH   1   8
BRANCH   3  16
HETATM   16  C   UNL     1     -41.198  56.331 -51.378  1.00  0.00     0.108 A 
HETATM   17  C   UNL     1     -41.007  55.434 -50.221  1.00  0.00     0.304 A 
HETATM   18  O   UNL     1     -41.208  55.781 -49.063  1.00  0.00    -0.259 OA
HETATM   19  O   UNL     1     -40.562  54.141 -50.498  1.00  0.00    -0.274 OA
HETATM   20  C   UNL     1     -40.452  53.665 -51.817  1.00  0.00     0.089 A 
HETATM   21  C   UNL     1     -40.715  54.501 -52.896  1.00  0.00    -0.001 A 
HETATM   22  C   UNL     1     -40.099  52.330 -51.992  1.00  0.00     0.038 A 
HETATM   23  C   UNL     1     -40.632  53.980 -54.189  1.00  0.00     0.014 A 
HETATM   24  C   UNL     1     -41.076  55.883 -52.638  1.00  0.00     0.037 A 
HETATM   25  C   UNL     1     -40.288  52.638 -54.381  1.00  0.00     0.001 A 
HETATM   26  C   UNL     1     -40.018  51.816 -53.285  1.00  0.00     0.003 A 
ENDBRANCH   3  16
TORSDOF 2
ENDMDL
MODEL 9
REMARK VINA RESULT:      -7.7      1.583      2.331
REMARK  2 active torsions:
REMARK  status: ('A' for Active; 'I' for Inactive)
REMARK    1  A    between atoms: C_8  and  C_9 
REMARK       I    between atoms: N_10  and  C_11 
REMARK    2  A    between atoms: C_11  and  C_12 
ROOT
HETATM    1  C   UNL     1     -43.506  59.375 -55.037  1.00  0.00     0.124 C 
HETATM    2  N   UNL     1     -43.030  58.076 -54.565  1.00  0.00    -0.339 N 
HETATM    3  C   UNL     1     -41.746  57.949 -54.080  1.00  0.00     0.260 C 
HETATM    4  O   UNL     1     -40.954  58.894 -54.061  1.00  0.00    -0.267 OA
HETATM    5  C   UNL     1     -44.145  57.163 -54.346  1.00  0.00     0.127 C 
HETATM    6  C   UNL     1     -45.308  57.783 -55.103  1.00  0.00     0.022 C 
HETATM    7  C   UNL     1     -45.036  59.274 -54.973  1.00  0.00     0.032 C 
ENDROOT
BRANCH   1   8
HETATM    8  C   UNL     1     -43.004  59.717 -56.413  1.00  0.00     0.014 A 
HETATM    9  C   UNL     1     -42.606  58.920 -57.477  1.00  0.00     0.034 A 
HETATM   10  C   UNL     1     -42.494  57.455 -57.664  1.00  0.00     0.070 C 
HETATM   11  N   UNL     1     -42.226  59.778 -58.471  1.00  0.00    -0.282 N 
HETATM   12  H   UNL     1     -41.854  59.546 -59.385  1.00  0.00     0.189 HD
HETATM   13  N   UNL     1     -42.381  61.070 -58.164  1.00  0.00    -0.179 NA
HETATM   14  C   UNL     1     -42.826  61.050 -56.905  1.00  0.00     0.061 A 
HETATM   15  C   UNL     1     -43.081  62.327 -56.193  1.00  0.00     0.073 C 
ENDBRANCH   1   8
BRANCH   3  16
HETATM   16  C   UNL     1     -41.331  56.662 -53.462  1.00  0.00     0.108 A 
HETATM   17  C   UNL     1     -41.446  56.384 -52.016  1.00  0.00     0.304 A 
HETATM   18  O   UNL     1     -41.891  57.194 -51.211  1.00  0.00    -0.259 OA
HETATM   19  O   UNL     1     -41.004  55.133 -51.582  1.00  0.00    -0.274 OA
HETATM   20  C   UNL     1     -40.617  54.131 -52.490  1.00  0.00     0.089 A 
HETATM   21  C   UNL     1     -40.591  54.385 -53.857  1.00  0.00    -0.001 A 
HETATM   22  C   UNL     1     -40.290  52.883 -51.969  1.00  0.00     0.038 A 
HETATM   23  C   UNL     1     -40.238  53.352 -54.728  1.00  0.00     0.014 A 
HETATM   24  C   UNL     1     -40.944  55.713 -54.328  1.00  0.00     0.037 A 
HETATM   25  C   UNL     1     -39.916  52.090 -54.221  1.00  0.00     0.001 A 
HETATM   26  C   UNL     1     -39.939  51.856 -52.844  1.00  0.00     0.003 A 
ENDBRANCH   3  16
TORSDOF 2
ENDMDL
MODEL 10
REMARK VINA RESULT:      -7.4      2.361      3.191
REMARK  2 active torsions:
REMARK  status: ('A' for Active; 'I' for Inactive)
REMARK    1  A    between atoms: C_8  and  C_9 
REMARK       I    between atoms: N_10  and  C_11 
REMARK    2  A    between atoms: C_11  and  C_12 
ROOT
HETATM    1  C   UNL     1     -43.271  58.705 -52.407  1.00  0.00     0.124 C 
HETATM    2  N   UNL     1     -43.003  57.309 -52.746  1.00  0.00    -0.339 N 
HETATM    3  C   UNL     1     -41.916  56.988 -53.529  1.00  0.00     0.260 C 
HETATM    4  O   UNL     1     -41.165  57.847 -53.996  1.00  0.00    -0.267 OA
HETATM    5  C   UNL     1     -43.756  56.411 -51.878  1.00  0.00     0.127 C 
HETATM    6  C   UNL     1     -44.837  57.284 -51.261  1.00  0.00     0.022 C 
HETATM    7  C   UNL     1     -44.153  58.639 -51.153  1.00  0.00     0.032 C 
ENDROOT
BRANCH   1   8
HETATM    8  C   UNL     1     -43.917  59.467 -53.532  1.00  0.00     0.014 A 
HETATM    9  C   UNL     1     -44.726  59.057 -54.581  1.00  0.00     0.034 A 
HETATM   10  C   UNL     1     -45.238  57.736 -55.014  1.00  0.00     0.070 C 
HETATM   11  N   UNL     1     -45.001  60.181 -55.309  1.00  0.00    -0.282 N 
HETATM   12  H   UNL     1     -45.545  60.253 -56.161  1.00  0.00     0.189 HD
HETATM   13  N   UNL     1     -44.475  61.300 -54.802  1.00  0.00    -0.179 NA
HETATM   14  C   UNL     1     -43.789  60.879 -53.736  1.00  0.00     0.061 A 
HETATM   15  C   UNL     1     -43.018  61.853 -52.922  1.00  0.00     0.073 C 
ENDBRANCH   1   8
BRANCH   3  16
HETATM   16  C   UNL     1     -41.571  55.556 -53.734  1.00  0.00     0.108 A 
HETATM   17  C   UNL     1     -41.719  54.865 -55.031  1.00  0.00     0.304 A 
HETATM   18  O   UNL     1     -42.143  55.417 -56.040  1.00  0.00    -0.259 OA
HETATM   19  O   UNL     1     -41.364  53.516 -55.065  1.00  0.00    -0.274 OA
HETATM   20  C   UNL     1     -40.749  52.886 -53.969  1.00  0.00     0.089 A 
HETATM   21  C   UNL     1     -40.542  53.576 -52.780  1.00  0.00    -0.001 A 
HETATM   22  C   UNL     1     -40.337  51.567 -54.132  1.00  0.00     0.038 A 
HETATM   23  C   UNL     1     -39.892  52.928 -51.727  1.00  0.00     0.014 A 
HETATM   24  C   UNL     1     -41.000  54.951 -52.681  1.00  0.00     0.037 A 
HETATM   25  C   UNL     1     -39.464  51.605 -51.880  1.00  0.00     0.001 A 
HETATM   26  C   UNL     1     -39.690  50.925 -53.079  1.00  0.00     0.003 A 
ENDBRANCH   3  16
TORSDOF 2
ENDMDL
