MODEL 1
REMARK VINA RESULT:      -8.7      0.000      0.000
REMARK  6 active torsions:
REMARK  status: ('A' for Active; 'I' for Inactive)
REMARK    1  A    between atoms: C_2  and  C_3 
REMARK    2  A    between atoms: C_4  and  O_5 
REMARK    3  A    between atoms: O_5  and  C_6 
REMARK    4  A    between atoms: C_6  and  C_7 
REMARK       I    between atoms: C_7  and  N_8 
REMARK    5  A    between atoms: N_8  and  C_9 
REMARK    6  A    between atoms: C_16  and  C_17 
REMARK       I    between atoms: C_17  and  N_18 
ROOT
HETATM    1  C   UNL     1     -41.807  54.961 -55.238  1.00  0.00     0.246 C 
HETATM    2  N   UNL     1     -41.712  56.036 -56.110  1.00  0.00    -0.325 N 
HETATM    3  O   UNL     1     -42.781  54.232 -55.076  1.00  0.00    -0.271 OA
HETATM    4  H   UNL     1     -40.802  56.478 -56.173  1.00  0.00     0.169 HD
ENDROOT
BRANCH   2   5
HETATM    5  C   UNL     1     -42.715  56.556 -56.953  1.00  0.00     0.035 A 
HETATM    6  C   UNL     1     -43.233  55.873 -58.061  1.00  0.00     0.046 A 
HETATM    7  C   UNL     1     -44.258  56.472 -58.830  1.00  0.00     0.030 A 
HETATM    8  C   UNL     1     -44.706  57.740 -58.478  1.00  0.00     0.063 A 
HETATM    9  C   UNL     1     -45.053  56.103 -59.958  1.00  0.00     0.156 A 
HETATM   10  N   UNL     1     -45.668  58.054 -59.395  1.00  0.00    -0.277 N 
HETATM   11  C   UNL     1     -44.207  58.450 -57.385  1.00  0.00     0.034 A 
HETATM   12  H   UNL     1     -46.206  58.912 -59.452  1.00  0.00     0.189 HD
HETATM   13  N   UNL     1     -45.913  57.090 -60.297  1.00  0.00    -0.168 NA
HETATM   14  C   UNL     1     -43.214  57.825 -56.623  1.00  0.00     0.032 A 
BRANCH   9  15
HETATM   15  C   UNL     1     -45.024  54.836 -60.702  1.00  0.00     0.270 C 
HETATM   16  N   UNL     1     -45.159  53.725 -59.914  1.00  0.00    -0.365 N 
HETATM   17  H   UNL     1     -45.241  53.850 -58.912  1.00  0.00     0.159 HD
HETATM   18  H   UNL     1     -45.107  52.809 -60.331  1.00  0.00     0.159 HD
HETATM   19  O   UNL     1     -44.878  54.739 -61.915  1.00  0.00    -0.266 OA
ENDBRANCH   9  15
ENDBRANCH   2   5
BRANCH   1  20
HETATM   20  C   UNL     1     -40.491  54.706 -54.495  1.00  0.00     0.278 C 
BRANCH  20  21
HETATM   21  O   UNL     1     -40.691  54.424 -53.120  1.00  0.00    -0.342 OA
BRANCH  21  22
HETATM   22  C   UNL     1     -40.384  53.180 -52.631  1.00  0.00     0.076 A 
HETATM   23  C   UNL     1     -40.485  53.003 -51.226  1.00  0.00    -0.017 A 
HETATM   24  C   UNL     1     -40.056  51.762 -50.700  1.00  0.00     0.011 A 
HETATM   25  C   UNL     1     -39.594  50.730 -51.518  1.00  0.00     0.001 A 
HETATM   26  C   UNL     1     -39.559  50.903 -52.891  1.00  0.00     0.003 A 
HETATM   27  C   UNL     1     -39.954  52.120 -53.444  1.00  0.00     0.037 A 
BRANCH  23  28
HETATM   28  C   UNL     1     -41.027  54.102 -50.277  1.00  0.00    -0.021 C 
HETATM   29  C   UNL     1     -40.835  53.727 -48.787  1.00  0.00     0.019 C 
HETATM   30  C   UNL     1     -42.523  54.334 -50.568  1.00  0.00     0.019 C 
HETATM   31  C   UNL     1     -40.312  55.470 -50.450  1.00  0.00     0.019 C 
ENDBRANCH  23  28
ENDBRANCH  21  22
ENDBRANCH  20  21
ENDBRANCH   1  20
TORSDOF 6
ENDMDL
MODEL 2
REMARK VINA RESULT:      -8.6      1.709      2.831
REMARK  6 active torsions:
REMARK  status: ('A' for Active; 'I' for Inactive)
REMARK    1  A    between atoms: C_2  and  C_3 
REMARK    2  A    between atoms: C_4  and  O_5 
REMARK    3  A    between atoms: O_5  and  C_6 
REMARK    4  A    between atoms: C_6  and  C_7 
REMARK       I    between atoms: C_7  and  N_8 
REMARK    5  A    between atoms: N_8  and  C_9 
REMARK    6  A    between atoms: C_16  and  C_17 
REMARK       I    between atoms: C_17  and  N_18 
ROOT
HETATM    1  C   UNL     1     -43.297  56.739 -53.921  1.00  0.00     0.246 C 
HETATM    2  N   UNL     1     -42.364  56.770 -54.948  1.00  0.00    -0.325 N 
HETATM    3  O   UNL     1     -44.506  56.924 -54.024  1.00  0.00    -0.271 OA
HETATM    4  H   UNL     1     -41.417  56.513 -54.695  1.00  0.00     0.169 HD
ENDROOT
BRANCH   2   5
HETATM    5  C   UNL     1     -42.585  57.069 -56.308  1.00  0.00     0.035 A 
HETATM    6  C   UNL     1     -43.102  56.153 -57.233  1.00  0.00     0.046 A 
HETATM    7  C   UNL     1     -43.310  56.559 -58.571  1.00  0.00     0.030 A 
HETATM    8  C   UNL     1     -42.969  57.855 -58.940  1.00  0.00     0.063 A 
HETATM    9  C   UNL     1     -43.841  55.969 -59.759  1.00  0.00     0.156 A 
HETATM   10  N   UNL     1     -43.264  57.945 -60.270  1.00  0.00    -0.277 N 
HETATM   11  C   UNL     1     -42.445  58.790 -58.045  1.00  0.00     0.034 A 
HETATM   12  H   UNL     1     -43.133  58.749 -60.875  1.00  0.00     0.189 HD
HETATM   13  N   UNL     1     -43.800  56.834 -60.798  1.00  0.00    -0.168 NA
HETATM   14  C   UNL     1     -42.275  58.373 -56.720  1.00  0.00     0.032 A 
BRANCH   9  15
HETATM   15  C   UNL     1     -44.395  54.617 -59.922  1.00  0.00     0.270 C 
HETATM   16  N   UNL     1     -44.931  54.381 -61.159  1.00  0.00    -0.365 N 
HETATM   17  H   UNL     1     -44.929  55.132 -61.839  1.00  0.00     0.159 HD
HETATM   18  H   UNL     1     -45.374  53.497 -61.350  1.00  0.00     0.159 HD
HETATM   19  O   UNL     1     -44.411  53.756 -59.049  1.00  0.00    -0.266 OA
ENDBRANCH   9  15
ENDBRANCH   2   5
BRANCH   1  20
HETATM   20  C   UNL     1     -42.661  56.369 -52.578  1.00  0.00     0.278 C 
BRANCH  20  21
HETATM   21  O   UNL     1     -41.366  55.811 -52.727  1.00  0.00    -0.342 OA
BRANCH  21  22
HETATM   22  C   UNL     1     -40.947  54.831 -51.865  1.00  0.00     0.076 A 
HETATM   23  C   UNL     1     -40.696  53.550 -52.426  1.00  0.00    -0.017 A 
HETATM   24  C   UNL     1     -40.382  52.503 -51.529  1.00  0.00     0.011 A 
HETATM   25  C   UNL     1     -40.273  52.713 -50.154  1.00  0.00     0.001 A 
HETATM   26  C   UNL     1     -40.463  53.981 -49.634  1.00  0.00     0.003 A 
HETATM   27  C   UNL     1     -40.795  55.034 -50.484  1.00  0.00     0.037 A 
BRANCH  23  28
HETATM   28  C   UNL     1     -40.767  53.272 -53.950  1.00  0.00    -0.021 C 
HETATM   29  C   UNL     1     -42.222  53.309 -54.478  1.00  0.00     0.019 C 
HETATM   30  C   UNL     1     -40.139  51.895 -54.245  1.00  0.00     0.019 C 
HETATM   31  C   UNL     1     -39.995  54.316 -54.801  1.00  0.00     0.019 C 
ENDBRANCH  23  28
ENDBRANCH  21  22
ENDBRANCH  20  21
ENDBRANCH   1  20
TORSDOF 6
ENDMDL
MODEL 3
REMARK VINA RESULT:      -8.3      2.208      3.443
REMARK  6 active torsions:
REMARK  status: ('A' for Active; 'I' for Inactive)
REMARK    1  A    between atoms: C_2  and  C_3 
REMARK    2  A    between atoms: C_4  and  O_5 
REMARK    3  A    between atoms: O_5  and  C_6 
REMARK    4  A    between atoms: C_6  and  C_7 
REMARK       I    between atoms: C_7  and  N_8 
REMARK    5  A    between atoms: N_8  and  C_9 
REMARK    6  A    between atoms: C_16  and  C_17 
REMARK       I    between atoms: C_17  and  N_18 
ROOT
HETATM    1  C   UNL     1     -41.436  58.481 -53.568  1.00  0.00     0.246 C 
HETATM    2  N   UNL     1     -42.496  58.004 -54.328  1.00  0.00    -0.325 N 
HETATM    3  O   UNL     1     -40.714  59.436 -53.835  1.00  0.00    -0.271 OA
HETATM    4  H   UNL     1     -43.036  57.254 -53.915  1.00  0.00     0.169 HD
ENDROOT
BRANCH   2   5
HETATM    5  C   UNL     1     -42.937  58.471 -55.583  1.00  0.00     0.035 A 
HETATM    6  C   UNL     1     -42.651  57.831 -56.796  1.00  0.00     0.046 A 
HETATM    7  C   UNL     1     -43.163  58.365 -58.001  1.00  0.00     0.030 A 
HETATM    8  C   UNL     1     -43.916  59.532 -57.951  1.00  0.00     0.063 A 
HETATM    9  C   UNL     1     -43.141  58.003 -59.383  1.00  0.00     0.156 A 
HETATM   10  N   UNL     1     -44.251  59.806 -59.246  1.00  0.00    -0.277 N 
HETATM   11  C   UNL     1     -44.213  60.198 -56.760  1.00  0.00     0.034 A 
HETATM   12  H   UNL     1     -44.792  60.593 -59.588  1.00  0.00     0.189 HD
HETATM   13  N   UNL     1     -43.812  58.904 -60.138  1.00  0.00    -0.168 NA
HETATM   14  C   UNL     1     -43.720  59.634 -55.579  1.00  0.00     0.032 A 
BRANCH   9  15
HETATM   15  C   UNL     1     -42.516  56.821 -59.993  1.00  0.00     0.270 C 
HETATM   16  N   UNL     1     -41.169  56.948 -60.199  1.00  0.00    -0.365 N 
HETATM   17  H   UNL     1     -40.722  57.821 -59.949  1.00  0.00     0.159 HD
HETATM   18  H   UNL     1     -40.662  56.204 -60.653  1.00  0.00     0.159 HD
HETATM   19  O   UNL     1     -43.114  55.801 -60.318  1.00  0.00    -0.266 OA
ENDBRANCH   9  15
ENDBRANCH   2   5
BRANCH   1  20
HETATM   20  C   UNL     1     -41.276  57.706 -52.257  1.00  0.00     0.278 C 
BRANCH  20  21
HETATM   21  O   UNL     1     -41.764  56.377 -52.350  1.00  0.00    -0.342 OA
BRANCH  21  22
HETATM   22  C   UNL     1     -41.152  55.379 -51.636  1.00  0.00     0.076 A 
HETATM   23  C   UNL     1     -40.868  54.176 -52.334  1.00  0.00    -0.017 A 
HETATM   24  C   UNL     1     -40.350  53.098 -51.579  1.00  0.00     0.011 A 
HETATM   25  C   UNL     1     -40.080  53.212 -50.214  1.00  0.00     0.001 A 
HETATM   26  C   UNL     1     -40.310  54.412 -49.565  1.00  0.00     0.003 A 
HETATM   27  C   UNL     1     -40.840  55.490 -50.272  1.00  0.00     0.037 A 
BRANCH  23  28
HETATM   28  C   UNL     1     -41.112  54.009 -53.856  1.00  0.00    -0.021 C 
HETATM   29  C   UNL     1     -42.595  54.244 -54.233  1.00  0.00     0.019 C 
HETATM   30  C   UNL     1     -40.682  52.594 -54.288  1.00  0.00     0.019 C 
HETATM   31  C   UNL     1     -40.305  55.015 -54.721  1.00  0.00     0.019 C 
ENDBRANCH  23  28
ENDBRANCH  21  22
ENDBRANCH  20  21
ENDBRANCH   1  20
TORSDOF 6
ENDMDL
MODEL 4
REMARK VINA RESULT:      -8.2      2.658      3.589
REMARK  6 active torsions:
REMARK  status: ('A' for Active; 'I' for Inactive)
REMARK    1  A    between atoms: C_2  and  C_3 
REMARK    2  A    between atoms: C_4  and  O_5 
REMARK    3  A    between atoms: O_5  and  C_6 
REMARK    4  A    between atoms: C_6  and  C_7 
REMARK       I    between atoms: C_7  and  N_8 
REMARK    5  A    between atoms: N_8  and  C_9 
REMARK    6  A    between atoms: C_16  and  C_17 
REMARK       I    between atoms: C_17  and  N_18 
ROOT
HETATM    1  C   UNL     1     -43.605  55.903 -54.689  1.00  0.00     0.246 C 
HETATM    2  N   UNL     1     -42.729  55.775 -55.758  1.00  0.00    -0.325 N 
HETATM    3  O   UNL     1     -44.548  56.684 -54.603  1.00  0.00    -0.271 OA
HETATM    4  H   UNL     1     -42.056  55.020 -55.692  1.00  0.00     0.169 HD
ENDROOT
BRANCH   2   5
HETATM    5  C   UNL     1     -42.693  56.538 -56.942  1.00  0.00     0.035 A 
HETATM    6  C   UNL     1     -42.298  57.882 -56.990  1.00  0.00     0.046 A 
HETATM    7  C   UNL     1     -42.272  58.554 -58.235  1.00  0.00     0.030 A 
HETATM    8  C   UNL     1     -42.668  57.867 -59.376  1.00  0.00     0.063 A 
HETATM    9  C   UNL     1     -41.901  59.853 -58.699  1.00  0.00     0.156 A 
HETATM   10  N   UNL     1     -42.553  58.764 -60.399  1.00  0.00    -0.277 N 
HETATM   11  C   UNL     1     -43.074  56.531 -59.361  1.00  0.00     0.034 A 
HETATM   12  H   UNL     1     -42.769  58.610 -61.379  1.00  0.00     0.189 HD
HETATM   13  N   UNL     1     -42.085  59.968 -60.035  1.00  0.00    -0.168 NA
HETATM   14  C   UNL     1     -43.064  55.880 -58.123  1.00  0.00     0.032 A 
BRANCH   9  15
HETATM   15  C   UNL     1     -41.364  60.971 -57.910  1.00  0.00     0.270 C 
HETATM   16  N   UNL     1     -42.173  61.362 -56.878  1.00  0.00    -0.365 N 
HETATM   17  H   UNL     1     -43.060  60.888 -56.752  1.00  0.00     0.159 HD
HETATM   18  H   UNL     1     -41.909  62.149 -56.308  1.00  0.00     0.159 HD
HETATM   19  O   UNL     1     -40.301  61.539 -58.133  1.00  0.00    -0.266 OA
ENDBRANCH   9  15
ENDBRANCH   2   5
BRANCH   1  20
HETATM   20  C   UNL     1     -43.318  54.880 -53.585  1.00  0.00     0.278 C 
BRANCH  20  21
HETATM   21  O   UNL     1     -42.008  55.007 -53.057  1.00  0.00    -0.342 OA
BRANCH  21  22
HETATM   22  C   UNL     1     -41.238  53.887 -52.877  1.00  0.00     0.076 A 
HETATM   23  C   UNL     1     -40.717  53.671 -51.574  1.00  0.00    -0.017 A 
HETATM   24  C   UNL     1     -39.824  52.588 -51.407  1.00  0.00     0.011 A 
HETATM   25  C   UNL     1     -39.495  51.730 -52.457  1.00  0.00     0.001 A 
HETATM   26  C   UNL     1     -40.060  51.922 -53.706  1.00  0.00     0.003 A 
HETATM   27  C   UNL     1     -40.928  52.993 -53.914  1.00  0.00     0.037 A 
BRANCH  23  28
HETATM   28  C   UNL     1     -41.079  54.571 -50.364  1.00  0.00    -0.021 C 
HETATM   29  C   UNL     1     -40.250  54.213 -49.107  1.00  0.00     0.019 C 
HETATM   30  C   UNL     1     -42.583  54.427 -50.056  1.00  0.00     0.019 C 
HETATM   31  C   UNL     1     -40.809  56.079 -50.618  1.00  0.00     0.019 C 
ENDBRANCH  23  28
ENDBRANCH  21  22
ENDBRANCH  20  21
ENDBRANCH   1  20
TORSDOF 6
ENDMDL
MODEL 5
REMARK VINA RESULT:      -8.0      2.194      3.669
REMARK  6 active torsions:
REMARK  status: ('A' for Active; 'I' for Inactive)
REMARK    1  A    between atoms: C_2  and  C_3 
REMARK    2  A    between atoms: C_4  and  O_5 
REMARK    3  A    between atoms: O_5  and  C_6 
REMARK    4  A    between atoms: C_6  and  C_7 
REMARK       I    between atoms: C_7  and  N_8 
REMARK    5  A    between atoms: N_8  and  C_9 
REMARK    6  A    between atoms: C_16  and  C_17 
REMARK       I    between atoms: C_17  and  N_18 
ROOT
HETATM    1  C   UNL     1     -42.100  57.747 -54.692  1.00  0.00     0.246 C 
HETATM    2  N   UNL     1     -42.863  56.790 -55.348  1.00  0.00    -0.325 N 
HETATM    3  O   UNL     1     -41.823  58.870 -55.100  1.00  0.00    -0.271 OA
HETATM    4  H   UNL     1     -43.059  55.944 -54.826  1.00  0.00     0.169 HD
ENDROOT
BRANCH   2   5
HETATM    5  C   UNL     1     -43.435  56.875 -56.633  1.00  0.00     0.035 A 
HETATM    6  C   UNL     1     -44.498  57.727 -56.958  1.00  0.00     0.046 A 
HETATM    7  C   UNL     1     -44.985  57.756 -58.285  1.00  0.00     0.030 A 
HETATM    8  C   UNL     1     -44.410  56.914 -59.229  1.00  0.00     0.063 A 
HETATM    9  C   UNL     1     -45.980  58.488 -59.005  1.00  0.00     0.156 A 
HETATM   10  N   UNL     1     -45.088  57.152 -60.391  1.00  0.00    -0.277 N 
HETATM   11  C   UNL     1     -43.355  56.048 -58.937  1.00  0.00     0.034 A 
HETATM   12  H   UNL     1     -44.942  56.705 -61.290  1.00  0.00     0.189 HD
HETATM   13  N   UNL     1     -46.034  58.100 -60.300  1.00  0.00    -0.168 NA
HETATM   14  C   UNL     1     -42.872  56.058 -57.624  1.00  0.00     0.032 A 
BRANCH   9  15
HETATM   15  C   UNL     1     -46.859  59.550 -58.496  1.00  0.00     0.270 C 
HETATM   16  N   UNL     1     -47.810  59.110 -57.615  1.00  0.00    -0.365 N 
HETATM   17  H   UNL     1     -47.853  58.120 -57.404  1.00  0.00     0.159 HD
HETATM   18  H   UNL     1     -48.486  59.759 -57.246  1.00  0.00     0.159 HD
HETATM   19  O   UNL     1     -46.791  60.731 -58.817  1.00  0.00    -0.266 OA
ENDBRANCH   9  15
ENDBRANCH   2   5
BRANCH   1  20
HETATM   20  C   UNL     1     -41.660  57.275 -53.302  1.00  0.00     0.278 C 
BRANCH  20  21
HETATM   21  O   UNL     1     -41.986  55.916 -53.062  1.00  0.00    -0.342 OA
BRANCH  21  22
HETATM   22  C   UNL     1     -41.271  55.200 -52.137  1.00  0.00     0.076 A 
HETATM   23  C   UNL     1     -40.727  53.962 -52.568  1.00  0.00    -0.017 A 
HETATM   24  C   UNL     1     -40.093  53.160 -51.591  1.00  0.00     0.011 A 
HETATM   25  C   UNL     1     -39.959  53.575 -50.265  1.00  0.00     0.001 A 
HETATM   26  C   UNL     1     -40.445  54.811 -49.878  1.00  0.00     0.003 A 
HETATM   27  C   UNL     1     -41.095  55.621 -50.809  1.00  0.00     0.037 A 
BRANCH  23  28
HETATM   28  C   UNL     1     -40.814  53.471 -54.036  1.00  0.00    -0.021 C 
HETATM   29  C   UNL     1     -42.276  53.424 -54.545  1.00  0.00     0.019 C 
HETATM   30  C   UNL     1     -40.179  52.070 -54.143  1.00  0.00     0.019 C 
HETATM   31  C   UNL     1     -40.061  54.389 -55.037  1.00  0.00     0.019 C 
ENDBRANCH  23  28
ENDBRANCH  21  22
ENDBRANCH  20  21
ENDBRANCH   1  20
TORSDOF 6
ENDMDL
MODEL 6
REMARK VINA RESULT:      -7.9      2.841      8.818
REMARK  6 active torsions:
REMARK  status: ('A' for Active; 'I' for Inactive)
REMARK    1  A    between atoms: C_2  and  C_3 
REMARK    2  A    between atoms: C_4  and  O_5 
REMARK    3  A    between atoms: O_5  and  C_6 
REMARK    4  A    between atoms: C_6  and  C_7 
REMARK       I    between atoms: C_7  and  N_8 
REMARK    5  A    between atoms: N_8  and  C_9 
REMARK    6  A    between atoms: C_16  and  C_17 
REMARK       I    between atoms: C_17  and  N_18 
ROOT
HETATM    1  C   UNL     1     -42.661  56.085 -55.802  1.00  0.00     0.246 C 
HETATM    2  N   UNL     1     -41.425  55.501 -55.560  1.00  0.00    -0.325 N 
HETATM    3  O   UNL     1     -43.652  56.030 -55.081  1.00  0.00    -0.271 OA
HETATM    4  H   UNL     1     -40.694  55.717 -56.227  1.00  0.00     0.169 HD
ENDROOT
BRANCH   2   5
HETATM    5  C   UNL     1     -41.055  54.682 -54.474  1.00  0.00     0.035 A 
HETATM    6  C   UNL     1     -40.782  53.313 -54.589  1.00  0.00     0.046 A 
HETATM    7  C   UNL     1     -40.392  52.584 -53.441  1.00  0.00     0.030 A 
HETATM    8  C   UNL     1     -40.318  53.244 -52.220  1.00  0.00     0.063 A 
HETATM    9  C   UNL     1     -39.997  51.241 -53.155  1.00  0.00     0.156 A 
HETATM   10  N   UNL     1     -39.939  52.294 -51.315  1.00  0.00    -0.277 N 
HETATM   11  C   UNL     1     -40.591  54.605 -52.070  1.00  0.00     0.034 A 
HETATM   12  H   UNL     1     -39.796  52.418 -50.318  1.00  0.00     0.189 HD
HETATM   13  N   UNL     1     -39.726  51.078 -51.840  1.00  0.00    -0.168 NA
HETATM   14  C   UNL     1     -40.946  55.311 -53.225  1.00  0.00     0.032 A 
BRANCH   9  15
HETATM   15  C   UNL     1     -39.856  50.124 -54.101  1.00  0.00     0.270 C 
HETATM   16  N   UNL     1     -41.019  49.788 -54.741  1.00  0.00    -0.365 N 
HETATM   17  H   UNL     1     -41.863  50.296 -54.508  1.00  0.00     0.159 HD
HETATM   18  H   UNL     1     -41.029  49.006 -55.376  1.00  0.00     0.159 HD
HETATM   19  O   UNL     1     -38.815  49.513 -54.314  1.00  0.00    -0.266 OA
ENDBRANCH   9  15
ENDBRANCH   2   5
BRANCH   1  20
HETATM   20  C   UNL     1     -42.664  56.906 -57.096  1.00  0.00     0.278 C 
BRANCH  20  21
HETATM   21  O   UNL     1     -43.974  57.155 -57.577  1.00  0.00    -0.342 OA
BRANCH  21  22
HETATM   22  C   UNL     1     -44.403  56.542 -58.726  1.00  0.00     0.076 A 
HETATM   23  C   UNL     1     -45.524  57.119 -59.378  1.00  0.00    -0.017 A 
HETATM   24  C   UNL     1     -46.049  56.426 -60.494  1.00  0.00     0.011 A 
HETATM   25  C   UNL     1     -45.472  55.249 -60.974  1.00  0.00     0.001 A 
HETATM   26  C   UNL     1     -44.344  54.735 -60.358  1.00  0.00     0.003 A 
HETATM   27  C   UNL     1     -43.811  55.379 -59.243  1.00  0.00     0.037 A 
BRANCH  23  28
HETATM   28  C   UNL     1     -46.180  58.444 -58.910  1.00  0.00    -0.021 C 
HETATM   29  C   UNL     1     -47.291  58.915 -59.880  1.00  0.00     0.019 C 
HETATM   30  C   UNL     1     -45.096  59.533 -58.789  1.00  0.00     0.019 C 
HETATM   31  C   UNL     1     -46.868  58.331 -57.522  1.00  0.00     0.019 C 
ENDBRANCH  23  28
ENDBRANCH  21  22
ENDBRANCH  20  21
ENDBRANCH   1  20
TORSDOF 6
ENDMDL
MODEL 7
REMARK VINA RESULT:      -7.9      2.839      9.172
REMARK  6 active torsions:
REMARK  status: ('A' for Active; 'I' for Inactive)
REMARK    1  A    between atoms: C_2  and  C_3 
REMARK    2  A    between atoms: C_4  and  O_5 
REMARK    3  A    between atoms: O_5  and  C_6 
REMARK    4  A    between atoms: C_6  and  C_7 
REMARK       I    between atoms: C_7  and  N_8 
REMARK    5  A    between atoms: N_8  and  C_9 
REMARK    6  A    between atoms: C_16  and  C_17 
REMARK       I    between atoms: C_17  and  N_18 
ROOT
HETATM    1  C   UNL     1     -42.594  56.303 -55.744  1.00  0.00     0.246 C 
HETATM    2  N   UNL     1     -41.396  55.618 -55.592  1.00  0.00    -0.325 N 
HETATM    3  O   UNL     1     -43.538  56.312 -54.960  1.00  0.00    -0.271 OA
HETATM    4  H   UNL     1     -40.694  55.790 -56.302  1.00  0.00     0.169 HD
ENDROOT
BRANCH   2   5
HETATM    5  C   UNL     1     -41.024  54.751 -54.546  1.00  0.00     0.035 A 
HETATM    6  C   UNL     1     -41.095  55.092 -53.189  1.00  0.00     0.046 A 
HETATM    7  C   UNL     1     -40.721  54.140 -52.212  1.00  0.00     0.030 A 
HETATM    8  C   UNL     1     -40.265  52.895 -52.629  1.00  0.00     0.063 A 
HETATM    9  C   UNL     1     -40.695  54.080 -50.785  1.00  0.00     0.156 A 
HETATM   10  N   UNL     1     -39.971  52.212 -51.484  1.00  0.00    -0.277 N 
HETATM   11  C   UNL     1     -40.175  52.526 -53.973  1.00  0.00     0.034 A 
HETATM   12  H   UNL     1     -39.602  51.270 -51.408  1.00  0.00     0.189 HD
HETATM   13  N   UNL     1     -40.225  52.887 -50.352  1.00  0.00    -0.168 NA
HETATM   14  C   UNL     1     -40.578  53.475 -54.919  1.00  0.00     0.032 A 
BRANCH   9  15
HETATM   15  C   UNL     1     -41.119  55.116 -49.833  1.00  0.00     0.270 C 
HETATM   16  N   UNL     1     -40.977  54.757 -48.520  1.00  0.00    -0.365 N 
HETATM   17  H   UNL     1     -40.627  53.830 -48.307  1.00  0.00     0.159 HD
HETATM   18  H   UNL     1     -41.283  55.386 -47.795  1.00  0.00     0.159 HD
HETATM   19  O   UNL     1     -41.578  56.209 -50.145  1.00  0.00    -0.266 OA
ENDBRANCH   9  15
ENDBRANCH   2   5
BRANCH   1  20
HETATM   20  C   UNL     1     -42.614  57.149 -57.021  1.00  0.00     0.278 C 
BRANCH  20  21
HETATM   21  O   UNL     1     -43.927  57.354 -57.515  1.00  0.00    -0.342 OA
BRANCH  21  22
HETATM   22  C   UNL     1     -44.340  56.689 -58.641  1.00  0.00     0.076 A 
HETATM   23  C   UNL     1     -45.501  57.188 -59.289  1.00  0.00    -0.017 A 
HETATM   24  C   UNL     1     -46.005  56.439 -60.377  1.00  0.00     0.011 A 
HETATM   25  C   UNL     1     -45.374  55.281 -60.836  1.00  0.00     0.001 A 
HETATM   26  C   UNL     1     -44.211  54.845 -60.227  1.00  0.00     0.003 A 
HETATM   27  C   UNL     1     -43.695  55.546 -59.138  1.00  0.00     0.037 A 
BRANCH  23  28
HETATM   28  C   UNL     1     -46.219  58.488 -58.844  1.00  0.00    -0.021 C 
HETATM   29  C   UNL     1     -45.230  59.669 -58.681  1.00  0.00     0.019 C 
HETATM   30  C   UNL     1     -46.951  58.234 -57.512  1.00  0.00     0.019 C 
HETATM   31  C   UNL     1     -47.283  58.982 -59.862  1.00  0.00     0.019 C 
ENDBRANCH  23  28
ENDBRANCH  21  22
ENDBRANCH  20  21
ENDBRANCH   1  20
TORSDOF 6
ENDMDL
MODEL 8
REMARK VINA RESULT:      -7.9      1.794      2.679
REMARK  6 active torsions:
REMARK  status: ('A' for Active; 'I' for Inactive)
REMARK    1  A    between atoms: C_2  and  C_3 
REMARK    2  A    between atoms: C_4  and  O_5 
REMARK    3  A    between atoms: O_5  and  C_6 
REMARK    4  A    between atoms: C_6  and  C_7 
REMARK       I    between atoms: C_7  and  N_8 
REMARK    5  A    between atoms: N_8  and  C_9 
REMARK    6  A    between atoms: C_16  and  C_17 
REMARK       I    between atoms: C_17  and  N_18 
ROOT
HETATM    1  C   UNL     1     -42.590  55.847 -55.634  1.00  0.00     0.246 C 
HETATM    2  N   UNL     1     -42.398  56.239 -56.952  1.00  0.00    -0.325 N 
HETATM    3  O   UNL     1     -43.637  55.452 -55.132  1.00  0.00    -0.271 OA
HETATM    4  H   UNL     1     -41.445  56.459 -57.215  1.00  0.00     0.169 HD
ENDROOT
BRANCH   2   5
HETATM    5  C   UNL     1     -43.361  56.321 -57.978  1.00  0.00     0.035 A 
HETATM    6  C   UNL     1     -44.387  57.275 -58.008  1.00  0.00     0.046 A 
HETATM    7  C   UNL     1     -45.290  57.290 -59.096  1.00  0.00     0.030 A 
HETATM    8  C   UNL     1     -45.151  56.335 -60.096  1.00  0.00     0.063 A 
HETATM    9  C   UNL     1     -46.396  58.095 -59.510  1.00  0.00     0.156 A 
HETATM   10  N   UNL     1     -46.156  56.589 -60.985  1.00  0.00    -0.277 N 
HETATM   11  C   UNL     1     -44.145  55.367 -60.093  1.00  0.00     0.034 A 
HETATM   12  H   UNL     1     -46.367  56.080 -61.837  1.00  0.00     0.189 HD
HETATM   13  N   UNL     1     -46.922  57.646 -60.673  1.00  0.00    -0.168 NA
HETATM   14  C   UNL     1     -43.247  55.391 -59.020  1.00  0.00     0.032 A 
BRANCH   9  15
HETATM   15  C   UNL     1     -46.947  59.280 -58.837  1.00  0.00     0.270 C 
HETATM   16  N   UNL     1     -46.821  60.437 -59.559  1.00  0.00    -0.365 N 
HETATM   17  H   UNL     1     -46.355  60.399 -60.457  1.00  0.00     0.159 HD
HETATM   18  H   UNL     1     -47.131  61.308 -59.160  1.00  0.00     0.159 HD
HETATM   19  O   UNL     1     -47.465  59.278 -57.727  1.00  0.00    -0.266 OA
ENDBRANCH   9  15
ENDBRANCH   2   5
BRANCH   1  20
HETATM   20  C   UNL     1     -41.288  55.891 -54.827  1.00  0.00     0.278 C 
BRANCH  20  21
HETATM   21  O   UNL     1     -41.439  55.350 -53.525  1.00  0.00    -0.342 OA
BRANCH  21  22
HETATM   22  C   UNL     1     -40.912  54.116 -53.239  1.00  0.00     0.076 A 
HETATM   23  C   UNL     1     -40.871  53.742 -51.870  1.00  0.00    -0.017 A 
HETATM   24  C   UNL     1     -40.220  52.527 -51.553  1.00  0.00     0.011 A 
HETATM   25  C   UNL     1     -39.678  51.698 -52.536  1.00  0.00     0.001 A 
HETATM   26  C   UNL     1     -39.781  52.053 -53.869  1.00  0.00     0.003 A 
HETATM   27  C   UNL     1     -40.397  53.254 -54.219  1.00  0.00     0.037 A 
BRANCH  23  28
HETATM   28  C   UNL     1     -41.490  54.607 -50.742  1.00  0.00    -0.021 C 
HETATM   29  C   UNL     1     -41.034  54.141 -49.338  1.00  0.00     0.019 C 
HETATM   30  C   UNL     1     -43.027  54.544 -50.839  1.00  0.00     0.019 C 
HETATM   31  C   UNL     1     -41.090  56.105 -50.827  1.00  0.00     0.019 C 
ENDBRANCH  23  28
ENDBRANCH  21  22
ENDBRANCH  20  21
ENDBRANCH   1  20
TORSDOF 6
ENDMDL
MODEL 9
REMARK VINA RESULT:      -7.7      5.860      7.966
REMARK  6 active torsions:
REMARK  status: ('A' for Active; 'I' for Inactive)
REMARK    1  A    between atoms: C_2  and  C_3 
REMARK    2  A    between atoms: C_4  and  O_5 
REMARK    3  A    between atoms: O_5  and  C_6 
REMARK    4  A    between atoms: C_6  and  C_7 
REMARK       I    between atoms: C_7  and  N_8 
REMARK    5  A    between atoms: N_8  and  C_9 
REMARK    6  A    between atoms: C_16  and  C_17 
REMARK       I    between atoms: C_17  and  N_18 
ROOT
HETATM    1  C   UNL     1     -41.148  59.014 -52.383  1.00  0.00     0.246 C 
HETATM    2  N   UNL     1     -42.476  59.416 -52.416  1.00  0.00    -0.325 N 
HETATM    3  O   UNL     1     -40.256  59.486 -51.686  1.00  0.00    -0.271 OA
HETATM    4  H   UNL     1     -43.094  58.859 -52.994  1.00  0.00     0.169 HD
ENDROOT
BRANCH   2   5
HETATM    5  C   UNL     1     -43.075  60.476 -51.706  1.00  0.00     0.035 A 
HETATM    6  C   UNL     1     -43.738  60.317 -50.482  1.00  0.00     0.046 A 
HETATM    7  C   UNL     1     -44.284  61.450 -49.835  1.00  0.00     0.030 A 
HETATM    8  C   UNL     1     -44.172  62.692 -50.449  1.00  0.00     0.063 A 
HETATM    9  C   UNL     1     -44.965  61.710 -48.606  1.00  0.00     0.156 A 
HETATM   10  N   UNL     1     -44.796  63.571 -49.611  1.00  0.00    -0.277 N 
HETATM   11  C   UNL     1     -43.525  62.883 -51.672  1.00  0.00     0.034 A 
HETATM   12  H   UNL     1     -44.916  64.569 -49.746  1.00  0.00     0.189 HD
HETATM   13  N   UNL     1     -45.278  63.021 -48.486  1.00  0.00    -0.168 NA
HETATM   14  C   UNL     1     -42.967  61.752 -52.277  1.00  0.00     0.032 A 
BRANCH   9  15
HETATM   15  C   UNL     1     -45.306  60.750 -47.547  1.00  0.00     0.270 C 
HETATM   16  N   UNL     1     -44.444  60.767 -46.483  1.00  0.00    -0.365 N 
HETATM   17  H   UNL     1     -43.652  61.398 -46.513  1.00  0.00     0.159 HD
HETATM   18  H   UNL     1     -44.572  60.113 -45.728  1.00  0.00     0.159 HD
HETATM   19  O   UNL     1     -46.256  59.976 -47.581  1.00  0.00    -0.266 OA
ENDBRANCH   9  15
ENDBRANCH   2   5
BRANCH   1  20
HETATM   20  C   UNL     1     -40.889  57.815 -53.301  1.00  0.00     0.278 C 
BRANCH  20  21
HETATM   21  O   UNL     1     -41.353  56.596 -52.745  1.00  0.00    -0.342 OA
BRANCH  21  22
HETATM   22  C   UNL     1     -41.013  55.407 -53.338  1.00  0.00     0.076 A 
HETATM   23  C   UNL     1     -40.927  54.271 -52.490  1.00  0.00    -0.017 A 
HETATM   24  C   UNL     1     -40.459  53.068 -53.068  1.00  0.00     0.011 A 
HETATM   25  C   UNL     1     -40.138  52.973 -54.423  1.00  0.00     0.001 A 
HETATM   26  C   UNL     1     -40.286  54.077 -55.244  1.00  0.00     0.003 A 
HETATM   27  C   UNL     1     -40.724  55.286 -54.706  1.00  0.00     0.037 A 
BRANCH  23  28
HETATM   28  C   UNL     1     -41.307  54.313 -50.987  1.00  0.00    -0.021 C 
HETATM   29  C   UNL     1     -40.760  53.087 -50.217  1.00  0.00     0.019 C 
HETATM   30  C   UNL     1     -42.842  54.372 -50.853  1.00  0.00     0.019 C 
HETATM   31  C   UNL     1     -40.738  55.552 -50.244  1.00  0.00     0.019 C 
ENDBRANCH  23  28
ENDBRANCH  21  22
ENDBRANCH  20  21
ENDBRANCH   1  20
TORSDOF 6
ENDMDL
MODEL 10
REMARK VINA RESULT:      -7.6      5.957      8.207
REMARK  6 active torsions:
REMARK  status: ('A' for Active; 'I' for Inactive)
REMARK    1  A    between atoms: C_2  and  C_3 
REMARK    2  A    between atoms: C_4  and  O_5 
REMARK    3  A    between atoms: O_5  and  C_6 
REMARK    4  A    between atoms: C_6  and  C_7 
REMARK       I    between atoms: C_7  and  N_8 
REMARK    5  A    between atoms: N_8  and  C_9 
REMARK    6  A    between atoms: C_16  and  C_17 
REMARK       I    between atoms: C_17  and  N_18 
ROOT
HETATM    1  C   UNL     1     -43.334  57.972 -52.409  1.00  0.00     0.246 C 
HETATM    2  N   UNL     1     -43.148  59.289 -52.010  1.00  0.00    -0.325 N 
HETATM    3  O   UNL     1     -44.378  57.331 -52.355  1.00  0.00    -0.271 OA
HETATM    4  H   UNL     1     -42.236  59.687 -52.203  1.00  0.00     0.169 HD
ENDROOT
BRANCH   2   5
HETATM    5  C   UNL     1     -44.090  60.152 -51.414  1.00  0.00     0.035 A 
HETATM    6  C   UNL     1     -44.490  60.062 -50.074  1.00  0.00     0.046 A 
HETATM    7  C   UNL     1     -45.424  60.994 -49.564  1.00  0.00     0.030 A 
HETATM    8  C   UNL     1     -45.942  61.960 -50.418  1.00  0.00     0.063 A 
HETATM    9  C   UNL     1     -46.028  61.262 -48.298  1.00  0.00     0.156 A 
HETATM   10  N   UNL     1     -46.812  62.688 -49.658  1.00  0.00    -0.277 N 
HETATM   11  C   UNL     1     -45.571  62.072 -51.759  1.00  0.00     0.034 A 
HETATM   12  H   UNL     1     -47.381  63.473 -49.958  1.00  0.00     0.189 HD
HETATM   13  N   UNL     1     -46.885  62.306 -48.374  1.00  0.00    -0.168 NA
HETATM   14  C   UNL     1     -44.624  61.158 -52.233  1.00  0.00     0.032 A 
BRANCH   9  15
HETATM   15  C   UNL     1     -45.797  60.564 -47.025  1.00  0.00     0.270 C 
HETATM   16  N   UNL     1     -44.531  60.721 -46.527  1.00  0.00    -0.365 N 
HETATM   17  H   UNL     1     -43.865  61.264 -47.062  1.00  0.00     0.159 HD
HETATM   18  H   UNL     1     -44.266  60.243 -45.681  1.00  0.00     0.159 HD
HETATM   19  O   UNL     1     -46.629  59.882 -46.438  1.00  0.00    -0.266 OA
ENDBRANCH   9  15
ENDBRANCH   2   5
BRANCH   1  20
HETATM   20  C   UNL     1     -42.062  57.372 -53.017  1.00  0.00     0.278 C 
BRANCH  20  21
HETATM   21  O   UNL     1     -42.093  55.955 -53.048  1.00  0.00    -0.342 OA
BRANCH  21  22
HETATM   22  C   UNL     1     -41.356  55.241 -52.139  1.00  0.00     0.076 A 
HETATM   23  C   UNL     1     -40.797  54.016 -52.591  1.00  0.00    -0.017 A 
HETATM   24  C   UNL     1     -40.140  53.213 -51.629  1.00  0.00     0.011 A 
HETATM   25  C   UNL     1     -39.997  53.616 -50.300  1.00  0.00     0.001 A 
HETATM   26  C   UNL     1     -40.498  54.840 -49.895  1.00  0.00     0.003 A 
HETATM   27  C   UNL     1     -41.171  55.649 -50.809  1.00  0.00     0.037 A 
BRANCH  23  28
HETATM   28  C   UNL     1     -40.894  53.539 -54.063  1.00  0.00    -0.021 C 
HETATM   29  C   UNL     1     -40.414  52.077 -54.231  1.00  0.00     0.019 C 
HETATM   30  C   UNL     1     -40.051  54.471 -54.955  1.00  0.00     0.019 C 
HETATM   31  C   UNL     1     -42.343  53.562 -54.621  1.00  0.00     0.019 C 
ENDBRANCH  23  28
ENDBRANCH  21  22
ENDBRANCH  20  21
ENDBRANCH   1  20
TORSDOF 6
ENDMDL
