MODEL 1
REMARK VINA RESULT:      -8.1      0.000      0.000
REMARK  3 active torsions:
REMARK  status: ('A' for Active; 'I' for Inactive)
REMARK    1  A    between atoms: C_3  and  N_4 
REMARK       I    between atoms: N_4  and  C_5 
REMARK    2  A    between atoms: C_5  and  C_6 
REMARK    3  A    between atoms: C_6  and  C_7 
ROOT
HETATM    1  C   UNL     1     -42.932  56.566 -56.581  1.00  0.00     0.286 C 
HETATM    2  N   UNL     1     -42.326  56.325 -57.963  1.00  0.00    -0.056 N 
HETATM    3  H   UNL     1     -41.639  57.072 -58.125  1.00  0.00     0.278 HD
HETATM    4  H   UNL     1     -41.737  55.464 -57.918  1.00  0.00     0.278 HD
HETATM    5  C   UNL     1     -43.250  56.278 -59.141  1.00  0.00     0.209 C 
HETATM    6  C   UNL     1     -44.213  57.484 -59.082  1.00  0.00     0.115 C 
HETATM    7  N   UNL     1     -44.866  57.599 -57.782  1.00  0.00    -0.353 N 
HETATM    8  C   UNL     1     -44.231  57.388 -56.586  1.00  0.00     0.249 C 
HETATM    9  O   UNL     1     -44.739  57.794 -55.545  1.00  0.00    -0.271 OA
HETATM   10  C   UNL     1     -43.973  54.933 -59.208  1.00  0.00     0.035 C 
HETATM   11  C   UNL     1     -44.954  54.908 -60.378  1.00  0.00     0.002 C 
HETATM   12  C   UNL     1     -45.948  56.063 -60.294  1.00  0.00     0.002 C 
HETATM   13  C   UNL     1     -45.242  57.417 -60.216  1.00  0.00     0.027 C 
HETATM   14  H   UNL     1     -45.680  58.207 -57.697  1.00  0.00     0.163 HD
ENDROOT
BRANCH   1  15
HETATM   15  C   UNL     1     -43.167  55.277 -55.777  1.00  0.00     0.146 C 
BRANCH  15  16
HETATM   16  C   UNL     1     -41.919  54.809 -55.064  1.00  0.00     0.224 C 
HETATM   17  N   UNL     1     -42.108  53.687 -54.292  1.00  0.00    -0.327 N 
HETATM   18  H   UNL     1     -43.059  53.363 -54.162  1.00  0.00     0.169 HD
HETATM   19  O   UNL     1     -40.868  55.420 -55.257  1.00  0.00    -0.273 OA
BRANCH  17  20
HETATM   20  C   UNL     1     -41.124  52.950 -53.586  1.00  0.00     0.040 A 
HETATM   21  C   UNL     1     -40.860  53.283 -52.238  1.00  0.00    -0.035 A 
HETATM   22  C   UNL     1     -41.551  54.417 -51.529  1.00  0.00     0.050 C 
HETATM   23  C   UNL     1     -39.903  52.543 -51.521  1.00  0.00     0.009 A 
HETATM   24  C   UNL     1     -39.216  51.489 -52.118  1.00  0.00     0.001 A 
HETATM   25  C   UNL     1     -39.477  51.161 -53.442  1.00  0.00     0.002 A 
HETATM   26  C   UNL     1     -40.424  51.887 -54.171  1.00  0.00     0.030 A 
ENDBRANCH  17  20
ENDBRANCH  15  16
ENDBRANCH   1  15
TORSDOF 3
ENDMDL
MODEL 2
REMARK VINA RESULT:      -7.6      3.791      4.588
REMARK  3 active torsions:
REMARK  status: ('A' for Active; 'I' for Inactive)
REMARK    1  A    between atoms: C_3  and  N_4 
REMARK       I    between atoms: N_4  and  C_5 
REMARK    2  A    between atoms: C_5  and  C_6 
REMARK    3  A    between atoms: C_6  and  C_7 
ROOT
HETATM    1  C   UNL     1     -41.156  56.802 -52.167  1.00  0.00     0.286 C 
HETATM    2  N   UNL     1     -41.437  56.514 -53.641  1.00  0.00    -0.056 N 
HETATM    3  H   UNL     1     -40.576  56.730 -54.159  1.00  0.00     0.278 HD
HETATM    4  H   UNL     1     -41.535  55.481 -53.760  1.00  0.00     0.278 HD
HETATM    5  C   UNL     1     -42.572  57.237 -54.298  1.00  0.00     0.209 C 
HETATM    6  C   UNL     1     -42.481  58.741 -53.962  1.00  0.00     0.115 C 
HETATM    7  N   UNL     1     -42.341  58.974 -52.528  1.00  0.00    -0.353 N 
HETATM    8  C   UNL     1     -41.555  58.213 -51.703  1.00  0.00     0.249 C 
HETATM    9  O   UNL     1     -41.243  58.638 -50.594  1.00  0.00    -0.271 OA
HETATM   10  C   UNL     1     -43.911  56.613 -53.907  1.00  0.00     0.035 C 
HETATM   11  C   UNL     1     -45.068  57.385 -54.535  1.00  0.00     0.002 C 
HETATM   12  C   UNL     1     -45.019  58.864 -54.158  1.00  0.00     0.002 C 
HETATM   13  C   UNL     1     -43.682  59.503 -54.533  1.00  0.00     0.027 C 
HETATM   14  H   UNL     1     -42.500  59.914 -52.169  1.00  0.00     0.163 HD
ENDROOT
BRANCH   1  15
HETATM   15  C   UNL     1     -41.777  55.774 -51.207  1.00  0.00     0.146 C 
BRANCH  15  16
HETATM   16  C   UNL     1     -41.765  54.375 -51.778  1.00  0.00     0.224 C 
HETATM   17  N   UNL     1     -40.516  53.800 -51.811  1.00  0.00    -0.327 N 
HETATM   18  H   UNL     1     -39.723  54.389 -51.588  1.00  0.00     0.169 HD
HETATM   19  O   UNL     1     -42.835  53.868 -52.116  1.00  0.00    -0.273 OA
BRANCH  17  20
HETATM   20  C   UNL     1     -40.187  52.474 -52.192  1.00  0.00     0.040 A 
HETATM   21  C   UNL     1     -40.111  52.160 -53.568  1.00  0.00    -0.035 A 
HETATM   22  C   UNL     1     -40.406  53.164 -54.651  1.00  0.00     0.050 C 
HETATM   23  C   UNL     1     -39.761  50.854 -53.958  1.00  0.00     0.009 A 
HETATM   24  C   UNL     1     -39.488  49.872 -53.009  1.00  0.00     0.001 A 
HETATM   25  C   UNL     1     -39.561  50.182 -51.657  1.00  0.00     0.002 A 
HETATM   26  C   UNL     1     -39.909  51.474 -51.252  1.00  0.00     0.030 A 
ENDBRANCH  17  20
ENDBRANCH  15  16
ENDBRANCH   1  15
TORSDOF 3
ENDMDL
MODEL 3
REMARK VINA RESULT:      -7.4      1.759      7.399
REMARK  3 active torsions:
REMARK  status: ('A' for Active; 'I' for Inactive)
REMARK    1  A    between atoms: C_3  and  N_4 
REMARK       I    between atoms: N_4  and  C_5 
REMARK    2  A    between atoms: C_5  and  C_6 
REMARK    3  A    between atoms: C_6  and  C_7 
ROOT
HETATM    1  C   UNL     1     -42.412  56.115 -53.153  1.00  0.00     0.286 C 
HETATM    2  N   UNL     1     -42.973  54.702 -53.306  1.00  0.00    -0.056 N 
HETATM    3  H   UNL     1     -43.862  54.673 -52.790  1.00  0.00     0.278 HD
HETATM    4  H   UNL     1     -43.270  54.573 -54.299  1.00  0.00     0.278 HD
HETATM    5  C   UNL     1     -42.129  53.553 -52.848  1.00  0.00     0.209 C 
HETATM    6  C   UNL     1     -41.578  53.857 -51.438  1.00  0.00     0.115 C 
HETATM    7  N   UNL     1     -40.937  55.166 -51.371  1.00  0.00    -0.353 N 
HETATM    8  C   UNL     1     -41.426  56.289 -51.986  1.00  0.00     0.249 C 
HETATM    9  O   UNL     1     -41.023  57.397 -51.644  1.00  0.00    -0.271 OA
HETATM   10  C   UNL     1     -41.035  53.244 -53.868  1.00  0.00     0.035 C 
HETATM   11  C   UNL     1     -40.143  52.108 -53.373  1.00  0.00     0.002 C 
HETATM   12  C   UNL     1     -39.545  52.427 -52.005  1.00  0.00     0.002 C 
HETATM   13  C   UNL     1     -40.626  52.749 -50.972  1.00  0.00     0.027 C 
HETATM   14  H   UNL     1     -40.344  55.379 -50.570  1.00  0.00     0.163 HD
ENDROOT
BRANCH   1  15
HETATM   15  C   UNL     1     -41.762  56.664 -54.433  1.00  0.00     0.146 C 
BRANCH  15  16
HETATM   16  C   UNL     1     -42.735  56.732 -55.587  1.00  0.00     0.224 C 
HETATM   17  N   UNL     1     -42.170  56.442 -56.807  1.00  0.00    -0.327 N 
HETATM   18  H   UNL     1     -41.163  56.346 -56.846  1.00  0.00     0.169 HD
HETATM   19  O   UNL     1     -43.915  56.991 -55.347  1.00  0.00    -0.273 OA
BRANCH  17  20
HETATM   20  C   UNL     1     -42.831  56.324 -58.057  1.00  0.00     0.040 A 
HETATM   21  C   UNL     1     -42.737  57.389 -58.981  1.00  0.00    -0.035 A 
HETATM   22  C   UNL     1     -41.998  58.666 -58.679  1.00  0.00     0.050 C 
HETATM   23  C   UNL     1     -43.367  57.272 -60.233  1.00  0.00     0.009 A 
HETATM   24  C   UNL     1     -44.078  56.124 -60.573  1.00  0.00     0.001 A 
HETATM   25  C   UNL     1     -44.169  55.078 -59.665  1.00  0.00     0.002 A 
HETATM   26  C   UNL     1     -43.550  55.177 -58.416  1.00  0.00     0.030 A 
ENDBRANCH  17  20
ENDBRANCH  15  16
ENDBRANCH   1  15
TORSDOF 3
ENDMDL
MODEL 4
REMARK VINA RESULT:      -7.4      4.537      6.082
REMARK  3 active torsions:
REMARK  status: ('A' for Active; 'I' for Inactive)
REMARK    1  A    between atoms: C_3  and  N_4 
REMARK       I    between atoms: N_4  and  C_5 
REMARK    2  A    between atoms: C_5  and  C_6 
REMARK    3  A    between atoms: C_6  and  C_7 
ROOT
HETATM    1  C   UNL     1     -41.852  58.293 -52.492  1.00  0.00     0.286 C 
HETATM    2  N   UNL     1     -42.596  59.471 -53.119  1.00  0.00    -0.056 N 
HETATM    3  H   UNL     1     -41.885  60.127 -53.464  1.00  0.00     0.278 HD
HETATM    4  H   UNL     1     -43.060  59.139 -53.993  1.00  0.00     0.278 HD
HETATM    5  C   UNL     1     -43.558  60.235 -52.262  1.00  0.00     0.209 C 
HETATM    6  C   UNL     1     -42.886  60.568 -50.912  1.00  0.00     0.115 C 
HETATM    7  N   UNL     1     -42.299  59.387 -50.288  1.00  0.00    -0.353 N 
HETATM    8  C   UNL     1     -41.620  58.416 -50.977  1.00  0.00     0.249 C 
HETATM    9  O   UNL     1     -40.900  57.628 -50.371  1.00  0.00    -0.271 OA
HETATM   10  C   UNL     1     -44.872  59.470 -52.108  1.00  0.00     0.035 C 
HETATM   11  C   UNL     1     -45.830  60.225 -51.190  1.00  0.00     0.002 C 
HETATM   12  C   UNL     1     -45.194  60.505 -49.831  1.00  0.00     0.002 C 
HETATM   13  C   UNL     1     -43.873  61.262 -49.966  1.00  0.00     0.027 C 
HETATM   14  H   UNL     1     -42.034  59.435 -49.305  1.00  0.00     0.163 HD
ENDROOT
BRANCH   1  15
HETATM   15  C   UNL     1     -42.499  56.929 -52.783  1.00  0.00     0.146 C 
BRANCH  15  16
HETATM   16  C   UNL     1     -41.483  55.889 -53.196  1.00  0.00     0.224 C 
HETATM   17  N   UNL     1     -41.688  54.656 -52.621  1.00  0.00    -0.327 N 
HETATM   18  H   UNL     1     -42.389  54.589 -51.894  1.00  0.00     0.169 HD
HETATM   19  O   UNL     1     -40.616  56.205 -54.011  1.00  0.00    -0.273 OA
BRANCH  17  20
HETATM   20  C   UNL     1     -40.976  53.457 -52.879  1.00  0.00     0.040 A 
HETATM   21  C   UNL     1     -40.137  52.932 -51.870  1.00  0.00    -0.035 A 
HETATM   22  C   UNL     1     -39.932  53.615 -50.544  1.00  0.00     0.050 C 
HETATM   23  C   UNL     1     -39.446  51.729 -52.106  1.00  0.00     0.009 A 
HETATM   24  C   UNL     1     -39.579  51.051 -53.315  1.00  0.00     0.001 A 
HETATM   25  C   UNL     1     -40.405  51.567 -54.305  1.00  0.00     0.002 A 
HETATM   26  C   UNL     1     -41.098  52.761 -54.089  1.00  0.00     0.030 A 
ENDBRANCH  17  20
ENDBRANCH  15  16
ENDBRANCH   1  15
TORSDOF 3
ENDMDL
MODEL 5
REMARK VINA RESULT:      -7.3     14.631     16.099
REMARK  3 active torsions:
REMARK  status: ('A' for Active; 'I' for Inactive)
REMARK    1  A    between atoms: C_3  and  N_4 
REMARK       I    between atoms: N_4  and  C_5 
REMARK    2  A    between atoms: C_5  and  C_6 
REMARK    3  A    between atoms: C_6  and  C_7 
ROOT
HETATM    1  C   UNL     1     -36.417  41.421 -58.505  1.00  0.00     0.286 C 
HETATM    2  N   UNL     1     -36.032  39.945 -58.421  1.00  0.00    -0.056 N 
HETATM    3  H   UNL     1     -35.052  39.872 -58.723  1.00  0.00     0.278 HD
HETATM    4  H   UNL     1     -35.992  39.673 -57.415  1.00  0.00     0.278 HD
HETATM    5  C   UNL     1     -36.838  38.959 -59.210  1.00  0.00     0.209 C 
HETATM    6  C   UNL     1     -37.010  39.479 -60.653  1.00  0.00     0.115 C 
HETATM    7  N   UNL     1     -37.501  40.853 -60.685  1.00  0.00    -0.353 N 
HETATM    8  C   UNL     1     -37.078  41.836 -59.830  1.00  0.00     0.249 C 
HETATM    9  O   UNL     1     -37.291  43.015 -60.101  1.00  0.00    -0.271 OA
HETATM   10  C   UNL     1     -38.167  38.666 -58.513  1.00  0.00     0.035 C 
HETATM   11  C   UNL     1     -39.010  37.703 -59.346  1.00  0.00     0.002 C 
HETATM   12  C   UNL     1     -39.235  38.239 -60.757  1.00  0.00     0.002 C 
HETATM   13  C   UNL     1     -37.915  38.547 -61.466  1.00  0.00     0.027 C 
HETATM   14  H   UNL     1     -37.866  41.220 -61.563  1.00  0.00     0.163 HD
ENDROOT
BRANCH   1  15
HETATM   15  C   UNL     1     -37.303  41.895 -57.342  1.00  0.00     0.146 C 
BRANCH  15  16
HETATM   16  C   UNL     1     -36.894  41.283 -56.022  1.00  0.00     0.224 C 
HETATM   17  N   UNL     1     -35.781  41.865 -55.462  1.00  0.00    -0.327 N 
HETATM   18  H   UNL     1     -35.270  42.535 -56.023  1.00  0.00     0.169 HD
HETATM   19  O   UNL     1     -37.586  40.378 -55.555  1.00  0.00    -0.273 OA
BRANCH  17  20
HETATM   20  C   UNL     1     -35.210  41.588 -54.193  1.00  0.00     0.040 A 
HETATM   21  C   UNL     1     -34.107  40.708 -54.120  1.00  0.00    -0.035 A 
HETATM   22  C   UNL     1     -33.536  40.016 -55.328  1.00  0.00     0.050 C 
HETATM   23  C   UNL     1     -33.518  40.446 -52.870  1.00  0.00     0.009 A 
HETATM   24  C   UNL     1     -34.003  41.042 -51.709  1.00  0.00     0.001 A 
HETATM   25  C   UNL     1     -35.087  41.908 -51.782  1.00  0.00     0.002 A 
HETATM   26  C   UNL     1     -35.686  42.179 -53.015  1.00  0.00     0.030 A 
ENDBRANCH  17  20
ENDBRANCH  15  16
ENDBRANCH   1  15
TORSDOF 3
ENDMDL
MODEL 6
REMARK VINA RESULT:      -7.3     15.126     16.696
REMARK  3 active torsions:
REMARK  status: ('A' for Active; 'I' for Inactive)
REMARK    1  A    between atoms: C_3  and  N_4 
REMARK       I    between atoms: N_4  and  C_5 
REMARK    2  A    between atoms: C_5  and  C_6 
REMARK    3  A    between atoms: C_6  and  C_7 
ROOT
HETATM    1  C   UNL     1     -35.656  40.515 -55.732  1.00  0.00     0.286 C 
HETATM    2  N   UNL     1     -36.812  41.475 -56.009  1.00  0.00    -0.056 N 
HETATM    3  H   UNL     1     -37.520  41.311 -55.282  1.00  0.00     0.278 HD
HETATM    4  H   UNL     1     -36.486  42.447 -55.809  1.00  0.00     0.278 HD
HETATM    5  C   UNL     1     -37.487  41.403 -57.343  1.00  0.00     0.209 C 
HETATM    6  C   UNL     1     -37.808  39.928 -57.673  1.00  0.00     0.115 C 
HETATM    7  N   UNL     1     -36.641  39.067 -57.518  1.00  0.00    -0.353 N 
HETATM    8  C   UNL     1     -35.736  39.182 -56.494  1.00  0.00     0.249 C 
HETATM    9  O   UNL     1     -34.969  38.255 -56.250  1.00  0.00    -0.271 OA
HETATM   10  C   UNL     1     -36.643  42.089 -58.416  1.00  0.00     0.035 C 
HETATM   11  C   UNL     1     -37.307  41.965 -59.785  1.00  0.00     0.002 C 
HETATM   12  C   UNL     1     -37.573  40.506 -60.144  1.00  0.00     0.002 C 
HETATM   13  C   UNL     1     -38.409  39.800 -59.076  1.00  0.00     0.027 C 
HETATM   14  H   UNL     1     -36.668  38.131 -57.920  1.00  0.00     0.163 HD
ENDROOT
BRANCH   1  15
HETATM   15  C   UNL     1     -34.269  41.135 -55.967  1.00  0.00     0.146 C 
BRANCH  15  16
HETATM   16  C   UNL     1     -33.306  40.828 -54.843  1.00  0.00     0.224 C 
HETATM   17  N   UNL     1     -33.918  40.628 -53.628  1.00  0.00    -0.327 N 
HETATM   18  H   UNL     1     -34.908  40.830 -53.562  1.00  0.00     0.169 HD
HETATM   19  O   UNL     1     -32.106  40.746 -55.104  1.00  0.00    -0.273 OA
BRANCH  17  20
HETATM   20  C   UNL     1     -33.308  40.229 -52.411  1.00  0.00     0.040 A 
HETATM   21  C   UNL     1     -33.599  40.953 -51.233  1.00  0.00    -0.035 A 
HETATM   22  C   UNL     1     -34.500  42.159 -51.220  1.00  0.00     0.050 C 
HETATM   23  C   UNL     1     -33.019  40.551 -50.016  1.00  0.00     0.009 A 
HETATM   24  C   UNL     1     -32.166  39.451 -49.958  1.00  0.00     0.001 A 
HETATM   25  C   UNL     1     -31.881  38.740 -51.116  1.00  0.00     0.002 A 
HETATM   26  C   UNL     1     -32.448  39.126 -52.333  1.00  0.00     0.030 A 
ENDBRANCH  17  20
ENDBRANCH  15  16
ENDBRANCH   1  15
TORSDOF 3
ENDMDL
MODEL 7
REMARK VINA RESULT:      -7.2      4.227      5.583
REMARK  3 active torsions:
REMARK  status: ('A' for Active; 'I' for Inactive)
REMARK    1  A    between atoms: C_3  and  N_4 
REMARK       I    between atoms: N_4  and  C_5 
REMARK    2  A    between atoms: C_5  and  C_6 
REMARK    3  A    between atoms: C_6  and  C_7 
ROOT
HETATM    1  C   UNL     1     -44.081  56.946 -51.904  1.00  0.00     0.286 C 
HETATM    2  N   UNL     1     -44.405  57.883 -50.742  1.00  0.00    -0.056 N 
HETATM    3  H   UNL     1     -45.307  57.581 -50.354  1.00  0.00     0.278 HD
HETATM    4  H   UNL     1     -43.734  57.689 -49.967  1.00  0.00     0.278 HD
HETATM    5  C   UNL     1     -44.486  59.353 -51.021  1.00  0.00     0.209 C 
HETATM    6  C   UNL     1     -45.358  59.586 -52.274  1.00  0.00     0.115 C 
HETATM    7  N   UNL     1     -44.931  58.761 -53.399  1.00  0.00    -0.353 N 
HETATM    8  C   UNL     1     -44.536  57.454 -53.282  1.00  0.00     0.249 C 
HETATM    9  O   UNL     1     -44.489  56.739 -54.279  1.00  0.00    -0.271 OA
HETATM   10  C   UNL     1     -43.088  59.960 -51.139  1.00  0.00     0.035 C 
HETATM   11  C   UNL     1     -43.174  61.446 -51.478  1.00  0.00     0.002 C 
HETATM   12  C   UNL     1     -43.985  61.681 -52.749  1.00  0.00     0.002 C 
HETATM   13  C   UNL     1     -45.384  61.071 -52.653  1.00  0.00     0.027 C 
HETATM   14  H   UNL     1     -45.276  58.990 -54.331  1.00  0.00     0.163 HD
ENDROOT
BRANCH   1  15
HETATM   15  C   UNL     1     -42.596  56.556 -51.988  1.00  0.00     0.146 C 
BRANCH  15  16
HETATM   16  C   UNL     1     -42.403  55.073 -52.202  1.00  0.00     0.224 C 
HETATM   17  N   UNL     1     -41.165  54.741 -52.701  1.00  0.00    -0.327 N 
HETATM   18  H   UNL     1     -40.562  55.498 -53.001  1.00  0.00     0.169 HD
HETATM   19  O   UNL     1     -43.316  54.310 -51.887  1.00  0.00    -0.273 OA
BRANCH  17  20
HETATM   20  C   UNL     1     -40.642  53.440 -52.915  1.00  0.00     0.040 A 
HETATM   21  C   UNL     1     -39.994  52.782 -51.846  1.00  0.00    -0.035 A 
HETATM   22  C   UNL     1     -39.796  53.420 -50.497  1.00  0.00     0.050 C 
HETATM   23  C   UNL     1     -39.493  51.482 -52.040  1.00  0.00     0.009 A 
HETATM   24  C   UNL     1     -39.631  50.837 -53.267  1.00  0.00     0.001 A 
HETATM   25  C   UNL     1     -40.269  51.484 -54.316  1.00  0.00     0.002 A 
HETATM   26  C   UNL     1     -40.771  52.776 -54.142  1.00  0.00     0.030 A 
ENDBRANCH  17  20
ENDBRANCH  15  16
ENDBRANCH   1  15
TORSDOF 3
ENDMDL
MODEL 8
REMARK VINA RESULT:      -7.1      1.708      7.632
REMARK  3 active torsions:
REMARK  status: ('A' for Active; 'I' for Inactive)
REMARK    1  A    between atoms: C_3  and  N_4 
REMARK       I    between atoms: N_4  and  C_5 
REMARK    2  A    between atoms: C_5  and  C_6 
REMARK    3  A    between atoms: C_6  and  C_7 
ROOT
HETATM    1  C   UNL     1     -43.448  56.122 -55.602  1.00  0.00     0.286 C 
HETATM    2  N   UNL     1     -43.469  54.594 -55.615  1.00  0.00    -0.056 N 
HETATM    3  H   UNL     1     -44.446  54.305 -55.481  1.00  0.00     0.278 HD
HETATM    4  H   UNL     1     -43.256  54.271 -56.585  1.00  0.00     0.278 HD
HETATM    5  C   UNL     1     -42.626  53.867 -54.614  1.00  0.00     0.209 C 
HETATM    6  C   UNL     1     -42.851  54.482 -53.215  1.00  0.00     0.115 C 
HETATM    7  N   UNL     1     -42.695  55.933 -53.225  1.00  0.00    -0.353 N 
HETATM    8  C   UNL     1     -43.159  56.745 -54.227  1.00  0.00     0.249 C 
HETATM    9  O   UNL     1     -43.270  57.953 -54.032  1.00  0.00    -0.271 OA
HETATM   10  C   UNL     1     -41.159  53.863 -55.041  1.00  0.00     0.035 C 
HETATM   11  C   UNL     1     -40.294  53.170 -53.992  1.00  0.00     0.002 C 
HETATM   12  C   UNL     1     -40.465  53.812 -52.617  1.00  0.00     0.002 C 
HETATM   13  C   UNL     1     -41.930  53.833 -52.177  1.00  0.00     0.027 C 
HETATM   14  H   UNL     1     -42.594  56.419 -52.335  1.00  0.00     0.163 HD
ENDROOT
BRANCH   1  15
HETATM   15  C   UNL     1     -42.487  56.735 -56.634  1.00  0.00     0.146 C 
BRANCH  15  16
HETATM   16  C   UNL     1     -43.176  57.055 -57.940  1.00  0.00     0.224 C 
HETATM   17  N   UNL     1     -44.509  56.718 -57.961  1.00  0.00    -0.327 N 
HETATM   18  H   UNL     1     -44.869  56.180 -57.182  1.00  0.00     0.169 HD
HETATM   19  O   UNL     1     -42.526  57.606 -58.828  1.00  0.00    -0.273 OA
BRANCH  17  20
HETATM   20  C   UNL     1     -45.448  56.977 -58.993  1.00  0.00     0.040 A 
HETATM   21  C   UNL     1     -45.699  55.973 -59.955  1.00  0.00    -0.035 A 
HETATM   22  C   UNL     1     -44.980  54.650 -59.957  1.00  0.00     0.050 C 
HETATM   23  C   UNL     1     -46.645  56.211 -60.968  1.00  0.00     0.009 A 
HETATM   24  C   UNL     1     -47.338  57.417 -61.033  1.00  0.00     0.001 A 
HETATM   25  C   UNL     1     -47.092  58.403 -60.086  1.00  0.00     0.002 A 
HETATM   26  C   UNL     1     -46.153  58.185 -59.074  1.00  0.00     0.030 A 
ENDBRANCH  17  20
ENDBRANCH  15  16
ENDBRANCH   1  15
TORSDOF 3
ENDMDL
MODEL 9
REMARK VINA RESULT:      -7.1      3.448      4.600
REMARK  3 active torsions:
REMARK  status: ('A' for Active; 'I' for Inactive)
REMARK    1  A    between atoms: C_3  and  N_4 
REMARK       I    between atoms: N_4  and  C_5 
REMARK    2  A    between atoms: C_5  and  C_6 
REMARK    3  A    between atoms: C_6  and  C_7 
ROOT
HETATM    1  C   UNL     1     -43.849  58.049 -51.203  1.00  0.00     0.286 C 
HETATM    2  N   UNL     1     -42.807  58.387 -52.268  1.00  0.00    -0.056 N 
HETATM    3  H   UNL     1     -42.259  59.181 -51.913  1.00  0.00     0.278 HD
HETATM    4  H   UNL     1     -42.109  57.611 -52.302  1.00  0.00     0.278 HD
HETATM    5  C   UNL     1     -43.289  58.731 -53.644  1.00  0.00     0.209 C 
HETATM    6  C   UNL     1     -44.433  59.763 -53.540  1.00  0.00     0.115 C 
HETATM    7  N   UNL     1     -45.470  59.338 -52.605  1.00  0.00    -0.353 N 
HETATM    8  C   UNL     1     -45.213  58.730 -51.404  1.00  0.00     0.249 C 
HETATM    9  O   UNL     1     -46.089  58.680 -50.545  1.00  0.00    -0.271 OA
HETATM   10  C   UNL     1     -43.683  57.469 -54.411  1.00  0.00     0.035 C 
HETATM   11  C   UNL     1     -44.226  57.827 -55.792  1.00  0.00     0.002 C 
HETATM   12  C   UNL     1     -45.397  58.801 -55.695  1.00  0.00     0.002 C 
HETATM   13  C   UNL     1     -45.023  60.066 -54.922  1.00  0.00     0.027 C 
HETATM   14  H   UNL     1     -46.369  59.816 -52.624  1.00  0.00     0.163 HD
ENDROOT
BRANCH   1  15
HETATM   15  C   UNL     1     -44.073  56.540 -51.015  1.00  0.00     0.146 C 
BRANCH  15  16
HETATM   16  C   UNL     1     -42.798  55.745 -51.176  1.00  0.00     0.224 C 
HETATM   17  N   UNL     1     -42.921  54.664 -52.017  1.00  0.00    -0.327 N 
HETATM   18  H   UNL     1     -43.852  54.421 -52.334  1.00  0.00     0.169 HD
HETATM   19  O   UNL     1     -41.784  56.138 -50.599  1.00  0.00    -0.273 OA
BRANCH  17  20
HETATM   20  C   UNL     1     -41.894  53.787 -52.449  1.00  0.00     0.040 A 
HETATM   21  C   UNL     1     -41.763  53.520 -53.831  1.00  0.00    -0.035 A 
HETATM   22  C   UNL     1     -42.696  54.094 -54.863  1.00  0.00     0.050 C 
HETATM   23  C   UNL     1     -40.732  52.671 -54.273  1.00  0.00     0.009 A 
HETATM   24  C   UNL     1     -39.841  52.095 -53.372  1.00  0.00     0.001 A 
HETATM   25  C   UNL     1     -39.970  52.359 -52.014  1.00  0.00     0.002 A 
HETATM   26  C   UNL     1     -40.989  53.199 -51.556  1.00  0.00     0.030 A 
ENDBRANCH  17  20
ENDBRANCH  15  16
ENDBRANCH   1  15
TORSDOF 3
ENDMDL
MODEL 10
REMARK VINA RESULT:      -7.0      1.923      3.271
REMARK  3 active torsions:
REMARK  status: ('A' for Active; 'I' for Inactive)
REMARK    1  A    between atoms: C_3  and  N_4 
REMARK       I    between atoms: N_4  and  C_5 
REMARK    2  A    between atoms: C_5  and  C_6 
REMARK    3  A    between atoms: C_6  and  C_7 
ROOT
HETATM    1  C   UNL     1     -43.022  56.603 -55.231  1.00  0.00     0.286 C 
HETATM    2  N   UNL     1     -43.645  57.755 -56.019  1.00  0.00    -0.056 N 
HETATM    3  H   UNL     1     -44.645  57.773 -55.786  1.00  0.00     0.278 HD
HETATM    4  H   UNL     1     -43.291  58.653 -55.622  1.00  0.00     0.278 HD
HETATM    5  C   UNL     1     -43.513  57.742 -57.511  1.00  0.00     0.209 C 
HETATM    6  C   UNL     1     -43.891  56.344 -58.044  1.00  0.00     0.115 C 
HETATM    7  N   UNL     1     -43.176  55.280 -57.347  1.00  0.00    -0.353 N 
HETATM    8  C   UNL     1     -42.946  55.272 -55.996  1.00  0.00     0.249 C 
HETATM    9  O   UNL     1     -42.621  54.227 -55.438  1.00  0.00    -0.271 OA
HETATM   10  C   UNL     1     -42.115  58.190 -57.935  1.00  0.00     0.035 C 
HETATM   11  C   UNL     1     -41.966  58.124 -59.453  1.00  0.00     0.002 C 
HETATM   12  C   UNL     1     -42.280  56.727 -59.982  1.00  0.00     0.002 C 
HETATM   13  C   UNL     1     -43.673  56.258 -59.559  1.00  0.00     0.027 C 
HETATM   14  H   UNL     1     -43.168  54.347 -57.756  1.00  0.00     0.163 HD
ENDROOT
BRANCH   1  15
HETATM   15  C   UNL     1     -41.631  56.926 -54.662  1.00  0.00     0.146 C 
BRANCH  15  16
HETATM   16  C   UNL     1     -41.551  56.690 -53.172  1.00  0.00     0.224 C 
HETATM   17  N   UNL     1     -41.354  55.373 -52.828  1.00  0.00    -0.327 N 
HETATM   18  H   UNL     1     -41.415  54.682 -53.566  1.00  0.00     0.169 HD
HETATM   19  O   UNL     1     -41.624  57.660 -52.418  1.00  0.00    -0.273 OA
BRANCH  17  20
HETATM   20  C   UNL     1     -41.138  54.843 -51.530  1.00  0.00     0.040 A 
HETATM   21  C   UNL     1     -40.582  53.550 -51.406  1.00  0.00    -0.035 A 
HETATM   22  C   UNL     1     -40.246  52.690 -52.595  1.00  0.00     0.050 C 
HETATM   23  C   UNL     1     -40.341  53.025 -50.123  1.00  0.00     0.009 A 
HETATM   24  C   UNL     1     -40.640  53.761 -48.979  1.00  0.00     0.001 A 
HETATM   25  C   UNL     1     -41.185  55.032 -49.103  1.00  0.00     0.002 A 
HETATM   26  C   UNL     1     -41.433  55.569 -50.369  1.00  0.00     0.030 A 
ENDBRANCH  17  20
ENDBRANCH  15  16
ENDBRANCH   1  15
TORSDOF 3
ENDMDL
