MODEL 1
REMARK VINA RESULT:      -9.7      0.000      0.000
REMARK  3 active torsions:
REMARK  status: ('A' for Active; 'I' for Inactive)
REMARK    1  A    between atoms: C_5  and  C_6 
REMARK       I    between atoms: C_6  and  N_7 
REMARK    2  A    between atoms: N_7  and  C_8 
REMARK    3  A    between atoms: C_13  and  C_14 
ROOT
HETATM    1  C   UNL     1     -41.113  54.499 -50.257  1.00  0.00     0.137 A 
HETATM    2  N   UNL     1     -41.226  55.292 -49.142  1.00  0.00    -0.262 N 
HETATM    3  H   UNL     1     -41.562  56.252 -49.118  1.00  0.00     0.191 HD
HETATM    4  N   UNL     1     -40.875  54.673 -47.998  1.00  0.00    -0.185 NA
HETATM    5  C   UNL     1     -40.497  53.459 -48.408  1.00  0.00     0.155 A 
HETATM    6  C   UNL     1     -40.607  53.294 -49.808  1.00  0.00     0.039 A 
ENDROOT
BRANCH   1   7
HETATM    7  N   UNL     1     -41.478  54.904 -51.530  1.00  0.00    -0.307 N 
HETATM    8  C   UNL     1     -42.713  54.599 -52.071  1.00  0.00     0.258 C 
HETATM    9  O   UNL     1     -43.579  53.942 -51.497  1.00  0.00    -0.267 OA
HETATM   10  H   UNL     1     -40.779  55.379 -52.089  1.00  0.00     0.170 HD
BRANCH   8  11
HETATM   11  C   UNL     1     -42.943  55.056 -53.464  1.00  0.00     0.044 A 
HETATM   12  C   UNL     1     -43.615  56.264 -53.783  1.00  0.00     0.008 A 
HETATM   13  C   UNL     1     -43.726  56.618 -55.133  1.00  0.00     0.043 A 
HETATM   14  C   UNL     1     -44.290  57.286 -53.048  1.00  0.00     0.032 A 
HETATM   15  C   UNL     1     -43.233  55.820 -56.174  1.00  0.00     0.030 A 
HETATM   16  N   UNL     1     -44.385  57.826 -55.193  1.00  0.00    -0.365 N 
HETATM   17  C   UNL     1     -42.613  54.617 -55.837  1.00  0.00     0.003 A 
HETATM   18  C   UNL     1     -42.469  54.237 -54.506  1.00  0.00     0.018 A 
HETATM   19  H   UNL     1     -44.597  58.320 -56.050  1.00  0.00     0.165 HD
HETATM   20  C   UNL     1     -44.732  58.237 -53.938  1.00  0.00     0.089 A 
ENDBRANCH   8  11
ENDBRANCH   1   7
BRANCH   6  21
HETATM   21  C   UNL     1     -40.282  52.158 -50.642  1.00  0.00    -0.018 A 
HETATM   22  C   UNL     1     -40.034  52.341 -52.011  1.00  0.00     0.052 A 
HETATM   23  C   UNL     1     -39.739  51.228 -52.769  1.00  0.00     0.105 A 
HETATM   24  C   UNL     1     -39.671  49.972 -52.216  1.00  0.00     0.105 A 
HETATM   25  O   UNL     1     -39.486  51.224 -54.105  1.00  0.00    -0.323 OA
HETATM   26  O   UNL     1     -39.366  49.018 -53.135  1.00  0.00    -0.323 OA
HETATM   27  C   UNL     1     -39.894  49.757 -50.873  1.00  0.00     0.040 A 
HETATM   28  C   UNL     1     -39.244  49.819 -54.329  1.00  0.00     0.352 A 
HETATM   29  C   UNL     1     -40.201  50.867 -50.077  1.00  0.00     0.015 A 
ENDBRANCH   6  21
TORSDOF 3
ENDMDL
MODEL 2
REMARK VINA RESULT:      -9.7      2.926      7.089
REMARK  3 active torsions:
REMARK  status: ('A' for Active; 'I' for Inactive)
REMARK    1  A    between atoms: C_5  and  C_6 
REMARK       I    between atoms: C_6  and  N_7 
REMARK    2  A    between atoms: N_7  and  C_8 
REMARK    3  A    between atoms: C_13  and  C_14 
ROOT
HETATM    1  C   UNL     1     -42.496  55.116 -55.403  1.00  0.00     0.137 A 
HETATM    2  N   UNL     1     -42.997  55.053 -56.680  1.00  0.00    -0.262 N 
HETATM    3  H   UNL     1     -43.060  54.220 -57.261  1.00  0.00     0.191 HD
HETATM    4  N   UNL     1     -43.465  56.230 -57.140  1.00  0.00    -0.185 NA
HETATM    5  C   UNL     1     -43.221  57.072 -56.132  1.00  0.00     0.155 A 
HETATM    6  C   UNL     1     -42.603  56.441 -55.027  1.00  0.00     0.039 A 
ENDROOT
BRANCH   1   7
HETATM    7  N   UNL     1     -42.021  54.018 -54.708  1.00  0.00    -0.307 N 
HETATM    8  C   UNL     1     -40.669  53.754 -54.587  1.00  0.00     0.258 C 
HETATM    9  O   UNL     1     -39.781  54.443 -55.086  1.00  0.00    -0.267 OA
HETATM   10  H   UNL     1     -42.703  53.363 -54.342  1.00  0.00     0.170 HD
BRANCH   8  11
HETATM   11  C   UNL     1     -40.310  52.513 -53.857  1.00  0.00     0.044 A 
HETATM   12  C   UNL     1     -40.283  52.427 -52.442  1.00  0.00     0.008 A 
HETATM   13  C   UNL     1     -39.981  51.189 -51.864  1.00  0.00     0.043 A 
HETATM   14  C   UNL     1     -40.463  53.338 -51.356  1.00  0.00     0.032 A 
HETATM   15  C   UNL     1     -39.679  50.048 -52.619  1.00  0.00     0.030 A 
HETATM   16  N   UNL     1     -40.039  51.342 -50.496  1.00  0.00    -0.365 N 
HETATM   17  C   UNL     1     -39.671  50.168 -54.009  1.00  0.00     0.003 A 
HETATM   18  C   UNL     1     -39.981  51.379 -54.621  1.00  0.00     0.018 A 
HETATM   19  H   UNL     1     -39.869  50.600 -49.830  1.00  0.00     0.165 HD
HETATM   20  C   UNL     1     -40.327  52.639 -50.179  1.00  0.00     0.089 A 
ENDBRANCH   8  11
ENDBRANCH   1   7
BRANCH   6  21
HETATM   21  C   UNL     1     -42.159  56.993 -53.765  1.00  0.00    -0.018 A 
HETATM   22  C   UNL     1     -41.059  57.862 -53.730  1.00  0.00     0.052 A 
HETATM   23  C   UNL     1     -40.664  58.355 -52.504  1.00  0.00     0.105 A 
HETATM   24  C   UNL     1     -41.325  58.028 -51.345  1.00  0.00     0.105 A 
HETATM   25  O   UNL     1     -39.616  59.194 -52.288  1.00  0.00    -0.323 OA
HETATM   26  O   UNL     1     -40.776  58.620 -50.251  1.00  0.00    -0.323 OA
HETATM   27  C   UNL     1     -42.418  57.189 -51.344  1.00  0.00     0.040 A 
HETATM   28  C   UNL     1     -39.697  59.363 -50.857  1.00  0.00     0.352 A 
HETATM   29  C   UNL     1     -42.841  56.668 -52.573  1.00  0.00     0.015 A 
ENDBRANCH   6  21
TORSDOF 3
ENDMDL
MODEL 3
REMARK VINA RESULT:      -9.3      3.191      7.547
REMARK  3 active torsions:
REMARK  status: ('A' for Active; 'I' for Inactive)
REMARK    1  A    between atoms: C_5  and  C_6 
REMARK       I    between atoms: C_6  and  N_7 
REMARK    2  A    between atoms: N_7  and  C_8 
REMARK    3  A    between atoms: C_13  and  C_14 
ROOT
HETATM    1  C   UNL     1     -42.445  55.710 -54.751  1.00  0.00     0.137 A 
HETATM    2  N   UNL     1     -42.892  55.455 -56.024  1.00  0.00    -0.262 N 
HETATM    3  H   UNL     1     -42.935  54.545 -56.475  1.00  0.00     0.191 HD
HETATM    4  N   UNL     1     -43.334  56.550 -56.673  1.00  0.00    -0.185 NA
HETATM    5  C   UNL     1     -43.128  57.534 -55.793  1.00  0.00     0.155 A 
HETATM    6  C   UNL     1     -42.561  57.076 -54.582  1.00  0.00     0.039 A 
ENDROOT
BRANCH   1   7
HETATM    7  N   UNL     1     -42.005  54.728 -53.879  1.00  0.00    -0.307 N 
HETATM    8  C   UNL     1     -40.736  54.185 -53.966  1.00  0.00     0.258 C 
HETATM    9  O   UNL     1     -39.903  54.501 -54.813  1.00  0.00    -0.267 OA
HETATM   10  H   UNL     1     -42.671  54.363 -53.208  1.00  0.00     0.170 HD
BRANCH   8  11
HETATM   11  C   UNL     1     -40.424  53.105 -52.997  1.00  0.00     0.044 A 
HETATM   12  C   UNL     1     -40.131  51.774 -53.388  1.00  0.00     0.008 A 
HETATM   13  C   UNL     1     -39.799  50.852 -52.388  1.00  0.00     0.043 A 
HETATM   14  C   UNL     1     -40.111  51.047 -54.618  1.00  0.00     0.032 A 
HETATM   15  C   UNL     1     -39.773  51.181 -51.026  1.00  0.00     0.030 A 
HETATM   16  N   UNL     1     -39.534  49.648 -53.002  1.00  0.00    -0.365 N 
HETATM   17  C   UNL     1     -40.105  52.486 -50.663  1.00  0.00     0.003 A 
HETATM   18  C   UNL     1     -40.426  53.435 -51.630  1.00  0.00     0.018 A 
HETATM   19  H   UNL     1     -39.261  48.805 -52.514  1.00  0.00     0.165 HD
HETATM   20  C   UNL     1     -39.723  49.755 -54.351  1.00  0.00     0.089 A 
ENDBRANCH   8  11
ENDBRANCH   1   7
BRANCH   6  21
HETATM   21  C   UNL     1     -42.167  57.811 -53.399  1.00  0.00    -0.018 A 
HETATM   22  C   UNL     1     -40.820  58.149 -53.200  1.00  0.00     0.052 A 
HETATM   23  C   UNL     1     -40.490  58.840 -52.054  1.00  0.00     0.105 A 
HETATM   24  C   UNL     1     -41.439  59.207 -51.130  1.00  0.00     0.105 A 
HETATM   25  O   UNL     1     -39.238  59.233 -51.699  1.00  0.00    -0.323 OA
HETATM   26  O   UNL     1     -40.903  59.879 -50.077  1.00  0.00    -0.323 OA
HETATM   27  C   UNL     1     -42.773  58.905 -51.300  1.00  0.00     0.040 A 
HETATM   28  C   UNL     1     -39.508  59.898 -50.447  1.00  0.00     0.352 A 
HETATM   29  C   UNL     1     -43.139  58.200 -52.453  1.00  0.00     0.015 A 
ENDBRANCH   6  21
TORSDOF 3
ENDMDL
MODEL 4
REMARK VINA RESULT:      -9.3      1.156      2.053
REMARK  3 active torsions:
REMARK  status: ('A' for Active; 'I' for Inactive)
REMARK    1  A    between atoms: C_5  and  C_6 
REMARK       I    between atoms: C_6  and  N_7 
REMARK    2  A    between atoms: N_7  and  C_8 
REMARK    3  A    between atoms: C_13  and  C_14 
ROOT
HETATM    1  C   UNL     1     -41.296  54.358 -49.880  1.00  0.00     0.137 A 
HETATM    2  N   UNL     1     -41.265  55.106 -48.729  1.00  0.00    -0.262 N 
HETATM    3  H   UNL     1     -41.706  56.012 -48.588  1.00  0.00     0.191 HD
HETATM    4  N   UNL     1     -40.600  54.517 -47.716  1.00  0.00    -0.185 NA
HETATM    5  C   UNL     1     -40.169  53.373 -48.255  1.00  0.00     0.155 A 
HETATM    6  C   UNL     1     -40.556  53.224 -49.606  1.00  0.00     0.039 A 
ENDROOT
BRANCH   1   7
HETATM    7  N   UNL     1     -41.974  54.737 -51.026  1.00  0.00    -0.307 N 
HETATM    8  C   UNL     1     -42.034  56.055 -51.441  1.00  0.00     0.258 C 
HETATM    9  O   UNL     1     -41.518  56.996 -50.840  1.00  0.00    -0.267 OA
HETATM   10  H   UNL     1     -42.492  54.022 -51.523  1.00  0.00     0.170 HD
BRANCH   8  11
HETATM   11  C   UNL     1     -42.840  56.317 -52.659  1.00  0.00     0.044 A 
HETATM   12  C   UNL     1     -42.597  55.678 -53.901  1.00  0.00     0.008 A 
HETATM   13  C   UNL     1     -43.457  55.965 -54.968  1.00  0.00     0.043 A 
HETATM   14  C   UNL     1     -41.619  54.771 -54.414  1.00  0.00     0.032 A 
HETATM   15  C   UNL     1     -44.520  56.873 -54.868  1.00  0.00     0.030 A 
HETATM   16  N   UNL     1     -43.044  55.217 -56.049  1.00  0.00    -0.365 N 
HETATM   17  C   UNL     1     -44.713  57.520 -53.648  1.00  0.00     0.003 A 
HETATM   18  C   UNL     1     -43.889  57.250 -52.559  1.00  0.00     0.018 A 
HETATM   19  H   UNL     1     -43.493  55.225 -56.955  1.00  0.00     0.165 HD
HETATM   20  C   UNL     1     -41.932  54.494 -55.724  1.00  0.00     0.089 A 
ENDBRANCH   8  11
ENDBRANCH   1   7
BRANCH   6  21
HETATM   21  C   UNL     1     -40.278  52.158 -50.545  1.00  0.00    -0.018 A 
HETATM   22  C   UNL     1     -40.081  52.453 -51.902  1.00  0.00     0.052 A 
HETATM   23  C   UNL     1     -39.829  51.405 -52.761  1.00  0.00     0.105 A 
HETATM   24  C   UNL     1     -39.755  50.106 -52.318  1.00  0.00     0.105 A 
HETATM   25  O   UNL     1     -39.628  51.510 -54.102  1.00  0.00    -0.323 OA
HETATM   26  O   UNL     1     -39.498  49.230 -53.325  1.00  0.00    -0.323 OA
HETATM   27  C   UNL     1     -39.929  49.782 -50.990  1.00  0.00     0.040 A 
HETATM   28  C   UNL     1     -39.411  50.127 -54.452  1.00  0.00     0.352 A 
HETATM   29  C   UNL     1     -40.191  50.824 -50.093  1.00  0.00     0.015 A 
ENDBRANCH   6  21
TORSDOF 3
ENDMDL
MODEL 5
REMARK VINA RESULT:      -8.9      2.767      7.919
REMARK  3 active torsions:
REMARK  status: ('A' for Active; 'I' for Inactive)
REMARK    1  A    between atoms: C_5  and  C_6 
REMARK       I    between atoms: C_6  and  N_7 
REMARK    2  A    between atoms: N_7  and  C_8 
REMARK    3  A    between atoms: C_13  and  C_14 
ROOT
HETATM    1  C   UNL     1     -42.463  55.549 -55.430  1.00  0.00     0.137 A 
HETATM    2  N   UNL     1     -42.415  55.206 -56.758  1.00  0.00    -0.262 N 
HETATM    3  H   UNL     1     -42.067  54.330 -57.141  1.00  0.00     0.191 HD
HETATM    4  N   UNL     1     -42.922  56.145 -57.581  1.00  0.00    -0.185 NA
HETATM    5  C   UNL     1     -43.272  57.128 -56.747  1.00  0.00     0.155 A 
HETATM    6  C   UNL     1     -42.996  56.824 -55.394  1.00  0.00     0.039 A 
ENDROOT
BRANCH   1   7
HETATM    7  N   UNL     1     -42.057  54.714 -54.404  1.00  0.00    -0.307 N 
HETATM    8  C   UNL     1     -40.740  54.315 -54.260  1.00  0.00     0.258 C 
HETATM    9  O   UNL     1     -39.829  54.643 -55.018  1.00  0.00    -0.267 OA
HETATM   10  H   UNL     1     -42.772  54.340 -53.791  1.00  0.00     0.170 HD
BRANCH   8  11
HETATM   11  C   UNL     1     -40.463  53.378 -53.144  1.00  0.00     0.044 A 
HETATM   12  C   UNL     1     -40.151  52.008 -53.342  1.00  0.00     0.008 A 
HETATM   13  C   UNL     1     -39.856  51.231 -52.215  1.00  0.00     0.043 A 
HETATM   14  C   UNL     1     -40.080  51.124 -54.462  1.00  0.00     0.032 A 
HETATM   15  C   UNL     1     -39.884  51.740 -50.909  1.00  0.00     0.030 A 
HETATM   16  N   UNL     1     -39.563  49.958 -52.652  1.00  0.00    -0.365 N 
HETATM   17  C   UNL     1     -40.234  53.079 -50.738  1.00  0.00     0.003 A 
HETATM   18  C   UNL     1     -40.520  53.887 -51.834  1.00  0.00     0.018 A 
HETATM   19  H   UNL     1     -39.308  49.190 -52.045  1.00  0.00     0.165 HD
HETATM   20  C   UNL     1     -39.699  49.883 -54.009  1.00  0.00     0.089 A 
ENDBRANCH   8  11
ENDBRANCH   1   7
BRANCH   6  21
HETATM   21  C   UNL     1     -43.197  57.615 -54.200  1.00  0.00    -0.018 A 
HETATM   22  C   UNL     1     -44.381  57.479 -53.460  1.00  0.00     0.052 A 
HETATM   23  C   UNL     1     -44.534  58.261 -52.335  1.00  0.00     0.105 A 
HETATM   24  C   UNL     1     -43.562  59.143 -51.928  1.00  0.00     0.105 A 
HETATM   25  O   UNL     1     -45.618  58.265 -51.514  1.00  0.00    -0.323 OA
HETATM   26  O   UNL     1     -43.911  59.813 -50.798  1.00  0.00    -0.323 OA
HETATM   27  C   UNL     1     -42.381  59.292 -52.622  1.00  0.00     0.040 A 
HETATM   28  C   UNL     1     -45.213  59.247 -50.537  1.00  0.00     0.352 A 
HETATM   29  C   UNL     1     -42.197  58.515 -53.772  1.00  0.00     0.015 A 
ENDBRANCH   6  21
TORSDOF 3
ENDMDL
MODEL 6
REMARK VINA RESULT:      -8.8      2.875      7.513
REMARK  3 active torsions:
REMARK  status: ('A' for Active; 'I' for Inactive)
REMARK    1  A    between atoms: C_5  and  C_6 
REMARK       I    between atoms: C_6  and  N_7 
REMARK    2  A    between atoms: N_7  and  C_8 
REMARK    3  A    between atoms: C_13  and  C_14 
ROOT
HETATM    1  C   UNL     1     -42.126  55.581 -55.220  1.00  0.00     0.137 A 
HETATM    2  N   UNL     1     -42.448  55.213 -56.503  1.00  0.00    -0.262 N 
HETATM    3  H   UNL     1     -42.409  54.272 -56.887  1.00  0.00     0.191 HD
HETATM    4  N   UNL     1     -42.884  56.234 -57.267  1.00  0.00    -0.185 NA
HETATM    5  C   UNL     1     -42.802  57.287 -56.450  1.00  0.00     0.155 A 
HETATM    6  C   UNL     1     -42.321  56.947 -55.164  1.00  0.00     0.039 A 
ENDROOT
BRANCH   1   7
HETATM    7  N   UNL     1     -41.717  54.688 -54.244  1.00  0.00    -0.307 N 
HETATM    8  C   UNL     1     -40.550  53.957 -54.361  1.00  0.00     0.258 C 
HETATM    9  O   UNL     1     -39.789  54.014 -55.325  1.00  0.00    -0.267 OA
HETATM   10  H   UNL     1     -42.341  54.532 -53.460  1.00  0.00     0.170 HD
BRANCH   8  11
HETATM   11  C   UNL     1     -40.267  53.002 -53.260  1.00  0.00     0.044 A 
HETATM   12  C   UNL     1     -40.436  53.327 -51.890  1.00  0.00     0.008 A 
HETATM   13  C   UNL     1     -40.189  52.328 -50.942  1.00  0.00     0.043 A 
HETATM   14  C   UNL     1     -40.789  54.497 -51.150  1.00  0.00     0.032 A 
HETATM   15  C   UNL     1     -39.756  51.040 -51.286  1.00  0.00     0.030 A 
HETATM   16  N   UNL     1     -40.442  52.862 -49.698  1.00  0.00    -0.365 N 
HETATM   17  C   UNL     1     -39.557  50.757 -52.637  1.00  0.00     0.003 A 
HETATM   18  C   UNL     1     -39.807  51.720 -53.611  1.00  0.00     0.018 A 
HETATM   19  H   UNL     1     -40.349  52.355 -48.827  1.00  0.00     0.165 HD
HETATM   20  C   UNL     1     -40.802  54.174 -49.813  1.00  0.00     0.089 A 
ENDBRANCH   8  11
ENDBRANCH   1   7
BRANCH   6  21
HETATM   21  C   UNL     1     -42.066  57.784 -54.012  1.00  0.00    -0.018 A 
HETATM   22  C   UNL     1     -43.137  58.382 -53.330  1.00  0.00     0.052 A 
HETATM   23  C   UNL     1     -42.846  59.180 -52.244  1.00  0.00     0.105 A 
HETATM   24  C   UNL     1     -41.555  59.384 -51.819  1.00  0.00     0.105 A 
HETATM   25  O   UNL     1     -43.756  59.842 -51.481  1.00  0.00    -0.323 OA
HETATM   26  O   UNL     1     -41.490  60.201 -50.735  1.00  0.00    -0.323 OA
HETATM   27  C   UNL     1     -40.481  58.802 -52.457  1.00  0.00     0.040 A 
HETATM   28  C   UNL     1     -42.889  60.482 -50.521  1.00  0.00     0.352 A 
HETATM   29  C   UNL     1     -40.743  57.989 -53.566  1.00  0.00     0.015 A 
ENDBRANCH   6  21
TORSDOF 3
ENDMDL
MODEL 7
REMARK VINA RESULT:      -8.6     12.930     15.387
REMARK  3 active torsions:
REMARK  status: ('A' for Active; 'I' for Inactive)
REMARK    1  A    between atoms: C_5  and  C_6 
REMARK       I    between atoms: C_6  and  N_7 
REMARK    2  A    between atoms: N_7  and  C_8 
REMARK    3  A    between atoms: C_13  and  C_14 
ROOT
HETATM    1  C   UNL     1     -38.233  40.905 -53.389  1.00  0.00     0.137 A 
HETATM    2  N   UNL     1     -39.206  40.983 -52.423  1.00  0.00    -0.262 N 
HETATM    3  H   UNL     1     -39.087  40.782 -51.433  1.00  0.00     0.191 HD
HETATM    4  N   UNL     1     -40.399  41.403 -52.887  1.00  0.00    -0.185 NA
HETATM    5  C   UNL     1     -40.181  41.564 -54.195  1.00  0.00     0.155 A 
HETATM    6  C   UNL     1     -38.855  41.253 -54.572  1.00  0.00     0.039 A 
ENDROOT
BRANCH   1   7
HETATM    7  N   UNL     1     -36.918  40.558 -53.131  1.00  0.00    -0.307 N 
HETATM    8  C   UNL     1     -35.948  41.506 -52.860  1.00  0.00     0.258 C 
HETATM    9  O   UNL     1     -36.151  42.719 -52.839  1.00  0.00    -0.267 OA
HETATM   10  H   UNL     1     -36.665  39.580 -53.214  1.00  0.00     0.170 HD
BRANCH   8  11
HETATM   11  C   UNL     1     -34.573  40.989 -52.654  1.00  0.00     0.044 A 
HETATM   12  C   UNL     1     -33.719  40.610 -53.721  1.00  0.00     0.008 A 
HETATM   13  C   UNL     1     -32.422  40.186 -53.408  1.00  0.00     0.043 A 
HETATM   14  C   UNL     1     -33.838  40.504 -55.141  1.00  0.00     0.032 A 
HETATM   15  C   UNL     1     -31.947  40.094 -52.093  1.00  0.00     0.030 A 
HETATM   16  N   UNL     1     -31.780  39.899 -54.592  1.00  0.00    -0.365 N 
HETATM   17  C   UNL     1     -32.819  40.433 -51.058  1.00  0.00     0.003 A 
HETATM   18  C   UNL     1     -34.111  40.873 -51.330  1.00  0.00     0.018 A 
HETATM   19  H   UNL     1     -30.824  39.575 -54.660  1.00  0.00     0.165 HD
HETATM   20  C   UNL     1     -32.629  40.085 -55.646  1.00  0.00     0.089 A 
ENDBRANCH   8  11
ENDBRANCH   1   7
BRANCH   6  21
HETATM   21  C   UNL     1     -38.227  41.273 -55.876  1.00  0.00    -0.018 A 
HETATM   22  C   UNL     1     -38.667  40.398 -56.879  1.00  0.00     0.052 A 
HETATM   23  C   UNL     1     -38.032  40.444 -58.102  1.00  0.00     0.105 A 
HETATM   24  C   UNL     1     -37.007  41.324 -58.353  1.00  0.00     0.105 A 
HETATM   25  O   UNL     1     -38.322  39.662 -59.175  1.00  0.00    -0.323 OA
HETATM   26  O   UNL     1     -36.522  41.206 -59.618  1.00  0.00    -0.323 OA
HETATM   27  C   UNL     1     -36.558  42.208 -57.396  1.00  0.00     0.040 A 
HETATM   28  C   UNL     1     -37.365  40.155 -60.136  1.00  0.00     0.352 A 
HETATM   29  C   UNL     1     -37.180  42.182 -56.142  1.00  0.00     0.015 A 
ENDBRANCH   6  21
TORSDOF 3
ENDMDL
MODEL 8
REMARK VINA RESULT:      -8.6      3.136      7.131
REMARK  3 active torsions:
REMARK  status: ('A' for Active; 'I' for Inactive)
REMARK    1  A    between atoms: C_5  and  C_6 
REMARK       I    between atoms: C_6  and  N_7 
REMARK    2  A    between atoms: N_7  and  C_8 
REMARK    3  A    between atoms: C_13  and  C_14 
ROOT
HETATM    1  C   UNL     1     -44.003  56.630 -52.229  1.00  0.00     0.137 A 
HETATM    2  N   UNL     1     -44.720  56.700 -51.061  1.00  0.00    -0.262 N 
HETATM    3  H   UNL     1     -44.771  55.981 -50.342  1.00  0.00     0.191 HD
HETATM    4  N   UNL     1     -45.370  57.868 -50.891  1.00  0.00    -0.185 NA
HETATM    5  C   UNL     1     -45.080  58.546 -52.004  1.00  0.00     0.155 A 
HETATM    6  C   UNL     1     -44.246  57.821 -52.886  1.00  0.00     0.039 A 
ENDROOT
BRANCH   1   7
HETATM    7  N   UNL     1     -43.210  55.552 -52.583  1.00  0.00    -0.307 N 
HETATM    8  C   UNL     1     -41.842  55.550 -52.381  1.00  0.00     0.258 C 
HETATM    9  O   UNL     1     -41.211  56.487 -51.896  1.00  0.00    -0.267 OA
HETATM   10  H   UNL     1     -43.656  54.779 -53.064  1.00  0.00     0.170 HD
BRANCH   8  11
HETATM   11  C   UNL     1     -41.116  54.346 -52.857  1.00  0.00     0.044 A 
HETATM   12  C   UNL     1     -40.707  53.298 -51.994  1.00  0.00     0.008 A 
HETATM   13  C   UNL     1     -40.075  52.186 -52.565  1.00  0.00     0.043 A 
HETATM   14  C   UNL     1     -40.737  53.057 -50.586  1.00  0.00     0.032 A 
HETATM   15  C   UNL     1     -39.806  52.081 -53.936  1.00  0.00     0.030 A 
HETATM   16  N   UNL     1     -39.797  51.298 -51.549  1.00  0.00    -0.365 N 
HETATM   17  C   UNL     1     -40.181  53.145 -54.758  1.00  0.00     0.003 A 
HETATM   18  C   UNL     1     -40.825  54.260 -54.230  1.00  0.00     0.018 A 
HETATM   19  H   UNL     1     -39.345  50.403 -51.680  1.00  0.00     0.165 HD
HETATM   20  C   UNL     1     -40.190  51.817 -50.348  1.00  0.00     0.089 A 
ENDBRANCH   8  11
ENDBRANCH   1   7
BRANCH   6  21
HETATM   21  C   UNL     1     -43.728  58.181 -54.189  1.00  0.00    -0.018 A 
HETATM   22  C   UNL     1     -44.312  57.648 -55.347  1.00  0.00     0.052 A 
HETATM   23  C   UNL     1     -43.780  58.010 -56.565  1.00  0.00     0.105 A 
HETATM   24  C   UNL     1     -42.717  58.876 -56.663  1.00  0.00     0.105 A 
HETATM   25  O   UNL     1     -44.213  57.579 -57.780  1.00  0.00    -0.323 OA
HETATM   26  O   UNL     1     -42.349  59.100 -57.952  1.00  0.00    -0.323 OA
HETATM   27  C   UNL     1     -42.128  59.431 -55.547  1.00  0.00     0.040 A 
HETATM   28  C   UNL     1     -43.306  58.280 -58.655  1.00  0.00     0.352 A 
HETATM   29  C   UNL     1     -42.644  59.079 -54.294  1.00  0.00     0.015 A 
ENDBRANCH   6  21
TORSDOF 3
ENDMDL
MODEL 9
REMARK VINA RESULT:      -8.4      3.436      7.431
REMARK  3 active torsions:
REMARK  status: ('A' for Active; 'I' for Inactive)
REMARK    1  A    between atoms: C_5  and  C_6 
REMARK       I    between atoms: C_6  and  N_7 
REMARK    2  A    between atoms: N_7  and  C_8 
REMARK    3  A    between atoms: C_13  and  C_14 
ROOT
HETATM    1  C   UNL     1     -43.526  57.105 -53.993  1.00  0.00     0.137 A 
HETATM    2  N   UNL     1     -44.113  57.749 -52.932  1.00  0.00    -0.262 N 
HETATM    3  H   UNL     1     -44.133  57.424 -51.968  1.00  0.00     0.191 HD
HETATM    4  N   UNL     1     -44.668  58.933 -53.254  1.00  0.00    -0.185 NA
HETATM    5  C   UNL     1     -44.454  59.025 -54.570  1.00  0.00     0.155 A 
HETATM    6  C   UNL     1     -43.761  57.909 -55.092  1.00  0.00     0.039 A 
ENDROOT
BRANCH   1   7
HETATM    7  N   UNL     1     -42.842  55.907 -53.883  1.00  0.00    -0.307 N 
HETATM    8  C   UNL     1     -41.648  55.804 -53.193  1.00  0.00     0.258 C 
HETATM    9  O   UNL     1     -41.085  56.745 -52.636  1.00  0.00    -0.267 OA
HETATM   10  H   UNL     1     -43.209  55.109 -54.388  1.00  0.00     0.170 HD
BRANCH   8  11
HETATM   11  C   UNL     1     -41.003  54.468 -53.204  1.00  0.00     0.044 A 
HETATM   12  C   UNL     1     -40.717  53.736 -52.023  1.00  0.00     0.008 A 
HETATM   13  C   UNL     1     -40.155  52.461 -52.160  1.00  0.00     0.043 A 
HETATM   14  C   UNL     1     -40.826  53.972 -50.618  1.00  0.00     0.032 A 
HETATM   15  C   UNL     1     -39.837  51.896 -53.403  1.00  0.00     0.030 A 
HETATM   16  N   UNL     1     -39.993  51.939 -50.895  1.00  0.00    -0.365 N 
HETATM   17  C   UNL     1     -40.089  52.653 -54.547  1.00  0.00     0.003 A 
HETATM   18  C   UNL     1     -40.662  53.918 -54.453  1.00  0.00     0.018 A 
HETATM   19  H   UNL     1     -39.610  51.024 -50.699  1.00  0.00     0.165 HD
HETATM   20  C   UNL     1     -40.393  52.847 -49.956  1.00  0.00     0.089 A 
ENDBRANCH   8  11
ENDBRANCH   1   7
BRANCH   6  21
HETATM   21  C   UNL     1     -43.360  57.611 -56.450  1.00  0.00    -0.018 A 
HETATM   22  C   UNL     1     -42.851  58.629 -57.269  1.00  0.00     0.052 A 
HETATM   23  C   UNL     1     -42.491  58.301 -58.559  1.00  0.00     0.105 A 
HETATM   24  C   UNL     1     -42.608  57.020 -59.041  1.00  0.00     0.105 A 
HETATM   25  O   UNL     1     -41.995  59.163 -59.486  1.00  0.00    -0.323 OA
HETATM   26  O   UNL     1     -42.199  56.913 -60.333  1.00  0.00    -0.323 OA
HETATM   27  C   UNL     1     -43.091  55.992 -58.259  1.00  0.00     0.040 A 
HETATM   28  C   UNL     1     -41.805  58.274 -60.607  1.00  0.00     0.352 A 
HETATM   29  C   UNL     1     -43.469  56.294 -56.946  1.00  0.00     0.015 A 
ENDBRANCH   6  21
TORSDOF 3
ENDMDL
MODEL 10
REMARK VINA RESULT:      -8.4      3.682      7.845
REMARK  3 active torsions:
REMARK  status: ('A' for Active; 'I' for Inactive)
REMARK    1  A    between atoms: C_5  and  C_6 
REMARK       I    between atoms: C_6  and  N_7 
REMARK    2  A    between atoms: N_7  and  C_8 
REMARK    3  A    between atoms: C_13  and  C_14 
ROOT
HETATM    1  C   UNL     1     -43.014  58.155 -55.145  1.00  0.00     0.137 A 
HETATM    2  N   UNL     1     -43.098  59.199 -54.258  1.00  0.00    -0.262 N 
HETATM    3  H   UNL     1     -42.853  59.172 -53.270  1.00  0.00     0.191 HD
HETATM    4  N   UNL     1     -43.518  60.352 -54.814  1.00  0.00    -0.185 NA
HETATM    5  C   UNL     1     -43.739  60.016 -56.088  1.00  0.00     0.155 A 
HETATM    6  C   UNL     1     -43.458  58.656 -56.353  1.00  0.00     0.039 A 
ENDROOT
BRANCH   1   7
HETATM    7  N   UNL     1     -42.546  56.896 -54.809  1.00  0.00    -0.307 N 
HETATM    8  C   UNL     1     -41.411  56.716 -54.040  1.00  0.00     0.258 C 
HETATM    9  O   UNL     1     -40.715  57.632 -53.604  1.00  0.00    -0.267 OA
HETATM   10  H   UNL     1     -43.026  56.096 -55.204  1.00  0.00     0.170 HD
BRANCH   8  11
HETATM   11  C   UNL     1     -41.001  55.309 -53.804  1.00  0.00     0.044 A 
HETATM   12  C   UNL     1     -41.063  54.688 -52.530  1.00  0.00     0.008 A 
HETATM   13  C   UNL     1     -40.700  53.339 -52.439  1.00  0.00     0.043 A 
HETATM   14  C   UNL     1     -41.391  55.100 -51.203  1.00  0.00     0.032 A 
HETATM   15  C   UNL     1     -40.253  52.592 -53.538  1.00  0.00     0.030 A 
HETATM   16  N   UNL     1     -40.863  52.951 -51.127  1.00  0.00    -0.365 N 
HETATM   17  C   UNL     1     -40.162  53.238 -54.771  1.00  0.00     0.003 A 
HETATM   18  C   UNL     1     -40.528  54.574 -54.905  1.00  0.00     0.018 A 
HETATM   19  H   UNL     1     -40.678  52.020 -50.778  1.00  0.00     0.165 HD
HETATM   20  C   UNL     1     -41.278  54.011 -50.371  1.00  0.00     0.089 A 
ENDBRANCH   8  11
ENDBRANCH   1   7
BRANCH   6  21
HETATM   21  C   UNL     1     -43.586  57.898 -57.579  1.00  0.00    -0.018 A 
HETATM   22  C   UNL     1     -44.850  57.473 -58.012  1.00  0.00     0.052 A 
HETATM   23  C   UNL     1     -44.922  56.745 -59.180  1.00  0.00     0.105 A 
HETATM   24  C   UNL     1     -43.802  56.446 -59.918  1.00  0.00     0.105 A 
HETATM   25  O   UNL     1     -46.059  56.246 -59.734  1.00  0.00    -0.323 OA
HETATM   26  O   UNL     1     -44.093  55.722 -61.031  1.00  0.00    -0.323 OA
HETATM   27  C   UNL     1     -42.546  56.860 -59.531  1.00  0.00     0.040 A 
HETATM   28  C   UNL     1     -45.527  55.604 -60.912  1.00  0.00     0.352 A 
HETATM   29  C   UNL     1     -42.439  57.598 -58.346  1.00  0.00     0.015 A 
ENDBRANCH   6  21
TORSDOF 3
ENDMDL
