MODEL 1
REMARK VINA RESULT:      -8.8      0.000      0.000
REMARK  2 active torsions:
REMARK  status: ('A' for Active; 'I' for Inactive)
REMARK    1  A    between atoms: C_5  and  C_6 
REMARK    2  A    between atoms: N_12  and  C_13 
ROOT
HETATM    1  C   UNL     1     -42.676  57.365 -56.927  1.00  0.00     0.047 A 
HETATM    2  N   UNL     1     -41.759  56.354 -56.698  1.00  0.00    -0.344 N 
HETATM    3  C   UNL     1     -41.828  55.562 -55.584  1.00  0.00     0.119 A 
HETATM    4  C   UNL     1     -42.844  55.678 -54.713  1.00  0.00     0.123 A 
HETATM    5  C   UNL     1     -42.660  54.631 -53.696  1.00  0.00     0.280 A 
HETATM    6  O   UNL     1     -43.408  54.429 -52.756  1.00  0.00    -0.265 OA
HETATM    7  N   UNL     1     -41.485  53.958 -54.068  1.00  0.00    -0.236 N 
HETATM    8  N   UNL     1     -40.945  54.560 -55.226  1.00  0.00    -0.179 NA
HETATM    9  C   UNL     1     -43.893  56.679 -54.920  1.00  0.00     0.193 A 
HETATM   10  O   UNL     1     -44.857  56.821 -54.179  1.00  0.00    -0.287 OA
HETATM   11  C   UNL     1     -43.732  57.560 -56.115  1.00  0.00     0.086 A 
HETATM   12  H   UNL     1     -40.876  56.396 -57.197  1.00  0.00     0.167 HD
HETATM   13  H   UNL     1     -40.835  53.896 -55.993  1.00  0.00     0.155 HD
ENDROOT
BRANCH   1  14
HETATM   14  C   UNL     1     -42.475  58.218 -58.113  1.00  0.00    -0.009 A 
HETATM   15  C   UNL     1     -42.485  59.615 -58.012  1.00  0.00     0.014 A 
HETATM   16  C   UNL     1     -42.289  60.412 -59.143  1.00  0.00     0.007 A 
HETATM   17  C   UNL     1     -42.086  59.828 -60.397  1.00  0.00    -0.062 A 
HETATM   18  C   UNL     1     -41.848  60.680 -61.609  1.00  0.00     0.048 C 
HETATM   19  C   UNL     1     -42.052  58.433 -60.499  1.00  0.00     0.007 A 
HETATM   20  C   UNL     1     -42.249  57.636 -59.368  1.00  0.00     0.014 A 
ENDBRANCH   1  14
BRANCH   7  21
HETATM   21  C   UNL     1     -40.822  52.883 -53.438  1.00  0.00     0.055 A 
HETATM   22  C   UNL     1     -40.412  52.967 -52.098  1.00  0.00     0.034 A 
HETATM   23  C   UNL     1     -39.766  51.893 -51.475  1.00  0.00     0.044 A 
HETATM   24  C   UNL     1     -39.522  50.730 -52.190  1.00  0.00     0.116 A 
HETATM   25  F   UNL     1     -38.904  49.702 -51.594  1.00  0.00    -0.206 F 
HETATM   26  C   UNL     1     -39.910  50.620 -53.518  1.00  0.00     0.044 A 
HETATM   27  C   UNL     1     -40.555  51.694 -54.139  1.00  0.00     0.034 A 
ENDBRANCH   7  21
TORSDOF 2
ENDMDL
MODEL 2
REMARK VINA RESULT:      -8.6      3.447      8.644
REMARK  2 active torsions:
REMARK  status: ('A' for Active; 'I' for Inactive)
REMARK    1  A    between atoms: C_5  and  C_6 
REMARK    2  A    between atoms: N_12  and  C_13 
ROOT
HETATM    1  C   UNL     1     -41.094  54.932 -53.508  1.00  0.00     0.047 A 
HETATM    2  N   UNL     1     -41.284  55.029 -54.874  1.00  0.00    -0.344 N 
HETATM    3  C   UNL     1     -41.782  56.166 -55.450  1.00  0.00     0.119 A 
HETATM    4  C   UNL     1     -42.021  57.266 -54.717  1.00  0.00     0.123 A 
HETATM    5  C   UNL     1     -42.457  58.317 -55.650  1.00  0.00     0.280 A 
HETATM    6  O   UNL     1     -42.745  59.458 -55.333  1.00  0.00    -0.265 OA
HETATM    7  N   UNL     1     -42.447  57.714 -56.917  1.00  0.00    -0.236 N 
HETATM    8  N   UNL     1     -42.060  56.362 -56.791  1.00  0.00    -0.179 NA
HETATM    9  C   UNL     1     -41.781  57.267 -53.272  1.00  0.00     0.193 A 
HETATM   10  O   UNL     1     -41.955  58.240 -52.551  1.00  0.00    -0.287 OA
HETATM   11  C   UNL     1     -41.301  55.979 -52.688  1.00  0.00     0.086 A 
HETATM   12  H   UNL     1     -41.336  54.166 -55.406  1.00  0.00     0.167 HD
HETATM   13  H   UNL     1     -41.241  56.138 -57.357  1.00  0.00     0.155 HD
ENDROOT
BRANCH   1  14
HETATM   14  C   UNL     1     -40.628  53.640 -52.970  1.00  0.00    -0.009 A 
HETATM   15  C   UNL     1     -40.252  52.594 -53.823  1.00  0.00     0.014 A 
HETATM   16  C   UNL     1     -39.807  51.375 -53.302  1.00  0.00     0.007 A 
HETATM   17  C   UNL     1     -39.737  51.177 -51.919  1.00  0.00    -0.062 A 
HETATM   18  C   UNL     1     -39.235  49.880 -51.356  1.00  0.00     0.048 C 
HETATM   19  C   UNL     1     -40.090  52.227 -51.064  1.00  0.00     0.007 A 
HETATM   20  C   UNL     1     -40.535  53.445 -51.586  1.00  0.00     0.014 A 
ENDBRANCH   1  14
BRANCH   7  21
HETATM   21  C   UNL     1     -42.801  58.248 -58.175  1.00  0.00     0.055 A 
HETATM   22  C   UNL     1     -43.970  57.840 -58.835  1.00  0.00     0.034 A 
HETATM   23  C   UNL     1     -44.322  58.382 -60.077  1.00  0.00     0.044 A 
HETATM   24  C   UNL     1     -43.504  59.334 -60.667  1.00  0.00     0.116 A 
HETATM   25  F   UNL     1     -43.840  59.854 -61.854  1.00  0.00    -0.206 F 
HETATM   26  C   UNL     1     -42.338  59.753 -60.041  1.00  0.00     0.044 A 
HETATM   27  C   UNL     1     -41.988  59.210 -58.800  1.00  0.00     0.034 A 
ENDBRANCH   7  21
TORSDOF 2
ENDMDL
MODEL 3
REMARK VINA RESULT:      -8.4      3.772      8.605
REMARK  2 active torsions:
REMARK  status: ('A' for Active; 'I' for Inactive)
REMARK    1  A    between atoms: C_5  and  C_6 
REMARK    2  A    between atoms: N_12  and  C_13 
ROOT
HETATM    1  C   UNL     1     -41.121  54.726 -53.697  1.00  0.00     0.047 A 
HETATM    2  N   UNL     1     -41.948  54.582 -54.796  1.00  0.00    -0.344 N 
HETATM    3  C   UNL     1     -42.493  55.665 -55.431  1.00  0.00     0.119 A 
HETATM    4  C   UNL     1     -42.173  56.917 -55.064  1.00  0.00     0.123 A 
HETATM    5  C   UNL     1     -42.855  57.826 -55.998  1.00  0.00     0.280 A 
HETATM    6  O   UNL     1     -42.776  59.042 -55.974  1.00  0.00    -0.265 OA
HETATM    7  N   UNL     1     -43.564  56.991 -56.875  1.00  0.00    -0.236 N 
HETATM    8  N   UNL     1     -43.368  55.643 -56.502  1.00  0.00    -0.179 NA
HETATM    9  C   UNL     1     -41.249  57.155 -53.952  1.00  0.00     0.193 A 
HETATM   10  O   UNL     1     -40.897  58.267 -53.583  1.00  0.00    -0.287 OA
HETATM   11  C   UNL     1     -40.738  55.938 -53.254  1.00  0.00     0.086 A 
HETATM   12  H   UNL     1     -42.384  53.677 -54.944  1.00  0.00     0.167 HD
HETATM   13  H   UNL     1     -42.982  55.082 -57.261  1.00  0.00     0.155 HD
ENDROOT
BRANCH   1  14
HETATM   14  C   UNL     1     -40.645  53.499 -53.031  1.00  0.00    -0.009 A 
HETATM   15  C   UNL     1     -40.628  53.393 -51.634  1.00  0.00     0.014 A 
HETATM   16  C   UNL     1     -40.179  52.223 -51.015  1.00  0.00     0.007 A 
HETATM   17  C   UNL     1     -39.732  51.141 -51.779  1.00  0.00    -0.062 A 
HETATM   18  C   UNL     1     -39.274  49.874 -51.119  1.00  0.00     0.048 C 
HETATM   19  C   UNL     1     -39.768  51.235 -53.175  1.00  0.00     0.007 A 
HETATM   20  C   UNL     1     -40.216  52.405 -53.794  1.00  0.00     0.014 A 
ENDBRANCH   1  14
BRANCH   7  21
HETATM   21  C   UNL     1     -44.413  57.325 -57.952  1.00  0.00     0.055 A 
HETATM   22  C   UNL     1     -44.103  56.943 -59.267  1.00  0.00     0.034 A 
HETATM   23  C   UNL     1     -44.955  57.266 -60.330  1.00  0.00     0.044 A 
HETATM   24  C   UNL     1     -46.120  57.976 -60.084  1.00  0.00     0.116 A 
HETATM   25  F   UNL     1     -46.936  58.286 -61.099  1.00  0.00    -0.206 F 
HETATM   26  C   UNL     1     -46.450  58.373 -58.795  1.00  0.00     0.044 A 
HETATM   27  C   UNL     1     -45.598  58.049 -57.734  1.00  0.00     0.034 A 
ENDBRANCH   7  21
TORSDOF 2
ENDMDL
MODEL 4
REMARK VINA RESULT:      -8.4      5.869      8.803
REMARK  2 active torsions:
REMARK  status: ('A' for Active; 'I' for Inactive)
REMARK    1  A    between atoms: C_5  and  C_6 
REMARK    2  A    between atoms: N_12  and  C_13 
ROOT
HETATM    1  C   UNL     1     -41.482  56.699 -53.364  1.00  0.00     0.047 A 
HETATM    2  N   UNL     1     -42.140  57.087 -52.211  1.00  0.00    -0.344 N 
HETATM    3  C   UNL     1     -42.501  58.390 -51.994  1.00  0.00     0.119 A 
HETATM    4  C   UNL     1     -42.308  59.328 -52.937  1.00  0.00     0.123 A 
HETATM    5  C   UNL     1     -42.883  60.580 -52.421  1.00  0.00     0.280 A 
HETATM    6  O   UNL     1     -42.902  61.640 -53.020  1.00  0.00    -0.265 OA
HETATM    7  N   UNL     1     -43.382  60.260 -51.149  1.00  0.00    -0.236 N 
HETATM    8  N   UNL     1     -43.113  58.902 -50.866  1.00  0.00    -0.179 NA
HETATM    9  C   UNL     1     -41.680  58.983 -54.214  1.00  0.00     0.193 A 
HETATM   10  O   UNL     1     -41.497  59.783 -55.123  1.00  0.00    -0.287 OA
HETATM   11  C   UNL     1     -41.246  57.563 -54.370  1.00  0.00     0.086 A 
HETATM   12  H   UNL     1     -42.088  56.470 -51.407  1.00  0.00     0.167 HD
HETATM   13  H   UNL     1     -43.960  58.375 -50.654  1.00  0.00     0.155 HD
ENDROOT
BRANCH   1  14
HETATM   14  C   UNL     1     -41.064  55.289 -53.474  1.00  0.00    -0.009 A 
HETATM   15  C   UNL     1     -41.057  54.446 -52.354  1.00  0.00     0.014 A 
HETATM   16  C   UNL     1     -40.663  53.110 -52.471  1.00  0.00     0.007 A 
HETATM   17  C   UNL     1     -40.263  52.594 -53.708  1.00  0.00    -0.062 A 
HETATM   18  C   UNL     1     -39.865  51.153 -53.842  1.00  0.00     0.048 C 
HETATM   19  C   UNL     1     -40.290  53.425 -54.832  1.00  0.00     0.007 A 
HETATM   20  C   UNL     1     -40.683  54.762 -54.715  1.00  0.00     0.014 A 
ENDBRANCH   1  14
BRANCH   7  21
HETATM   21  C   UNL     1     -44.014  61.084 -50.192  1.00  0.00     0.055 A 
HETATM   22  C   UNL     1     -45.133  60.636 -49.473  1.00  0.00     0.034 A 
HETATM   23  C   UNL     1     -45.748  61.453 -48.517  1.00  0.00     0.044 A 
HETATM   24  C   UNL     1     -45.249  62.725 -48.278  1.00  0.00     0.116 A 
HETATM   25  F   UNL     1     -45.837  63.508 -47.364  1.00  0.00    -0.206 F 
HETATM   26  C   UNL     1     -44.148  63.198 -48.979  1.00  0.00     0.044 A 
HETATM   27  C   UNL     1     -43.535  62.380 -49.934  1.00  0.00     0.034 A 
ENDBRANCH   7  21
TORSDOF 2
ENDMDL
MODEL 5
REMARK VINA RESULT:      -8.3      5.459      8.723
REMARK  2 active torsions:
REMARK  status: ('A' for Active; 'I' for Inactive)
REMARK    1  A    between atoms: C_5  and  C_6 
REMARK    2  A    between atoms: N_12  and  C_13 
ROOT
HETATM    1  C   UNL     1     -42.714  55.631 -53.103  1.00  0.00     0.047 A 
HETATM    2  N   UNL     1     -42.502  56.505 -52.052  1.00  0.00    -0.344 N 
HETATM    3  C   UNL     1     -43.187  57.685 -51.951  1.00  0.00     0.119 A 
HETATM    4  C   UNL     1     -44.159  57.999 -52.824  1.00  0.00     0.123 A 
HETATM    5  C   UNL     1     -44.741  59.274 -52.378  1.00  0.00     0.280 A 
HETATM    6  O   UNL     1     -45.663  59.853 -52.926  1.00  0.00    -0.265 OA
HETATM    7  N   UNL     1     -44.019  59.627 -51.227  1.00  0.00    -0.236 N 
HETATM    8  N   UNL     1     -43.026  58.655 -50.979  1.00  0.00    -0.179 NA
HETATM    9  C   UNL     1     -44.492  57.094 -53.926  1.00  0.00     0.193 A 
HETATM   10  O   UNL     1     -45.381  57.308 -54.741  1.00  0.00    -0.287 OA
HETATM   11  C   UNL     1     -43.668  55.853 -54.027  1.00  0.00     0.086 A 
HETATM   12  H   UNL     1     -41.638  56.411 -51.528  1.00  0.00     0.167 HD
HETATM   13  H   UNL     1     -43.111  58.241 -50.050  1.00  0.00     0.155 HD
ENDROOT
BRANCH   1  14
HETATM   14  C   UNL     1     -41.873  54.421 -53.170  1.00  0.00    -0.009 A 
HETATM   15  C   UNL     1     -41.070  54.037 -52.089  1.00  0.00     0.014 A 
HETATM   16  C   UNL     1     -40.280  52.886 -52.163  1.00  0.00     0.007 A 
HETATM   17  C   UNL     1     -40.273  52.102 -53.321  1.00  0.00    -0.062 A 
HETATM   18  C   UNL     1     -39.447  50.851 -53.394  1.00  0.00     0.048 C 
HETATM   19  C   UNL     1     -41.091  52.470 -54.395  1.00  0.00     0.007 A 
HETATM   20  C   UNL     1     -41.880  53.622 -54.321  1.00  0.00     0.014 A 
ENDBRANCH   1  14
BRANCH   7  21
HETATM   21  C   UNL     1     -44.134  60.768 -50.403  1.00  0.00     0.055 A 
HETATM   22  C   UNL     1     -43.342  61.905 -50.621  1.00  0.00     0.034 A 
HETATM   23  C   UNL     1     -43.468  63.038 -49.809  1.00  0.00     0.044 A 
HETATM   24  C   UNL     1     -44.386  63.037 -48.769  1.00  0.00     0.116 A 
HETATM   25  F   UNL     1     -44.509  64.120 -47.991  1.00  0.00    -0.206 F 
HETATM   26  C   UNL     1     -45.180  61.925 -48.525  1.00  0.00     0.044 A 
HETATM   27  C   UNL     1     -45.052  60.794 -49.338  1.00  0.00     0.034 A 
ENDBRANCH   7  21
TORSDOF 2
ENDMDL
MODEL 6
REMARK VINA RESULT:      -8.2      3.807      5.758
REMARK  2 active torsions:
REMARK  status: ('A' for Active; 'I' for Inactive)
REMARK    1  A    between atoms: C_5  and  C_6 
REMARK    2  A    between atoms: N_12  and  C_13 
ROOT
HETATM    1  C   UNL     1     -42.968  58.277 -52.210  1.00  0.00     0.047 A 
HETATM    2  N   UNL     1     -42.526  57.081 -51.673  1.00  0.00    -0.344 N 
HETATM    3  C   UNL     1     -42.046  56.073 -52.464  1.00  0.00     0.119 A 
HETATM    4  C   UNL     1     -41.902  56.242 -53.790  1.00  0.00     0.123 A 
HETATM    5  C   UNL     1     -41.286  55.013 -54.315  1.00  0.00     0.280 A 
HETATM    6  O   UNL     1     -40.994  54.820 -55.482  1.00  0.00    -0.265 OA
HETATM    7  N   UNL     1     -41.120  54.178 -53.199  1.00  0.00    -0.236 N 
HETATM    8  N   UNL     1     -41.626  54.823 -52.049  1.00  0.00    -0.179 NA
HETATM    9  C   UNL     1     -42.282  57.505 -54.427  1.00  0.00     0.193 A 
HETATM   10  O   UNL     1     -42.155  57.732 -55.622  1.00  0.00    -0.287 OA
HETATM   11  C   UNL     1     -42.862  58.545 -53.525  1.00  0.00     0.086 A 
HETATM   12  H   UNL     1     -42.833  56.842 -50.735  1.00  0.00     0.167 HD
HETATM   13  H   UNL     1     -40.924  54.913 -51.314  1.00  0.00     0.155 HD
ENDROOT
BRANCH   1  14
HETATM   14  C   UNL     1     -43.541  59.274 -51.286  1.00  0.00    -0.009 A 
HETATM   15  C   UNL     1     -44.890  59.223 -50.912  1.00  0.00     0.014 A 
HETATM   16  C   UNL     1     -45.421  60.170 -50.032  1.00  0.00     0.007 A 
HETATM   17  C   UNL     1     -44.615  61.189 -49.514  1.00  0.00    -0.062 A 
HETATM   18  C   UNL     1     -45.175  62.192 -48.549  1.00  0.00     0.048 C 
HETATM   19  C   UNL     1     -43.262  61.230 -49.867  1.00  0.00     0.007 A 
HETATM   20  C   UNL     1     -42.731  60.283 -50.748  1.00  0.00     0.014 A 
ENDBRANCH   1  14
BRANCH   7  21
HETATM   21  C   UNL     1     -40.602  52.867 -53.121  1.00  0.00     0.055 A 
HETATM   22  C   UNL     1     -40.001  52.392 -51.945  1.00  0.00     0.034 A 
HETATM   23  C   UNL     1     -39.500  51.087 -51.869  1.00  0.00     0.044 A 
HETATM   24  C   UNL     1     -39.593  50.251 -52.972  1.00  0.00     0.116 A 
HETATM   25  F   UNL     1     -39.114  49.002 -52.901  1.00  0.00    -0.206 F 
HETATM   26  C   UNL     1     -40.176  50.695 -54.151  1.00  0.00     0.044 A 
HETATM   27  C   UNL     1     -40.676  51.999 -54.225  1.00  0.00     0.034 A 
ENDBRANCH   7  21
TORSDOF 2
ENDMDL
MODEL 7
REMARK VINA RESULT:      -8.1      5.094      9.122
REMARK  2 active torsions:
REMARK  status: ('A' for Active; 'I' for Inactive)
REMARK    1  A    between atoms: C_5  and  C_6 
REMARK    2  A    between atoms: N_12  and  C_13 
ROOT
HETATM    1  C   UNL     1     -41.279  54.969 -52.534  1.00  0.00     0.047 A 
HETATM    2  N   UNL     1     -41.758  55.783 -51.523  1.00  0.00    -0.344 N 
HETATM    3  C   UNL     1     -42.192  57.056 -51.772  1.00  0.00     0.119 A 
HETATM    4  C   UNL     1     -42.253  57.534 -53.026  1.00  0.00     0.123 A 
HETATM    5  C   UNL     1     -42.841  58.881 -52.945  1.00  0.00     0.280 A 
HETATM    6  O   UNL     1     -43.061  59.607 -53.898  1.00  0.00    -0.265 OA
HETATM    7  N   UNL     1     -43.080  59.097 -51.579  1.00  0.00    -0.236 N 
HETATM    8  N   UNL     1     -42.643  57.974 -50.842  1.00  0.00    -0.179 NA
HETATM    9  C   UNL     1     -41.828  56.711 -54.160  1.00  0.00     0.193 A 
HETATM   10  O   UNL     1     -41.880  57.076 -55.328  1.00  0.00    -0.287 OA
HETATM   11  C   UNL     1     -41.301  55.355 -53.824  1.00  0.00     0.086 A 
HETATM   12  H   UNL     1     -41.511  55.544 -50.568  1.00  0.00     0.167 HD
HETATM   13  H   UNL     1     -43.389  57.566 -50.277  1.00  0.00     0.155 HD
ENDROOT
BRANCH   1  14
HETATM   14  C   UNL     1     -40.759  53.641 -52.157  1.00  0.00    -0.009 A 
HETATM   15  C   UNL     1     -40.216  52.777 -53.117  1.00  0.00     0.014 A 
HETATM   16  C   UNL     1     -39.723  51.522 -52.747  1.00  0.00     0.007 A 
HETATM   17  C   UNL     1     -39.770  51.106 -51.413  1.00  0.00    -0.062 A 
HETATM   18  C   UNL     1     -39.218  49.771 -51.008  1.00  0.00     0.048 C 
HETATM   19  C   UNL     1     -40.291  51.975 -50.448  1.00  0.00     0.007 A 
HETATM   20  C   UNL     1     -40.785  53.229 -50.818  1.00  0.00     0.014 A 
ENDBRANCH   1  14
BRANCH   7  21
HETATM   21  C   UNL     1     -43.608  60.230 -50.922  1.00  0.00     0.055 A 
HETATM   22  C   UNL     1     -44.952  60.277 -50.522  1.00  0.00     0.034 A 
HETATM   23  C   UNL     1     -45.468  61.397 -49.860  1.00  0.00     0.044 A 
HETATM   24  C   UNL     1     -44.641  62.479 -49.598  1.00  0.00     0.116 A 
HETATM   25  F   UNL     1     -45.133  63.552 -48.964  1.00  0.00    -0.206 F 
HETATM   26  C   UNL     1     -43.309  62.464 -49.987  1.00  0.00     0.044 A 
HETATM   27  C   UNL     1     -42.796  61.344 -50.648  1.00  0.00     0.034 A 
ENDBRANCH   7  21
TORSDOF 2
ENDMDL
MODEL 8
REMARK VINA RESULT:      -7.9      3.670      8.631
REMARK  2 active torsions:
REMARK  status: ('A' for Active; 'I' for Inactive)
REMARK    1  A    between atoms: C_5  and  C_6 
REMARK    2  A    between atoms: N_12  and  C_13 
ROOT
HETATM    1  C   UNL     1     -41.990  54.811 -53.499  1.00  0.00     0.047 A 
HETATM    2  N   UNL     1     -41.668  56.004 -54.120  1.00  0.00    -0.344 N 
HETATM    3  C   UNL     1     -41.978  56.237 -55.433  1.00  0.00     0.119 A 
HETATM    4  C   UNL     1     -42.688  55.346 -56.145  1.00  0.00     0.123 A 
HETATM    5  C   UNL     1     -42.918  55.940 -57.471  1.00  0.00     0.280 A 
HETATM    6  O   UNL     1     -43.545  55.416 -58.374  1.00  0.00    -0.265 OA
HETATM    7  N   UNL     1     -42.283  57.191 -57.429  1.00  0.00    -0.236 N 
HETATM    8  N   UNL     1     -41.665  57.363 -56.171  1.00  0.00    -0.179 NA
HETATM    9  C   UNL     1     -43.127  54.086 -55.539  1.00  0.00     0.193 A 
HETATM   10  O   UNL     1     -43.796  53.244 -56.123  1.00  0.00    -0.287 OA
HETATM   11  C   UNL     1     -42.703  53.857 -54.125  1.00  0.00     0.086 A 
HETATM   12  H   UNL     1     -40.948  56.579 -53.694  1.00  0.00     0.167 HD
HETATM   13  H   UNL     1     -41.992  58.201 -55.689  1.00  0.00     0.155 HD
ENDROOT
BRANCH   1  14
HETATM   14  C   UNL     1     -41.545  54.622 -52.105  1.00  0.00    -0.009 A 
HETATM   15  C   UNL     1     -41.979  55.476 -51.084  1.00  0.00     0.014 A 
HETATM   16  C   UNL     1     -41.554  55.284 -49.766  1.00  0.00     0.007 A 
HETATM   17  C   UNL     1     -40.683  54.238 -49.446  1.00  0.00    -0.062 A 
HETATM   18  C   UNL     1     -40.245  54.012 -48.029  1.00  0.00     0.048 C 
HETATM   19  C   UNL     1     -40.264  53.369 -50.460  1.00  0.00     0.007 A 
HETATM   20  C   UNL     1     -40.689  53.562 -51.778  1.00  0.00     0.014 A 
ENDBRANCH   1  14
BRANCH   7  21
HETATM   21  C   UNL     1     -42.161  58.176 -58.433  1.00  0.00     0.055 A 
HETATM   22  C   UNL     1     -42.048  57.825 -59.787  1.00  0.00     0.034 A 
HETATM   23  C   UNL     1     -41.940  58.806 -60.779  1.00  0.00     0.044 A 
HETATM   24  C   UNL     1     -41.940  60.146 -60.421  1.00  0.00     0.116 A 
HETATM   25  F   UNL     1     -41.837  61.086 -61.369  1.00  0.00    -0.206 F 
HETATM   26  C   UNL     1     -42.043  60.524 -59.090  1.00  0.00     0.044 A 
HETATM   27  C   UNL     1     -42.151  59.542 -58.100  1.00  0.00     0.034 A 
ENDBRANCH   7  21
TORSDOF 2
ENDMDL
MODEL 9
REMARK VINA RESULT:      -7.9     15.574     18.163
REMARK  2 active torsions:
REMARK  status: ('A' for Active; 'I' for Inactive)
REMARK    1  A    between atoms: C_5  and  C_6 
REMARK    2  A    between atoms: N_12  and  C_13 
ROOT
HETATM    1  C   UNL     1     -35.589  40.321 -52.012  1.00  0.00     0.047 A 
HETATM    2  N   UNL     1     -35.257  40.101 -53.337  1.00  0.00    -0.344 N 
HETATM    3  C   UNL     1     -36.168  40.273 -54.343  1.00  0.00     0.119 A 
HETATM    4  C   UNL     1     -37.399  40.749 -54.089  1.00  0.00     0.123 A 
HETATM    5  C   UNL     1     -38.079  40.893 -55.386  1.00  0.00     0.280 A 
HETATM    6  O   UNL     1     -39.212  41.316 -55.539  1.00  0.00    -0.265 OA
HETATM    7  N   UNL     1     -37.148  40.458 -56.342  1.00  0.00    -0.236 N 
HETATM    8  N   UNL     1     -35.968  40.038 -55.691  1.00  0.00    -0.179 NA
HETATM    9  C   UNL     1     -37.806  41.071 -52.720  1.00  0.00     0.193 A 
HETATM   10  O   UNL     1     -38.902  41.529 -52.423  1.00  0.00    -0.287 OA
HETATM   11  C   UNL     1     -36.795  40.802 -51.655  1.00  0.00     0.086 A 
HETATM   12  H   UNL     1     -34.438  39.534 -53.530  1.00  0.00     0.167 HD
HETATM   13  H   UNL     1     -35.143  40.542 -56.018  1.00  0.00     0.155 HD
ENDROOT
BRANCH   1  14
HETATM   14  C   UNL     1     -34.564  40.034 -50.991  1.00  0.00    -0.009 A 
HETATM   15  C   UNL     1     -33.323  40.685 -51.008  1.00  0.00     0.014 A 
HETATM   16  C   UNL     1     -32.361  40.408 -50.032  1.00  0.00     0.007 A 
HETATM   17  C   UNL     1     -32.619  39.471 -49.026  1.00  0.00    -0.062 A 
HETATM   18  C   UNL     1     -31.599  39.191 -47.962  1.00  0.00     0.048 C 
HETATM   19  C   UNL     1     -33.865  38.836 -48.993  1.00  0.00     0.007 A 
HETATM   20  C   UNL     1     -34.826  39.112 -49.970  1.00  0.00     0.014 A 
ENDBRANCH   1  14
BRANCH   7  21
HETATM   21  C   UNL     1     -37.274  40.356 -57.744  1.00  0.00     0.055 A 
HETATM   22  C   UNL     1     -37.121  41.478 -58.572  1.00  0.00     0.034 A 
HETATM   23  C   UNL     1     -37.234  41.368 -59.963  1.00  0.00     0.044 A 
HETATM   24  C   UNL     1     -37.506  40.134 -60.533  1.00  0.00     0.116 A 
HETATM   25  F   UNL     1     -37.614  40.027 -61.864  1.00  0.00    -0.206 F 
HETATM   26  C   UNL     1     -37.669  39.007 -59.740  1.00  0.00     0.044 A 
HETATM   27  C   UNL     1     -37.555  39.119 -58.350  1.00  0.00     0.034 A 
ENDBRANCH   7  21
TORSDOF 2
ENDMDL
MODEL 10
REMARK VINA RESULT:      -7.8      4.823      8.744
REMARK  2 active torsions:
REMARK  status: ('A' for Active; 'I' for Inactive)
REMARK    1  A    between atoms: C_5  and  C_6 
REMARK    2  A    between atoms: N_12  and  C_13 
ROOT
HETATM    1  C   UNL     1     -41.157  54.961 -52.442  1.00  0.00     0.047 A 
HETATM    2  N   UNL     1     -41.739  55.757 -53.413  1.00  0.00    -0.344 N 
HETATM    3  C   UNL     1     -42.254  56.989 -53.116  1.00  0.00     0.119 A 
HETATM    4  C   UNL     1     -42.133  57.512 -51.885  1.00  0.00     0.123 A 
HETATM    5  C   UNL     1     -42.707  58.866 -51.934  1.00  0.00     0.280 A 
HETATM    6  O   UNL     1     -42.753  59.642 -50.996  1.00  0.00    -0.265 OA
HETATM    7  N   UNL     1     -43.150  59.031 -53.256  1.00  0.00    -0.236 N 
HETATM    8  N   UNL     1     -42.900  57.848 -53.986  1.00  0.00    -0.179 NA
HETATM    9  C   UNL     1     -41.469  56.761 -50.817  1.00  0.00     0.193 A 
HETATM   10  O   UNL     1     -41.304  57.188 -49.682  1.00  0.00    -0.287 OA
HETATM   11  C   UNL     1     -40.986  55.395 -51.180  1.00  0.00     0.086 A 
HETATM   12  H   UNL     1     -42.048  55.307 -54.269  1.00  0.00     0.167 HD
HETATM   13  H   UNL     1     -42.322  58.015 -54.810  1.00  0.00     0.155 HD
ENDROOT
BRANCH   1  14
HETATM   14  C   UNL     1     -40.702  53.616 -52.841  1.00  0.00    -0.009 A 
HETATM   15  C   UNL     1     -40.027  52.783 -51.939  1.00  0.00     0.014 A 
HETATM   16  C   UNL     1     -39.603  51.508 -52.327  1.00  0.00     0.007 A 
HETATM   17  C   UNL     1     -39.842  51.045 -53.625  1.00  0.00    -0.062 A 
HETATM   18  C   UNL     1     -39.413  49.668 -54.037  1.00  0.00     0.048 C 
HETATM   19  C   UNL     1     -40.535  51.865 -54.522  1.00  0.00     0.007 A 
HETATM   20  C   UNL     1     -40.957  53.140 -54.134  1.00  0.00     0.014 A 
ENDBRANCH   1  14
BRANCH   7  21
HETATM   21  C   UNL     1     -43.803  60.127 -53.860  1.00  0.00     0.055 A 
HETATM   22  C   UNL     1     -43.087  61.089 -54.588  1.00  0.00     0.034 A 
HETATM   23  C   UNL     1     -43.742  62.167 -55.195  1.00  0.00     0.044 A 
HETATM   24  C   UNL     1     -45.118  62.290 -55.075  1.00  0.00     0.116 A 
HETATM   25  F   UNL     1     -45.746  63.320 -55.655  1.00  0.00    -0.206 F 
HETATM   26  C   UNL     1     -45.852  61.357 -54.356  1.00  0.00     0.044 A 
HETATM   27  C   UNL     1     -45.196  60.281 -53.749  1.00  0.00     0.034 A 
ENDBRANCH   7  21
TORSDOF 2
ENDMDL
