MODEL 1
REMARK VINA RESULT:      -8.4      0.000      0.000
REMARK  3 active torsions:
REMARK  status: ('A' for Active; 'I' for Inactive)
REMARK    1  A    between atoms: C_10  and  C_11 
REMARK       I    between atoms: C_11  and  N_12 
REMARK    2  A    between atoms: C_14  and  O_15 
REMARK    3  A    between atoms: O_15  and  C_16 
ROOT
HETATM    1  C   UNL     1     -43.410  57.644 -54.742  1.00  0.00     0.255 C 
HETATM    2  N   UNL     1     -42.462  57.128 -53.876  1.00  0.00    -0.345 N 
HETATM    3  C   UNL     1     -41.306  56.300 -54.215  1.00  0.00     0.158 C 
HETATM    4  C   UNL     1     -40.936  55.568 -52.916  1.00  0.00     0.148 C 
HETATM    5  C   UNL     1     -41.452  56.522 -51.838  1.00  0.00     0.054 C 
HETATM    6  C   UNL     1     -42.732  57.071 -52.452  1.00  0.00     0.129 C 
HETATM    7  O   UNL     1     -44.479  58.114 -54.361  1.00  0.00    -0.267 OA
ENDROOT
BRANCH   1   8
HETATM    8  C   UNL     1     -43.148  57.604 -56.193  1.00  0.00     0.050 A 
HETATM    9  C   UNL     1     -42.393  58.631 -56.756  1.00  0.00     0.136 A 
HETATM   10  N   UNL     1     -42.077  58.750 -58.072  1.00  0.00    -0.240 NA
HETATM   11  C   UNL     1     -42.563  57.733 -58.811  1.00  0.00     0.155 A 
HETATM   12  N   UNL     1     -42.417  57.570 -60.156  1.00  0.00    -0.260 N 
HETATM   13  C   UNL     1     -43.298  56.642 -58.373  1.00  0.00     0.038 A 
HETATM   14  N   UNL     1     -43.012  56.459 -60.639  1.00  0.00    -0.177 NA
HETATM   15  H   UNL     1     -41.926  58.186 -60.791  1.00  0.00     0.191 HD
HETATM   16  C   UNL     1     -43.545  55.885 -59.550  1.00  0.00     0.065 A 
HETATM   17  C   UNL     1     -44.302  54.615 -59.666  1.00  0.00     0.073 C 
HETATM   18  C   UNL     1     -43.594  56.554 -57.004  1.00  0.00     0.036 A 
ENDBRANCH   1   8
BRANCH   4  19
HETATM   19  O   UNL     1     -41.655  54.331 -52.882  1.00  0.00    -0.344 OA
BRANCH  19  20
HETATM   20  C   UNL     1     -40.948  53.168 -52.762  1.00  0.00     0.070 A 
HETATM   21  C   UNL     1     -40.665  52.264 -53.785  1.00  0.00     0.060 A 
HETATM   22  C   UNL     1     -39.933  51.109 -53.505  1.00  0.00     0.036 A 
HETATM   23 CL   UNL     1     -39.598  49.988 -54.769  1.00  0.00    -0.084 Cl
HETATM   24  C   UNL     1     -39.469  50.851 -52.217  1.00  0.00     0.024 A 
HETATM   25  C   UNL     1     -39.736  51.759 -51.196  1.00  0.00     0.004 A 
HETATM   26  C   UNL     1     -40.471  52.913 -51.472  1.00  0.00     0.037 A 
ENDBRANCH  19  20
ENDBRANCH   4  19
TORSDOF 3
ENDMDL
MODEL 2
REMARK VINA RESULT:      -7.9      1.115      2.025
REMARK  3 active torsions:
REMARK  status: ('A' for Active; 'I' for Inactive)
REMARK    1  A    between atoms: C_10  and  C_11 
REMARK       I    between atoms: C_11  and  N_12 
REMARK    2  A    between atoms: C_14  and  O_15 
REMARK    3  A    between atoms: O_15  and  C_16 
ROOT
HETATM    1  C   UNL     1     -43.733  57.612 -55.295  1.00  0.00     0.255 C 
HETATM    2  N   UNL     1     -42.844  57.178 -54.329  1.00  0.00    -0.345 N 
HETATM    3  C   UNL     1     -41.562  56.507 -54.537  1.00  0.00     0.158 C 
HETATM    4  C   UNL     1     -41.269  55.771 -53.221  1.00  0.00     0.148 C 
HETATM    5  C   UNL     1     -42.029  56.612 -52.194  1.00  0.00     0.054 C 
HETATM    6  C   UNL     1     -43.281  57.030 -52.952  1.00  0.00     0.129 C 
HETATM    7  O   UNL     1     -44.891  57.936 -55.043  1.00  0.00    -0.267 OA
ENDROOT
BRANCH   1   8
HETATM    8  C   UNL     1     -43.290  57.663 -56.701  1.00  0.00     0.050 A 
HETATM    9  C   UNL     1     -43.295  56.481 -57.438  1.00  0.00     0.136 A 
HETATM   10  N   UNL     1     -42.903  56.355 -58.733  1.00  0.00    -0.240 NA
HETATM   11  C   UNL     1     -42.512  57.528 -59.268  1.00  0.00     0.155 A 
HETATM   12  N   UNL     1     -42.065  57.728 -60.540  1.00  0.00    -0.260 N 
HETATM   13  C   UNL     1     -42.487  58.772 -58.657  1.00  0.00     0.038 A 
HETATM   14  N   UNL     1     -41.735  59.009 -60.808  1.00  0.00    -0.177 NA
HETATM   15  H   UNL     1     -41.961  57.028 -61.262  1.00  0.00     0.191 HD
HETATM   16  C   UNL     1     -42.000  59.652 -59.661  1.00  0.00     0.065 A 
HETATM   17  C   UNL     1     -41.762  61.112 -59.547  1.00  0.00     0.073 C 
HETATM   18  C   UNL     1     -42.909  58.859 -57.321  1.00  0.00     0.036 A 
ENDBRANCH   1   8
BRANCH   4  19
HETATM   19  O   UNL     1     -41.829  54.457 -53.312  1.00  0.00    -0.344 OA
BRANCH  19  20
HETATM   20  C   UNL     1     -41.025  53.386 -53.041  1.00  0.00     0.070 A 
HETATM   21  C   UNL     1     -40.722  52.341 -53.912  1.00  0.00     0.060 A 
HETATM   22  C   UNL     1     -39.886  51.306 -53.487  1.00  0.00     0.036 A 
HETATM   23 CL   UNL     1     -39.524  50.010 -54.562  1.00  0.00    -0.084 Cl
HETATM   24  C   UNL     1     -39.341  51.308 -52.205  1.00  0.00     0.024 A 
HETATM   25  C   UNL     1     -39.630  52.358 -51.337  1.00  0.00     0.004 A 
HETATM   26  C   UNL     1     -40.467  53.392 -51.758  1.00  0.00     0.037 A 
ENDBRANCH  19  20
ENDBRANCH   4  19
TORSDOF 3
ENDMDL
MODEL 3
REMARK VINA RESULT:      -7.9      3.236      7.360
REMARK  3 active torsions:
REMARK  status: ('A' for Active; 'I' for Inactive)
REMARK    1  A    between atoms: C_10  and  C_11 
REMARK       I    between atoms: C_11  and  N_12 
REMARK    2  A    between atoms: C_14  and  O_15 
REMARK    3  A    between atoms: O_15  and  C_16 
ROOT
HETATM    1  C   UNL     1     -41.321  55.070 -52.484  1.00  0.00     0.255 C 
HETATM    2  N   UNL     1     -42.382  55.634 -53.168  1.00  0.00    -0.345 N 
HETATM    3  C   UNL     1     -42.933  55.214 -54.456  1.00  0.00     0.158 C 
HETATM    4  C   UNL     1     -43.671  56.445 -55.004  1.00  0.00     0.148 C 
HETATM    5  C   UNL     1     -44.046  57.202 -53.729  1.00  0.00     0.054 C 
HETATM    6  C   UNL     1     -42.845  56.965 -52.824  1.00  0.00     0.129 C 
HETATM    7  O   UNL     1     -40.762  55.625 -51.541  1.00  0.00    -0.267 OA
ENDROOT
BRANCH   1   8
HETATM    8  C   UNL     1     -40.810  53.755 -52.916  1.00  0.00     0.050 A 
HETATM    9  C   UNL     1     -40.569  53.555 -54.273  1.00  0.00     0.136 A 
HETATM   10  N   UNL     1     -40.116  52.403 -54.835  1.00  0.00    -0.240 NA
HETATM   11  C   UNL     1     -39.893  51.439 -53.920  1.00  0.00     0.155 A 
HETATM   12  N   UNL     1     -39.440  50.177 -54.168  1.00  0.00    -0.260 N 
HETATM   13  C   UNL     1     -40.063  51.518 -52.546  1.00  0.00     0.038 A 
HETATM   14  N   UNL     1     -39.312  49.416 -53.061  1.00  0.00    -0.177 NA
HETATM   15  H   UNL     1     -39.208  49.785 -55.071  1.00  0.00     0.191 HD
HETATM   16  C   UNL     1     -39.684  50.235 -52.066  1.00  0.00     0.065 A 
HETATM   17  C   UNL     1     -39.683  49.758 -50.662  1.00  0.00     0.073 C 
HETATM   18  C   UNL     1     -40.524  52.730 -52.008  1.00  0.00     0.036 A 
ENDBRANCH   1   8
BRANCH   4  19
HETATM   19  O   UNL     1     -42.746  57.205 -55.789  1.00  0.00    -0.344 OA
BRANCH  19  20
HETATM   20  C   UNL     1     -42.765  57.054 -57.146  1.00  0.00     0.070 A 
HETATM   21  C   UNL     1     -43.398  56.034 -57.854  1.00  0.00     0.060 A 
HETATM   22  C   UNL     1     -43.323  56.009 -59.248  1.00  0.00     0.036 A 
HETATM   23 CL   UNL     1     -44.095  54.739 -60.119  1.00  0.00    -0.084 Cl
HETATM   24  C   UNL     1     -42.632  56.998 -59.945  1.00  0.00     0.024 A 
HETATM   25  C   UNL     1     -42.011  58.027 -59.242  1.00  0.00     0.004 A 
HETATM   26  C   UNL     1     -42.082  58.053 -57.848  1.00  0.00     0.037 A 
ENDBRANCH  19  20
ENDBRANCH   4  19
TORSDOF 3
ENDMDL
MODEL 4
REMARK VINA RESULT:      -7.9      2.719      5.724
REMARK  3 active torsions:
REMARK  status: ('A' for Active; 'I' for Inactive)
REMARK    1  A    between atoms: C_10  and  C_11 
REMARK       I    between atoms: C_11  and  N_12 
REMARK    2  A    between atoms: C_14  and  O_15 
REMARK    3  A    between atoms: O_15  and  C_16 
ROOT
HETATM    1  C   UNL     1     -42.340  57.974 -55.189  1.00  0.00     0.255 C 
HETATM    2  N   UNL     1     -42.695  56.654 -55.398  1.00  0.00    -0.345 N 
HETATM    3  C   UNL     1     -42.803  55.593 -54.398  1.00  0.00     0.158 C 
HETATM    4  C   UNL     1     -42.671  54.279 -55.183  1.00  0.00     0.148 C 
HETATM    5  C   UNL     1     -43.174  54.671 -56.573  1.00  0.00     0.054 C 
HETATM    6  C   UNL     1     -42.656  56.093 -56.736  1.00  0.00     0.129 C 
HETATM    7  O   UNL     1     -42.031  58.737 -56.101  1.00  0.00    -0.267 OA
ENDROOT
BRANCH   1   8
HETATM    8  C   UNL     1     -42.298  58.492 -53.809  1.00  0.00     0.050 A 
HETATM    9  C   UNL     1     -43.502  58.819 -53.190  1.00  0.00     0.136 A 
HETATM   10  N   UNL     1     -43.635  59.321 -51.934  1.00  0.00    -0.240 NA
HETATM   11  C   UNL     1     -42.450  59.460 -51.308  1.00  0.00     0.155 A 
HETATM   12  N   UNL     1     -42.252  59.937 -50.046  1.00  0.00    -0.260 N 
HETATM   13  C   UNL     1     -41.191  59.146 -51.797  1.00  0.00     0.038 A 
HETATM   14  N   UNL     1     -40.956  59.971 -49.673  1.00  0.00    -0.177 NA
HETATM   15  H   UNL     1     -42.964  60.254 -49.401  1.00  0.00     0.191 HD
HETATM   16  C   UNL     1     -40.305  59.481 -50.738  1.00  0.00     0.065 A 
HETATM   17  C   UNL     1     -38.827  59.358 -50.721  1.00  0.00     0.073 C 
HETATM   18  C   UNL     1     -41.100  58.621 -53.096  1.00  0.00     0.036 A 
ENDBRANCH   1   8
BRANCH   4  19
HETATM   19  O   UNL     1     -41.285  53.925 -55.229  1.00  0.00    -0.344 OA
BRANCH  19  20
HETATM   20  C   UNL     1     -40.745  53.266 -54.160  1.00  0.00     0.070 A 
HETATM   21  C   UNL     1     -40.621  53.762 -52.863  1.00  0.00     0.060 A 
HETATM   22  C   UNL     1     -40.037  52.969 -51.873  1.00  0.00     0.036 A 
HETATM   23 CL   UNL     1     -39.873  53.589 -50.274  1.00  0.00    -0.084 Cl
HETATM   24  C   UNL     1     -39.586  51.682 -52.160  1.00  0.00     0.024 A 
HETATM   25  C   UNL     1     -39.722  51.179 -53.451  1.00  0.00     0.004 A 
HETATM   26  C   UNL     1     -40.303  51.970 -54.444  1.00  0.00     0.037 A 
ENDBRANCH  19  20
ENDBRANCH   4  19
TORSDOF 3
ENDMDL
MODEL 5
REMARK VINA RESULT:      -7.8      3.323      7.476
REMARK  3 active torsions:
REMARK  status: ('A' for Active; 'I' for Inactive)
REMARK    1  A    between atoms: C_10  and  C_11 
REMARK       I    between atoms: C_11  and  N_12 
REMARK    2  A    between atoms: C_14  and  O_15 
REMARK    3  A    between atoms: O_15  and  C_16 
ROOT
HETATM    1  C   UNL     1     -41.399  56.021 -51.519  1.00  0.00     0.255 C 
HETATM    2  N   UNL     1     -42.346  56.284 -52.493  1.00  0.00    -0.345 N 
HETATM    3  C   UNL     1     -42.831  55.376 -53.530  1.00  0.00     0.158 C 
HETATM    4  C   UNL     1     -43.404  56.283 -54.630  1.00  0.00     0.148 C 
HETATM    5  C   UNL     1     -43.806  57.536 -53.850  1.00  0.00     0.054 C 
HETATM    6  C   UNL     1     -42.707  57.655 -52.804  1.00  0.00     0.129 C 
HETATM    7  O   UNL     1     -40.866  56.900 -50.848  1.00  0.00    -0.267 OA
ENDROOT
BRANCH   1   8
HETATM    8  C   UNL     1     -40.982  54.625 -51.289  1.00  0.00     0.050 A 
HETATM    9  C   UNL     1     -40.994  54.139 -49.983  1.00  0.00     0.136 A 
HETATM   10  N   UNL     1     -40.626  52.888 -49.601  1.00  0.00    -0.240 NA
HETATM   11  C   UNL     1     -40.252  52.122 -50.645  1.00  0.00     0.155 A 
HETATM   12  N   UNL     1     -39.830  50.827 -50.587  1.00  0.00    -0.260 N 
HETATM   13  C   UNL     1     -40.223  52.471 -51.986  1.00  0.00     0.038 A 
HETATM   14  N   UNL     1     -39.513  50.302 -51.789  1.00  0.00    -0.177 NA
HETATM   15  H   UNL     1     -39.736  50.257 -49.757  1.00  0.00     0.191 HD
HETATM   16  C   UNL     1     -39.760  51.302 -52.648  1.00  0.00     0.065 A 
HETATM   17  C   UNL     1     -39.529  51.116 -54.102  1.00  0.00     0.073 C 
HETATM   18  C   UNL     1     -40.621  53.771 -52.337  1.00  0.00     0.036 A 
ENDBRANCH   1   8
BRANCH   4  19
HETATM   19  O   UNL     1     -42.353  56.579 -55.555  1.00  0.00    -0.344 OA
BRANCH  19  20
HETATM   20  C   UNL     1     -42.644  56.588 -56.890  1.00  0.00     0.070 A 
HETATM   21  C   UNL     1     -43.281  55.574 -57.603  1.00  0.00     0.060 A 
HETATM   22  C   UNL     1     -43.503  55.726 -58.973  1.00  0.00     0.036 A 
HETATM   23 CL   UNL     1     -44.278  54.464 -59.854  1.00  0.00    -0.084 Cl
HETATM   24  C   UNL     1     -43.106  56.884 -59.639  1.00  0.00     0.024 A 
HETATM   25  C   UNL     1     -42.483  57.906 -58.926  1.00  0.00     0.004 A 
HETATM   26  C   UNL     1     -42.257  57.756 -57.557  1.00  0.00     0.037 A 
ENDBRANCH  19  20
ENDBRANCH   4  19
TORSDOF 3
ENDMDL
MODEL 6
REMARK VINA RESULT:      -7.8      2.930      5.656
REMARK  3 active torsions:
REMARK  status: ('A' for Active; 'I' for Inactive)
REMARK    1  A    between atoms: C_10  and  C_11 
REMARK       I    between atoms: C_11  and  N_12 
REMARK    2  A    between atoms: C_14  and  O_15 
REMARK    3  A    between atoms: O_15  and  C_16 
ROOT
HETATM    1  C   UNL     1     -42.188  58.748 -54.587  1.00  0.00     0.255 C 
HETATM    2  N   UNL     1     -42.402  57.400 -54.810  1.00  0.00    -0.345 N 
HETATM    3  C   UNL     1     -42.606  56.354 -53.809  1.00  0.00     0.158 C 
HETATM    4  C   UNL     1     -42.240  55.039 -54.514  1.00  0.00     0.148 C 
HETATM    5  C   UNL     1     -42.516  55.362 -55.983  1.00  0.00     0.054 C 
HETATM    6  C   UNL     1     -42.085  56.818 -56.101  1.00  0.00     0.129 C 
HETATM    7  O   UNL     1     -41.780  59.514 -55.455  1.00  0.00    -0.267 OA
ENDROOT
BRANCH   1   8
HETATM    8  C   UNL     1     -42.430  59.295 -53.238  1.00  0.00     0.050 A 
HETATM    9  C   UNL     1     -41.354  59.380 -52.357  1.00  0.00     0.136 A 
HETATM   10  N   UNL     1     -41.411  59.842 -51.080  1.00  0.00    -0.240 NA
HETATM   11  C   UNL     1     -42.650  60.246 -50.736  1.00  0.00     0.155 A 
HETATM   12  N   UNL     1     -43.028  60.754 -49.529  1.00  0.00    -0.260 N 
HETATM   13  C   UNL     1     -43.792  60.242 -51.521  1.00  0.00     0.038 A 
HETATM   14  N   UNL     1     -44.337  61.074 -49.457  1.00  0.00    -0.177 NA
HETATM   15  H   UNL     1     -42.436  60.900 -48.721  1.00  0.00     0.191 HD
HETATM   16  C   UNL     1     -44.806  60.769 -50.676  1.00  0.00     0.065 A 
HETATM   17  C   UNL     1     -46.238  60.980 -51.003  1.00  0.00     0.073 C 
HETATM   18  C   UNL     1     -43.686  59.765 -52.837  1.00  0.00     0.036 A 
ENDBRANCH   1   8
BRANCH   4  19
HETATM   19  O   UNL     1     -40.845  54.795 -54.304  1.00  0.00    -0.344 OA
BRANCH  19  20
HETATM   20  C   UNL     1     -40.473  53.634 -53.687  1.00  0.00     0.070 A 
HETATM   21  C   UNL     1     -40.136  52.437 -54.316  1.00  0.00     0.060 A 
HETATM   22  C   UNL     1     -39.781  51.327 -53.547  1.00  0.00     0.036 A 
HETATM   23 CL   UNL     1     -39.378  49.845 -54.327  1.00  0.00    -0.084 Cl
HETATM   24  C   UNL     1     -39.748  51.402 -52.156  1.00  0.00     0.024 A 
HETATM   25  C   UNL     1     -40.070  52.601 -51.525  1.00  0.00     0.004 A 
HETATM   26  C   UNL     1     -40.428  53.711 -52.291  1.00  0.00     0.037 A 
ENDBRANCH  19  20
ENDBRANCH   4  19
TORSDOF 3
ENDMDL
MODEL 7
REMARK VINA RESULT:      -7.8      3.988      6.912
REMARK  3 active torsions:
REMARK  status: ('A' for Active; 'I' for Inactive)
REMARK    1  A    between atoms: C_10  and  C_11 
REMARK       I    between atoms: C_11  and  N_12 
REMARK    2  A    between atoms: C_14  and  O_15 
REMARK    3  A    between atoms: O_15  and  C_16 
ROOT
HETATM    1  C   UNL     1     -41.216  57.220 -50.682  1.00  0.00     0.255 C 
HETATM    2  N   UNL     1     -42.444  57.640 -51.158  1.00  0.00    -0.345 N 
HETATM    3  C   UNL     1     -43.542  56.805 -51.643  1.00  0.00     0.158 C 
HETATM    4  C   UNL     1     -44.389  57.726 -52.535  1.00  0.00     0.148 C 
HETATM    5  C   UNL     1     -44.104  59.109 -51.950  1.00  0.00     0.054 C 
HETATM    6  C   UNL     1     -42.635  59.021 -51.562  1.00  0.00     0.129 C 
HETATM    7  O   UNL     1     -40.262  57.978 -50.530  1.00  0.00    -0.267 OA
ENDROOT
BRANCH   1   8
HETATM    8  C   UNL     1     -41.023  55.792 -50.368  1.00  0.00     0.050 A 
HETATM    9  C   UNL     1     -41.233  55.370 -49.057  1.00  0.00     0.136 A 
HETATM   10  N   UNL     1     -41.082  54.098 -48.601  1.00  0.00    -0.240 NA
HETATM   11  C   UNL     1     -40.716  53.243 -49.576  1.00  0.00     0.155 A 
HETATM   12  N   UNL     1     -40.486  51.907 -49.436  1.00  0.00    -0.260 N 
HETATM   13  C   UNL     1     -40.505  53.526 -50.917  1.00  0.00     0.038 A 
HETATM   14  N   UNL     1     -40.127  51.292 -50.582  1.00  0.00    -0.177 NA
HETATM   15  H   UNL     1     -40.556  51.367 -48.583  1.00  0.00     0.191 HD
HETATM   16  C   UNL     1     -40.144  52.277 -51.491  1.00  0.00     0.065 A 
HETATM   17  C   UNL     1     -39.797  51.999 -52.906  1.00  0.00     0.073 C 
HETATM   18  C   UNL     1     -40.680  54.851 -51.346  1.00  0.00     0.036 A 
ENDBRANCH   1   8
BRANCH   4  19
HETATM   19  O   UNL     1     -43.891  57.630 -53.874  1.00  0.00    -0.344 OA
BRANCH  19  20
HETATM   20  C   UNL     1     -43.286  56.469 -54.263  1.00  0.00     0.070 A 
HETATM   21  C   UNL     1     -41.918  56.271 -54.444  1.00  0.00     0.060 A 
HETATM   22  C   UNL     1     -41.448  55.022 -54.854  1.00  0.00     0.036 A 
HETATM   23 CL   UNL     1     -39.757  54.786 -55.090  1.00  0.00    -0.084 Cl
HETATM   24  C   UNL     1     -42.326  53.964 -55.075  1.00  0.00     0.024 A 
HETATM   25  C   UNL     1     -43.692  54.154 -54.880  1.00  0.00     0.004 A 
HETATM   26  C   UNL     1     -44.166  55.402 -54.473  1.00  0.00     0.037 A 
ENDBRANCH  19  20
ENDBRANCH   4  19
TORSDOF 3
ENDMDL
MODEL 8
REMARK VINA RESULT:      -7.7      3.461      7.253
REMARK  3 active torsions:
REMARK  status: ('A' for Active; 'I' for Inactive)
REMARK    1  A    between atoms: C_10  and  C_11 
REMARK       I    between atoms: C_11  and  N_12 
REMARK    2  A    between atoms: C_14  and  O_15 
REMARK    3  A    between atoms: O_15  and  C_16 
ROOT
HETATM    1  C   UNL     1     -41.427  58.449 -53.848  1.00  0.00     0.255 C 
HETATM    2  N   UNL     1     -42.533  58.667 -54.649  1.00  0.00    -0.345 N 
HETATM    3  C   UNL     1     -43.531  57.686 -55.074  1.00  0.00     0.158 C 
HETATM    4  C   UNL     1     -44.173  58.280 -56.336  1.00  0.00     0.148 C 
HETATM    5  C   UNL     1     -43.983  59.783 -56.130  1.00  0.00     0.054 C 
HETATM    6  C   UNL     1     -42.619  59.867 -55.461  1.00  0.00     0.129 C 
HETATM    7  O   UNL     1     -40.508  59.256 -53.742  1.00  0.00    -0.267 OA
ENDROOT
BRANCH   1   8
HETATM    8  C   UNL     1     -41.323  57.178 -53.106  1.00  0.00     0.050 A 
HETATM    9  C   UNL     1     -41.599  57.186 -51.740  1.00  0.00     0.136 A 
HETATM   10  N   UNL     1     -41.533  56.110 -50.913  1.00  0.00    -0.240 NA
HETATM   11  C   UNL     1     -41.182  54.984 -51.564  1.00  0.00     0.155 A 
HETATM   12  N   UNL     1     -41.030  53.745 -51.014  1.00  0.00    -0.260 N 
HETATM   13  C   UNL     1     -40.911  54.834 -52.916  1.00  0.00     0.038 A 
HETATM   14  N   UNL     1     -40.667  52.795 -51.900  1.00  0.00    -0.177 NA
HETATM   15  H   UNL     1     -41.158  53.496 -50.042  1.00  0.00     0.191 HD
HETATM   16  C   UNL     1     -40.601  53.455 -53.066  1.00  0.00     0.065 A 
HETATM   17  C   UNL     1     -40.222  52.743 -54.310  1.00  0.00     0.073 C 
HETATM   18  C   UNL     1     -41.000  55.970 -53.735  1.00  0.00     0.036 A 
ENDBRANCH   1   8
BRANCH   4  19
HETATM   19  O   UNL     1     -43.427  57.827 -57.471  1.00  0.00    -0.344 OA
BRANCH  19  20
HETATM   20  C   UNL     1     -44.042  57.000 -58.368  1.00  0.00     0.070 A 
HETATM   21  C   UNL     1     -45.267  57.227 -58.995  1.00  0.00     0.060 A 
HETATM   22  C   UNL     1     -45.773  56.281 -59.887  1.00  0.00     0.036 A 
HETATM   23 CL   UNL     1     -47.292  56.559 -60.650  1.00  0.00    -0.084 Cl
HETATM   24  C   UNL     1     -45.066  55.113 -60.170  1.00  0.00     0.024 A 
HETATM   25  C   UNL     1     -43.836  54.890 -59.556  1.00  0.00     0.004 A 
HETATM   26  C   UNL     1     -43.329  55.833 -58.662  1.00  0.00     0.037 A 
ENDBRANCH  19  20
ENDBRANCH   4  19
TORSDOF 3
ENDMDL
MODEL 9
REMARK VINA RESULT:      -7.6      2.153      2.649
REMARK  3 active torsions:
REMARK  status: ('A' for Active; 'I' for Inactive)
REMARK    1  A    between atoms: C_10  and  C_11 
REMARK       I    between atoms: C_11  and  N_12 
REMARK    2  A    between atoms: C_14  and  O_15 
REMARK    3  A    between atoms: O_15  and  C_16 
ROOT
HETATM    1  C   UNL     1     -43.508  59.106 -55.215  1.00  0.00     0.255 C 
HETATM    2  N   UNL     1     -42.724  58.897 -54.095  1.00  0.00    -0.345 N 
HETATM    3  C   UNL     1     -41.540  58.047 -53.986  1.00  0.00     0.158 C 
HETATM    4  C   UNL     1     -41.400  57.736 -52.488  1.00  0.00     0.148 C 
HETATM    5  C   UNL     1     -42.074  58.942 -51.833  1.00  0.00     0.054 C 
HETATM    6  C   UNL     1     -43.228  59.245 -52.779  1.00  0.00     0.129 C 
HETATM    7  O   UNL     1     -44.619  59.629 -55.167  1.00  0.00    -0.267 OA
ENDROOT
BRANCH   1   8
HETATM    8  C   UNL     1     -43.010  58.658 -56.529  1.00  0.00     0.050 A 
HETATM    9  C   UNL     1     -42.059  59.443 -57.178  1.00  0.00     0.136 A 
HETATM   10  N   UNL     1     -41.513  59.181 -58.394  1.00  0.00    -0.240 NA
HETATM   11  C   UNL     1     -41.978  58.035 -58.929  1.00  0.00     0.155 A 
HETATM   12  N   UNL     1     -41.626  57.503 -60.134  1.00  0.00    -0.260 N 
HETATM   13  C   UNL     1     -42.895  57.153 -58.379  1.00  0.00     0.038 A 
HETATM   14  N   UNL     1     -42.252  56.344 -60.424  1.00  0.00    -0.177 NA
HETATM   15  H   UNL     1     -40.968  57.891 -60.797  1.00  0.00     0.191 HD
HETATM   16  C   UNL     1     -43.024  56.122 -59.349  1.00  0.00     0.065 A 
HETATM   17  C   UNL     1     -43.889  54.919 -59.283  1.00  0.00     0.073 C 
HETATM   18  C   UNL     1     -43.428  57.458 -57.117  1.00  0.00     0.036 A 
ENDBRANCH   1   8
BRANCH   4  19
HETATM   19  O   UNL     1     -42.132  56.537 -52.213  1.00  0.00    -0.344 OA
BRANCH  19  20
HETATM   20  C   UNL     1     -41.490  55.512 -51.578  1.00  0.00     0.070 A 
HETATM   21  C   UNL     1     -41.287  55.390 -50.204  1.00  0.00     0.060 A 
HETATM   22  C   UNL     1     -40.601  54.282 -49.702  1.00  0.00     0.036 A 
HETATM   23 CL   UNL     1     -40.341  54.141 -48.005  1.00  0.00    -0.084 Cl
HETATM   24  C   UNL     1     -40.124  53.288 -50.554  1.00  0.00     0.024 A 
HETATM   25  C   UNL     1     -40.338  53.400 -51.926  1.00  0.00     0.004 A 
HETATM   26  C   UNL     1     -41.021  54.507 -52.431  1.00  0.00     0.037 A 
ENDBRANCH  19  20
ENDBRANCH   4  19
TORSDOF 3
ENDMDL
MODEL 10
REMARK VINA RESULT:      -7.4      3.314      6.700
REMARK  3 active torsions:
REMARK  status: ('A' for Active; 'I' for Inactive)
REMARK    1  A    between atoms: C_10  and  C_11 
REMARK       I    between atoms: C_11  and  N_12 
REMARK    2  A    between atoms: C_14  and  O_15 
REMARK    3  A    between atoms: O_15  and  C_16 
ROOT
HETATM    1  C   UNL     1     -43.269  55.034 -54.460  1.00  0.00     0.255 C 
HETATM    2  N   UNL     1     -42.881  56.195 -55.105  1.00  0.00    -0.345 N 
HETATM    3  C   UNL     1     -41.643  56.948 -54.914  1.00  0.00     0.158 C 
HETATM    4  C   UNL     1     -41.949  58.368 -55.413  1.00  0.00     0.148 C 
HETATM    5  C   UNL     1     -43.059  58.128 -56.438  1.00  0.00     0.054 C 
HETATM    6  C   UNL     1     -43.863  56.997 -55.812  1.00  0.00     0.129 C 
HETATM    7  O   UNL     1     -44.418  54.603 -54.491  1.00  0.00    -0.267 OA
ENDROOT
BRANCH   1   8
HETATM    8  C   UNL     1     -42.269  54.289 -53.672  1.00  0.00     0.050 A 
HETATM    9  C   UNL     1     -41.956  54.752 -52.396  1.00  0.00     0.136 A 
HETATM   10  N   UNL     1     -41.050  54.193 -51.552  1.00  0.00    -0.240 NA
HETATM   11  C   UNL     1     -40.473  53.093 -52.074  1.00  0.00     0.155 A 
HETATM   12  N   UNL     1     -39.527  52.314 -51.475  1.00  0.00    -0.260 N 
HETATM   13  C   UNL     1     -40.715  52.513 -53.310  1.00  0.00     0.038 A 
HETATM   14  N   UNL     1     -39.120  51.273 -52.230  1.00  0.00    -0.177 NA
HETATM   15  H   UNL     1     -39.124  52.449 -50.558  1.00  0.00     0.191 HD
HETATM   16  C   UNL     1     -39.849  51.386 -53.350  1.00  0.00     0.065 A 
HETATM   17  C   UNL     1     -39.688  50.409 -54.453  1.00  0.00     0.073 C 
HETATM   18  C   UNL     1     -41.665  53.119 -54.146  1.00  0.00     0.036 A 
ENDBRANCH   1   8
BRANCH   4  19
HETATM   19  O   UNL     1     -42.439  59.133 -54.307  1.00  0.00    -0.344 OA
BRANCH  19  20
HETATM   20  C   UNL     1     -41.895  58.915 -53.073  1.00  0.00     0.070 A 
HETATM   21  C   UNL     1     -40.598  59.232 -52.674  1.00  0.00     0.060 A 
HETATM   22  C   UNL     1     -40.182  58.939 -51.374  1.00  0.00     0.036 A 
HETATM   23 CL   UNL     1     -38.573  59.320 -50.890  1.00  0.00    -0.084 Cl
HETATM   24  C   UNL     1     -41.051  58.344 -50.462  1.00  0.00     0.024 A 
HETATM   25  C   UNL     1     -42.353  58.040 -50.852  1.00  0.00     0.004 A 
HETATM   26  C   UNL     1     -42.770  58.329 -52.152  1.00  0.00     0.037 A 
ENDBRANCH  19  20
ENDBRANCH   4  19
TORSDOF 3
ENDMDL
