MODEL 1
REMARK VINA RESULT:      -9.0      0.000      0.000
REMARK  6 active torsions:
REMARK  status: ('A' for Active; 'I' for Inactive)
REMARK    1  A    between atoms: O_2  and  C_3 
REMARK    2  A    between atoms: C_6  and  C_7 
REMARK    3  A    between atoms: C_13  and  C_14 
REMARK       I    between atoms: C_14  and  N_15 
REMARK    4  A    between atoms: N_15  and  C_16 
REMARK    5  A    between atoms: C_18  and  O_19 
REMARK    6  A    between atoms: C_24  and  C_25 
ROOT
HETATM    1  C   UNL     1     -43.000  54.969 -52.282  1.00  0.00     0.118 C 
HETATM    2  N   UNL     1     -43.551  55.668 -53.461  1.00  0.00    -0.365 N 
HETATM    3  C   UNL     1     -42.905  56.772 -53.942  1.00  0.00     0.138 A 
HETATM    4  N   UNL     1     -41.880  57.362 -53.233  1.00  0.00    -0.240 N 
HETATM    5  N   UNL     1     -41.308  58.392 -53.869  1.00  0.00    -0.181 NA
HETATM    6  C   UNL     1     -42.046  58.523 -54.973  1.00  0.00     0.160 A 
HETATM    7  C   UNL     1     -43.062  57.541 -55.082  1.00  0.00     0.096 A 
HETATM    8  C   UNL     1     -41.436  56.928 -51.920  1.00  0.00     0.221 C 
HETATM    9  C   UNL     1     -42.514  56.030 -51.281  1.00  0.00     0.066 C 
HETATM   10  H   UNL     1     -44.574  55.698 -53.443  1.00  0.00     0.161 HD
ENDROOT
BRANCH   7  11
HETATM   11  C   UNL     1     -44.007  57.416 -56.182  1.00  0.00     0.261 C 
HETATM   12  N   UNL     1     -43.463  56.872 -57.329  1.00  0.00    -0.323 N 
HETATM   13  H   UNL     1     -42.459  56.729 -57.304  1.00  0.00     0.169 HD
HETATM   14  O   UNL     1     -45.168  57.782 -56.043  1.00  0.00    -0.267 OA
BRANCH  12  15
HETATM   15  C   UNL     1     -44.130  56.514 -58.517  1.00  0.00     0.037 A 
HETATM   16  C   UNL     1     -45.016  57.355 -59.198  1.00  0.00     0.066 A 
HETATM   17  C   UNL     1     -45.651  56.905 -60.355  1.00  0.00     0.067 A 
HETATM   18  C   UNL     1     -45.426  55.627 -60.846  1.00  0.00     0.036 A 
HETATM   19  C   UNL     1     -44.543  54.783 -60.177  1.00  0.00     0.005 A 
HETATM   20  C   UNL     1     -43.896  55.226 -59.020  1.00  0.00     0.029 A 
BRANCH  17  21
HETATM   21  O   UNL     1     -46.518  57.706 -61.042  1.00  0.00    -0.361 OA
HETATM   22  H   UNL     1     -46.414  58.618 -60.720  1.00  0.00     0.217 HD
ENDBRANCH  17  21
ENDBRANCH  12  15
ENDBRANCH   7  11
BRANCH   1  23
HETATM   23  C   UNL     1     -41.916  53.955 -52.641  1.00  0.00    -0.035 A 
HETATM   24  C   UNL     1     -41.024  53.426 -51.695  1.00  0.00     0.012 A 
HETATM   25  C   UNL     1     -40.091  52.448 -52.052  1.00  0.00     0.037 A 
HETATM   26  C   UNL     1     -40.027  51.970 -53.360  1.00  0.00     0.068 A 
HETATM   27  C   UNL     1     -40.858  52.527 -54.327  1.00  0.00     0.037 A 
HETATM   28  C   UNL     1     -41.786  53.514 -53.972  1.00  0.00     0.012 A 
BRANCH  26  29
HETATM   29  O   UNL     1     -39.101  50.991 -53.583  1.00  0.00    -0.356 OA
HETATM   30  C   UNL     1     -39.566  49.862 -54.317  1.00  0.00     0.210 C 
ENDBRANCH  26  29
ENDBRANCH   1  23
BRANCH   8  31
HETATM   31  C   UNL     1     -41.147  58.092 -50.995  1.00  0.00     0.409 C 
HETATM   32  F   UNL     1     -42.119  59.032 -51.029  1.00  0.00    -0.169 F 
HETATM   33  F   UNL     1     -41.098  57.641 -49.710  1.00  0.00    -0.169 F 
HETATM   34  F   UNL     1     -39.962  58.691 -51.224  1.00  0.00    -0.169 F 
ENDBRANCH   8  31
TORSDOF 6
ENDMDL
MODEL 2
REMARK VINA RESULT:      -8.6      1.575      1.965
REMARK  6 active torsions:
REMARK  status: ('A' for Active; 'I' for Inactive)
REMARK    1  A    between atoms: O_2  and  C_3 
REMARK    2  A    between atoms: C_6  and  C_7 
REMARK    3  A    between atoms: C_13  and  C_14 
REMARK       I    between atoms: C_14  and  N_15 
REMARK    4  A    between atoms: N_15  and  C_16 
REMARK    5  A    between atoms: C_18  and  O_19 
REMARK    6  A    between atoms: C_24  and  C_25 
ROOT
HETATM    1  C   UNL     1     -43.634  55.193 -53.611  1.00  0.00     0.118 C 
HETATM    2  N   UNL     1     -43.694  55.775 -54.967  1.00  0.00    -0.365 N 
HETATM    3  C   UNL     1     -43.009  56.929 -55.226  1.00  0.00     0.138 A 
HETATM    4  N   UNL     1     -42.441  57.663 -54.207  1.00  0.00    -0.240 N 
HETATM    5  N   UNL     1     -41.750  58.729 -54.632  1.00  0.00    -0.181 NA
HETATM    6  C   UNL     1     -41.959  58.728 -55.950  1.00  0.00     0.160 A 
HETATM    7  C   UNL     1     -42.737  57.628 -56.390  1.00  0.00     0.096 A 
HETATM    8  C   UNL     1     -42.559  57.337 -52.798  1.00  0.00     0.221 C 
HETATM    9  C   UNL     1     -43.719  56.342 -52.593  1.00  0.00     0.066 C 
HETATM   10  H   UNL     1     -44.625  55.683 -55.381  1.00  0.00     0.161 HD
ENDROOT
BRANCH   7  11
HETATM   11  C   UNL     1     -43.110  57.349 -57.768  1.00  0.00     0.261 C 
HETATM   12  N   UNL     1     -44.340  56.734 -57.901  1.00  0.00    -0.323 N 
HETATM   13  H   UNL     1     -44.779  56.455 -57.031  1.00  0.00     0.169 HD
HETATM   14  O   UNL     1     -42.356  57.652 -58.686  1.00  0.00    -0.267 OA
BRANCH  12  15
HETATM   15  C   UNL     1     -45.034  56.438 -59.091  1.00  0.00     0.037 A 
HETATM   16  C   UNL     1     -44.574  55.542 -60.061  1.00  0.00     0.066 A 
HETATM   17  C   UNL     1     -45.319  55.333 -61.222  1.00  0.00     0.067 A 
HETATM   18  C   UNL     1     -46.513  56.004 -61.439  1.00  0.00     0.036 A 
HETATM   19  C   UNL     1     -46.981  56.896 -60.478  1.00  0.00     0.005 A 
HETATM   20  C   UNL     1     -46.247  57.110 -59.308  1.00  0.00     0.029 A 
BRANCH  17  21
HETATM   21  O   UNL     1     -44.896  54.460 -62.184  1.00  0.00    -0.361 OA
HETATM   22  H   UNL     1     -43.984  54.693 -62.430  1.00  0.00     0.217 HD
ENDBRANCH  17  21
ENDBRANCH  12  15
ENDBRANCH   7  11
BRANCH   1  23
HETATM   23  C   UNL     1     -42.412  54.302 -53.395  1.00  0.00    -0.035 A 
HETATM   24  C   UNL     1     -41.817  54.116 -52.138  1.00  0.00     0.012 A 
HETATM   25  C   UNL     1     -40.741  53.239 -51.972  1.00  0.00     0.037 A 
HETATM   26  C   UNL     1     -40.236  52.521 -53.055  1.00  0.00     0.068 A 
HETATM   27  C   UNL     1     -40.770  52.739 -54.322  1.00  0.00     0.037 A 
HETATM   28  C   UNL     1     -41.840  53.626 -54.490  1.00  0.00     0.012 A 
BRANCH  26  29
HETATM   29  O   UNL     1     -39.209  51.668 -52.767  1.00  0.00    -0.356 OA
HETATM   30  C   UNL     1     -39.486  50.686 -51.772  1.00  0.00     0.210 C 
ENDBRANCH  26  29
ENDBRANCH   1  23
BRANCH   8  31
HETATM   31  C   UNL     1     -42.799  58.562 -51.940  1.00  0.00     0.409 C 
HETATM   32  F   UNL     1     -43.474  58.273 -50.804  1.00  0.00    -0.169 F 
HETATM   33  F   UNL     1     -41.599  59.078 -51.549  1.00  0.00    -0.169 F 
HETATM   34  F   UNL     1     -43.440  59.560 -52.579  1.00  0.00    -0.169 F 
ENDBRANCH   8  31
TORSDOF 6
ENDMDL
MODEL 3
REMARK VINA RESULT:      -8.6      2.413      7.671
REMARK  6 active torsions:
REMARK  status: ('A' for Active; 'I' for Inactive)
REMARK    1  A    between atoms: O_2  and  C_3 
REMARK    2  A    between atoms: C_6  and  C_7 
REMARK    3  A    between atoms: C_13  and  C_14 
REMARK       I    between atoms: C_14  and  N_15 
REMARK    4  A    between atoms: N_15  and  C_16 
REMARK    5  A    between atoms: C_18  and  O_19 
REMARK    6  A    between atoms: C_24  and  C_25 
ROOT
HETATM    1  C   UNL     1     -42.681  57.804 -57.815  1.00  0.00     0.118 C 
HETATM    2  N   UNL     1     -42.032  56.819 -56.926  1.00  0.00    -0.365 N 
HETATM    3  C   UNL     1     -42.603  56.535 -55.717  1.00  0.00     0.138 A 
HETATM    4  N   UNL     1     -43.644  57.294 -55.227  1.00  0.00    -0.240 N 
HETATM    5  N   UNL     1     -44.135  56.849 -54.064  1.00  0.00    -0.181 NA
HETATM    6  C   UNL     1     -43.326  55.833 -53.755  1.00  0.00     0.160 A 
HETATM    7  C   UNL     1     -42.346  55.581 -54.748  1.00  0.00     0.096 A 
HETATM    8  C   UNL     1     -44.184  58.469 -55.888  1.00  0.00     0.221 C 
HETATM    9  C   UNL     1     -43.183  58.970 -56.949  1.00  0.00     0.066 C 
HETATM   10  H   UNL     1     -41.012  56.895 -56.953  1.00  0.00     0.161 HD
ENDROOT
BRANCH   7  11
HETATM   11  C   UNL     1     -41.342  54.529 -54.702  1.00  0.00     0.261 C 
HETATM   12  N   UNL     1     -41.509  53.641 -53.657  1.00  0.00    -0.323 N 
HETATM   13  H   UNL     1     -42.236  53.887 -52.993  1.00  0.00     0.169 HD
HETATM   14  O   UNL     1     -40.449  54.490 -55.540  1.00  0.00    -0.267 OA
BRANCH  12  15
HETATM   15  C   UNL     1     -40.786  52.458 -53.402  1.00  0.00     0.037 A 
HETATM   16  C   UNL     1     -40.652  51.413 -54.321  1.00  0.00     0.066 A 
HETATM   17  C   UNL     1     -39.938  50.268 -53.971  1.00  0.00     0.067 A 
HETATM   18  C   UNL     1     -39.358  50.139 -52.717  1.00  0.00     0.036 A 
HETATM   19  C   UNL     1     -39.484  51.175 -51.796  1.00  0.00     0.005 A 
HETATM   20  C   UNL     1     -40.192  52.331 -52.138  1.00  0.00     0.029 A 
BRANCH  17  21
HETATM   21  O   UNL     1     -39.787  49.233 -54.850  1.00  0.00    -0.361 OA
HETATM   22  H   UNL     1     -40.608  48.712 -54.855  1.00  0.00     0.217 HD
ENDBRANCH  17  21
ENDBRANCH  12  15
ENDBRANCH   7  11
BRANCH   1  23
HETATM   23  C   UNL     1     -43.782  57.194 -58.681  1.00  0.00    -0.035 A 
HETATM   24  C   UNL     1     -44.975  57.868 -58.983  1.00  0.00     0.012 A 
HETATM   25  C   UNL     1     -45.927  57.302 -59.836  1.00  0.00     0.037 A 
HETATM   26  C   UNL     1     -45.710  56.051 -60.413  1.00  0.00     0.068 A 
HETATM   27  C   UNL     1     -44.563  55.338 -60.076  1.00  0.00     0.037 A 
HETATM   28  C   UNL     1     -43.614  55.901 -59.213  1.00  0.00     0.012 A 
BRANCH  26  29
HETATM   29  O   UNL     1     -46.692  55.615 -61.257  1.00  0.00    -0.356 OA
HETATM   30  C   UNL     1     -47.717  56.561 -61.547  1.00  0.00     0.210 C 
ENDBRANCH  26  29
ENDBRANCH   1  23
BRANCH   8  31
HETATM   31  C   UNL     1     -44.481  59.592 -54.916  1.00  0.00     0.409 C 
HETATM   32  F   UNL     1     -44.716  60.767 -55.542  1.00  0.00    -0.169 F 
HETATM   33  F   UNL     1     -45.617  59.296 -54.223  1.00  0.00    -0.169 F 
HETATM   34  F   UNL     1     -43.521  59.782 -53.990  1.00  0.00    -0.169 F 
ENDBRANCH   8  31
TORSDOF 6
ENDMDL
MODEL 4
REMARK VINA RESULT:      -7.7      4.022      7.824
REMARK  6 active torsions:
REMARK  status: ('A' for Active; 'I' for Inactive)
REMARK    1  A    between atoms: O_2  and  C_3 
REMARK    2  A    between atoms: C_6  and  C_7 
REMARK    3  A    between atoms: C_13  and  C_14 
REMARK       I    between atoms: C_14  and  N_15 
REMARK    4  A    between atoms: N_15  and  C_16 
REMARK    5  A    between atoms: C_18  and  O_19 
REMARK    6  A    between atoms: C_24  and  C_25 
ROOT
HETATM    1  C   UNL     1     -44.206  56.045 -54.609  1.00  0.00     0.118 C 
HETATM    2  N   UNL     1     -44.347  56.971 -53.467  1.00  0.00    -0.365 N 
HETATM    3  C   UNL     1     -43.317  57.091 -52.577  1.00  0.00     0.138 A 
HETATM    4  N   UNL     1     -42.248  56.221 -52.605  1.00  0.00    -0.240 N 
HETATM    5  N   UNL     1     -41.293  56.512 -51.712  1.00  0.00    -0.181 NA
HETATM    6  C   UNL     1     -41.807  57.539 -51.033  1.00  0.00     0.160 A 
HETATM    7  C   UNL     1     -43.071  57.953 -51.522  1.00  0.00     0.096 A 
HETATM    8  C   UNL     1     -42.135  55.090 -53.508  1.00  0.00     0.221 C 
HETATM    9  C   UNL     1     -43.519  54.766 -54.105  1.00  0.00     0.066 C 
HETATM   10  H   UNL     1     -45.296  56.963 -53.083  1.00  0.00     0.161 HD
ENDROOT
BRANCH   7  11
HETATM   11  C   UNL     1     -43.864  59.056 -51.000  1.00  0.00     0.261 C 
HETATM   12  N   UNL     1     -43.133  59.976 -50.274  1.00  0.00    -0.323 N 
HETATM   13  H   UNL     1     -42.167  59.720 -50.101  1.00  0.00     0.169 HD
HETATM   14  O   UNL     1     -45.069  59.106 -51.215  1.00  0.00    -0.267 OA
BRANCH  12  15
HETATM   15  C   UNL     1     -43.574  61.203 -49.739  1.00  0.00     0.037 A 
HETATM   16  C   UNL     1     -44.474  61.311 -48.674  1.00  0.00     0.066 A 
HETATM   17  C   UNL     1     -44.875  62.570 -48.229  1.00  0.00     0.067 A 
HETATM   18  C   UNL     1     -44.400  63.728 -48.828  1.00  0.00     0.036 A 
HETATM   19  C   UNL     1     -43.502  63.631 -49.887  1.00  0.00     0.005 A 
HETATM   20  C   UNL     1     -43.088  62.374 -50.338  1.00  0.00     0.029 A 
BRANCH  17  21
HETATM   21  O   UNL     1     -45.749  62.706 -47.188  1.00  0.00    -0.361 OA
HETATM   22  H   UNL     1     -46.133  61.834 -46.994  1.00  0.00     0.217 HD
ENDBRANCH  17  21
ENDBRANCH  12  15
ENDBRANCH   7  11
BRANCH   1  23
HETATM   23  C   UNL     1     -43.487  56.671 -55.802  1.00  0.00    -0.035 A 
HETATM   24  C   UNL     1     -43.191  55.957 -56.973  1.00  0.00     0.012 A 
HETATM   25  C   UNL     1     -42.592  56.586 -58.069  1.00  0.00     0.037 A 
HETATM   26  C   UNL     1     -42.279  57.943 -58.026  1.00  0.00     0.068 A 
HETATM   27  C   UNL     1     -42.505  58.655 -56.851  1.00  0.00     0.037 A 
HETATM   28  C   UNL     1     -43.095  58.023 -55.750  1.00  0.00     0.012 A 
BRANCH  26  29
HETATM   29  O   UNL     1     -41.731  58.457 -59.167  1.00  0.00    -0.356 OA
HETATM   30  C   UNL     1     -42.060  57.768 -60.370  1.00  0.00     0.210 C 
ENDBRANCH  26  29
ENDBRANCH   1  23
BRANCH   8  31
HETATM   31  C   UNL     1     -41.588  53.856 -52.821  1.00  0.00     0.409 C 
HETATM   32  F   UNL     1     -42.254  53.563 -51.680  1.00  0.00    -0.169 F 
HETATM   33  F   UNL     1     -41.747  52.779 -53.641  1.00  0.00    -0.169 F 
HETATM   34  F   UNL     1     -40.271  53.921 -52.546  1.00  0.00    -0.169 F 
ENDBRANCH   8  31
TORSDOF 6
ENDMDL
MODEL 5
REMARK VINA RESULT:      -7.7     16.268     17.782
REMARK  6 active torsions:
REMARK  status: ('A' for Active; 'I' for Inactive)
REMARK    1  A    between atoms: O_2  and  C_3 
REMARK    2  A    between atoms: C_6  and  C_7 
REMARK    3  A    between atoms: C_13  and  C_14 
REMARK       I    between atoms: C_14  and  N_15 
REMARK    4  A    between atoms: N_15  and  C_16 
REMARK    5  A    between atoms: C_18  and  O_19 
REMARK    6  A    between atoms: C_24  and  C_25 
ROOT
HETATM    1  C   UNL     1     -35.268  41.623 -51.802  1.00  0.00     0.118 C 
HETATM    2  N   UNL     1     -34.895  41.475 -53.223  1.00  0.00    -0.365 N 
HETATM    3  C   UNL     1     -34.045  40.468 -53.587  1.00  0.00     0.138 A 
HETATM    4  N   UNL     1     -33.372  39.729 -52.638  1.00  0.00    -0.240 N 
HETATM    5  N   UNL     1     -32.631  38.739 -53.152  1.00  0.00    -0.181 NA
HETATM    6  C   UNL     1     -32.760  38.909 -54.470  1.00  0.00     0.160 A 
HETATM    7  C   UNL     1     -33.632  39.973 -54.811  1.00  0.00     0.096 A 
HETATM    8  C   UNL     1     -33.443  39.970 -51.208  1.00  0.00     0.221 C 
HETATM    9  C   UNL     1     -34.011  41.381 -50.951  1.00  0.00     0.066 C 
HETATM   10  H   UNL     1     -34.766  42.382 -53.681  1.00  0.00     0.161 HD
ENDROOT
BRANCH   7  11
HETATM   11  C   UNL     1     -33.984  40.382 -56.163  1.00  0.00     0.261 C 
HETATM   12  N   UNL     1     -35.308  40.160 -56.488  1.00  0.00    -0.323 N 
HETATM   13  H   UNL     1     -35.842  39.646 -55.795  1.00  0.00     0.169 HD
HETATM   14  O   UNL     1     -33.136  40.869 -56.901  1.00  0.00    -0.267 OA
BRANCH  12  15
HETATM   15  C   UNL     1     -35.987  40.546 -57.661  1.00  0.00     0.037 A 
HETATM   16  C   UNL     1     -36.195  39.701 -58.755  1.00  0.00     0.066 A 
HETATM   17  C   UNL     1     -36.856  40.180 -59.886  1.00  0.00     0.067 A 
HETATM   18  C   UNL     1     -37.310  41.489 -59.952  1.00  0.00     0.036 A 
HETATM   19  C   UNL     1     -37.110  42.337 -58.866  1.00  0.00     0.005 A 
HETATM   20  C   UNL     1     -36.454  41.867 -57.724  1.00  0.00     0.029 A 
BRANCH  17  21
HETATM   21  O   UNL     1     -37.078  39.376 -60.967  1.00  0.00    -0.361 OA
HETATM   22  H   UNL     1     -36.828  39.865 -61.770  1.00  0.00     0.217 HD
ENDBRANCH  17  21
ENDBRANCH  12  15
ENDBRANCH   7  11
BRANCH   1  23
HETATM   23  C   UNL     1     -36.439  40.732 -51.394  1.00  0.00    -0.035 A 
HETATM   24  C   UNL     1     -37.583  40.566 -52.191  1.00  0.00     0.012 A 
HETATM   25  C   UNL     1     -38.603  39.687 -51.812  1.00  0.00     0.037 A 
HETATM   26  C   UNL     1     -38.505  38.950 -50.634  1.00  0.00     0.068 A 
HETATM   27  C   UNL     1     -37.410  39.148 -49.798  1.00  0.00     0.037 A 
HETATM   28  C   UNL     1     -36.393  40.036 -50.171  1.00  0.00     0.012 A 
BRANCH  26  29
HETATM   29  O   UNL     1     -39.544  38.098 -50.386  1.00  0.00    -0.356 OA
HETATM   30  C   UNL     1     -40.815  38.524 -50.865  1.00  0.00     0.210 C 
ENDBRANCH  26  29
ENDBRANCH   1  23
BRANCH   8  31
HETATM   31  C   UNL     1     -32.092  39.848 -50.535  1.00  0.00     0.409 C 
HETATM   32  F   UNL     1     -31.130  40.546 -51.179  1.00  0.00    -0.169 F 
HETATM   33  F   UNL     1     -32.168  40.374 -49.280  1.00  0.00    -0.169 F 
HETATM   34  F   UNL     1     -31.672  38.578 -50.380  1.00  0.00    -0.169 F 
ENDBRANCH   8  31
TORSDOF 6
ENDMDL
MODEL 6
REMARK VINA RESULT:      -7.6     16.198     18.083
REMARK  6 active torsions:
REMARK  status: ('A' for Active; 'I' for Inactive)
REMARK    1  A    between atoms: O_2  and  C_3 
REMARK    2  A    between atoms: C_6  and  C_7 
REMARK    3  A    between atoms: C_13  and  C_14 
REMARK       I    between atoms: C_14  and  N_15 
REMARK    4  A    between atoms: N_15  and  C_16 
REMARK    5  A    between atoms: C_18  and  O_19 
REMARK    6  A    between atoms: C_24  and  C_25 
ROOT
HETATM    1  C   UNL     1     -35.468  41.849 -57.059  1.00  0.00     0.118 C 
HETATM    2  N   UNL     1     -36.083  41.205 -58.238  1.00  0.00    -0.365 N 
HETATM    3  C   UNL     1     -35.909  39.863 -58.429  1.00  0.00     0.138 A 
HETATM    4  N   UNL     1     -35.010  39.147 -57.668  1.00  0.00    -0.240 N 
HETATM    5  N   UNL     1     -35.006  37.834 -57.932  1.00  0.00    -0.181 NA
HETATM    6  C   UNL     1     -35.858  37.721 -58.953  1.00  0.00     0.160 A 
HETATM    7  C   UNL     1     -36.460  38.953 -59.314  1.00  0.00     0.096 A 
HETATM    8  C   UNL     1     -34.139  39.729 -56.663  1.00  0.00     0.221 C 
HETATM    9  C   UNL     1     -34.063  41.256 -56.869  1.00  0.00     0.066 C 
HETATM   10  H   UNL     1     -36.036  41.803 -59.067  1.00  0.00     0.161 HD
ENDROOT
BRANCH   7  11
HETATM   11  C   UNL     1     -37.442  39.140 -60.371  1.00  0.00     0.261 C 
HETATM   12  N   UNL     1     -38.246  38.038 -60.590  1.00  0.00    -0.323 N 
HETATM   13  H   UNL     1     -37.987  37.205 -60.072  1.00  0.00     0.169 HD
HETATM   14  O   UNL     1     -37.499  40.202 -60.980  1.00  0.00    -0.267 OA
BRANCH  12  15
HETATM   15  C   UNL     1     -39.356  37.935 -61.452  1.00  0.00     0.037 A 
HETATM   16  C   UNL     1     -40.662  38.273 -61.084  1.00  0.00     0.066 A 
HETATM   17  C   UNL     1     -41.704  38.112 -61.997  1.00  0.00     0.067 A 
HETATM   18  C   UNL     1     -41.472  37.615 -63.272  1.00  0.00     0.036 A 
HETATM   19  C   UNL     1     -40.175  37.278 -63.647  1.00  0.00     0.005 A 
HETATM   20  C   UNL     1     -39.121  37.440 -62.743  1.00  0.00     0.029 A 
BRANCH  17  21
HETATM   21  O   UNL     1     -42.989  38.438 -61.667  1.00  0.00    -0.361 OA
HETATM   22  H   UNL     1     -43.580  38.101 -62.363  1.00  0.00     0.217 HD
ENDBRANCH  17  21
ENDBRANCH  12  15
ENDBRANCH   7  11
BRANCH   1  23
HETATM   23  C   UNL     1     -36.329  41.743 -55.802  1.00  0.00    -0.035 A 
HETATM   24  C   UNL     1     -37.673  41.338 -55.831  1.00  0.00     0.012 A 
HETATM   25  C   UNL     1     -38.406  41.189 -54.650  1.00  0.00     0.037 A 
HETATM   26  C   UNL     1     -37.816  41.434 -53.411  1.00  0.00     0.068 A 
HETATM   27  C   UNL     1     -36.505  41.898 -53.364  1.00  0.00     0.037 A 
HETATM   28  C   UNL     1     -35.773  42.058 -54.547  1.00  0.00     0.012 A 
BRANCH  26  29
HETATM   29  O   UNL     1     -38.618  41.220 -52.326  1.00  0.00    -0.356 OA
HETATM   30  C   UNL     1     -40.019  41.262 -52.579  1.00  0.00     0.210 C 
ENDBRANCH  26  29
ENDBRANCH   1  23
BRANCH   8  31
HETATM   31  C   UNL     1     -32.740  39.152 -56.707  1.00  0.00     0.409 C 
HETATM   32  F   UNL     1     -32.395  38.729 -57.945  1.00  0.00    -0.169 F 
HETATM   33  F   UNL     1     -31.843  40.123 -56.374  1.00  0.00    -0.169 F 
HETATM   34  F   UNL     1     -32.537  38.144 -55.836  1.00  0.00    -0.169 F 
ENDBRANCH   8  31
TORSDOF 6
ENDMDL
MODEL 7
REMARK VINA RESULT:      -7.6      1.710      1.792
REMARK  6 active torsions:
REMARK  status: ('A' for Active; 'I' for Inactive)
REMARK    1  A    between atoms: O_2  and  C_3 
REMARK    2  A    between atoms: C_6  and  C_7 
REMARK    3  A    between atoms: C_13  and  C_14 
REMARK       I    between atoms: C_14  and  N_15 
REMARK    4  A    between atoms: N_15  and  C_16 
REMARK    5  A    between atoms: C_18  and  O_19 
REMARK    6  A    between atoms: C_24  and  C_25 
ROOT
HETATM    1  C   UNL     1     -42.991  55.254 -52.508  1.00  0.00     0.118 C 
HETATM    2  N   UNL     1     -43.427  55.992 -53.711  1.00  0.00    -0.365 N 
HETATM    3  C   UNL     1     -42.714  57.087 -54.114  1.00  0.00     0.138 A 
HETATM    4  N   UNL     1     -41.734  57.631 -53.312  1.00  0.00    -0.240 N 
HETATM    5  N   UNL     1     -41.084  58.657 -53.877  1.00  0.00    -0.181 NA
HETATM    6  C   UNL     1     -41.728  58.832 -55.033  1.00  0.00     0.160 A 
HETATM    7  C   UNL     1     -42.759  57.883 -55.245  1.00  0.00     0.096 A 
HETATM    8  C   UNL     1     -41.408  57.158 -51.979  1.00  0.00     0.221 C 
HETATM    9  C   UNL     1     -42.558  56.278 -51.448  1.00  0.00     0.066 C 
HETATM   10  H   UNL     1     -44.447  56.052 -53.773  1.00  0.00     0.161 HD
ENDROOT
BRANCH   7  11
HETATM   11  C   UNL     1     -43.616  57.809 -56.418  1.00  0.00     0.261 C 
HETATM   12  N   UNL     1     -43.850  59.031 -57.019  1.00  0.00    -0.323 N 
HETATM   13  H   UNL     1     -43.492  59.835 -56.514  1.00  0.00     0.169 HD
HETATM   14  O   UNL     1     -44.064  56.730 -56.790  1.00  0.00    -0.267 OA
BRANCH  12  15
HETATM   15  C   UNL     1     -44.533  59.285 -58.225  1.00  0.00     0.037 A 
HETATM   16  C   UNL     1     -45.914  59.489 -58.311  1.00  0.00     0.066 A 
HETATM   17  C   UNL     1     -46.508  59.708 -59.553  1.00  0.00     0.067 A 
HETATM   18  C   UNL     1     -45.752  59.724 -60.717  1.00  0.00     0.036 A 
HETATM   19  C   UNL     1     -44.376  59.525 -60.641  1.00  0.00     0.005 A 
HETATM   20  C   UNL     1     -43.769  59.310 -59.400  1.00  0.00     0.029 A 
BRANCH  17  21
HETATM   21  O   UNL     1     -47.853  59.914 -59.667  1.00  0.00    -0.361 OA
HETATM   22  H   UNL     1     -48.287  59.051 -59.783  1.00  0.00     0.217 HD
ENDBRANCH  17  21
ENDBRANCH  12  15
ENDBRANCH   7  11
BRANCH   1  23
HETATM   23  C   UNL     1     -41.911  54.215 -52.803  1.00  0.00    -0.035 A 
HETATM   24  C   UNL     1     -41.120  53.633 -51.800  1.00  0.00     0.012 A 
HETATM   25  C   UNL     1     -40.188  52.636 -52.105  1.00  0.00     0.037 A 
HETATM   26  C   UNL     1     -40.026  52.192 -53.416  1.00  0.00     0.068 A 
HETATM   27  C   UNL     1     -40.754  52.801 -54.434  1.00  0.00     0.037 A 
HETATM   28  C   UNL     1     -41.679  53.807 -54.131  1.00  0.00     0.012 A 
BRANCH  26  29
HETATM   29  O   UNL     1     -39.113  51.190 -53.588  1.00  0.00    -0.356 OA
HETATM   30  C   UNL     1     -39.572  49.880 -53.269  1.00  0.00     0.210 C 
ENDBRANCH  26  29
ENDBRANCH   1  23
BRANCH   8  31
HETATM   31  C   UNL     1     -41.162  58.293 -51.008  1.00  0.00     0.409 C 
HETATM   32  F   UNL     1     -42.183  59.180 -50.980  1.00  0.00    -0.169 F 
HETATM   33  F   UNL     1     -41.062  57.790 -49.745  1.00  0.00    -0.169 F 
HETATM   34  F   UNL     1     -40.016  58.965 -51.231  1.00  0.00    -0.169 F 
ENDBRANCH   8  31
TORSDOF 6
ENDMDL
MODEL 8
REMARK VINA RESULT:      -7.6      3.180      8.391
REMARK  6 active torsions:
REMARK  status: ('A' for Active; 'I' for Inactive)
REMARK    1  A    between atoms: O_2  and  C_3 
REMARK    2  A    between atoms: C_6  and  C_7 
REMARK    3  A    between atoms: C_13  and  C_14 
REMARK       I    between atoms: C_14  and  N_15 
REMARK    4  A    between atoms: N_15  and  C_16 
REMARK    5  A    between atoms: C_18  and  O_19 
REMARK    6  A    between atoms: C_24  and  C_25 
ROOT
HETATM    1  C   UNL     1     -42.623  56.880 -59.780  1.00  0.00     0.118 C 
HETATM    2  N   UNL     1     -42.234  56.353 -58.457  1.00  0.00    -0.365 N 
HETATM    3  C   UNL     1     -42.368  57.154 -57.357  1.00  0.00     0.138 A 
HETATM    4  N   UNL     1     -42.656  58.495 -57.485  1.00  0.00    -0.240 N 
HETATM    5  N   UNL     1     -42.820  59.125 -56.314  1.00  0.00    -0.181 NA
HETATM    6  C   UNL     1     -42.536  58.182 -55.413  1.00  0.00     0.160 A 
HETATM    7  C   UNL     1     -42.246  56.924 -55.997  1.00  0.00     0.096 A 
HETATM    8  C   UNL     1     -42.783  59.190 -58.753  1.00  0.00     0.221 C 
HETATM    9  C   UNL     1     -42.149  58.339 -59.873  1.00  0.00     0.066 C 
HETATM   10  H   UNL     1     -41.395  55.770 -58.509  1.00  0.00     0.161 HD
ENDROOT
BRANCH   7  11
HETATM   11  C   UNL     1     -41.923  55.705 -55.271  1.00  0.00     0.261 C 
HETATM   12  N   UNL     1     -41.576  55.916 -53.950  1.00  0.00    -0.323 N 
HETATM   13  H   UNL     1     -41.483  56.889 -53.679  1.00  0.00     0.169 HD
HETATM   14  O   UNL     1     -41.968  54.619 -55.835  1.00  0.00    -0.267 OA
BRANCH  12  15
HETATM   15  C   UNL     1     -41.324  54.949 -52.957  1.00  0.00     0.037 A 
HETATM   16  C   UNL     1     -40.455  53.867 -53.125  1.00  0.00     0.066 A 
HETATM   17  C   UNL     1     -40.288  52.943 -52.093  1.00  0.00     0.067 A 
HETATM   18  C   UNL     1     -40.976  53.073 -50.896  1.00  0.00     0.036 A 
HETATM   19  C   UNL     1     -41.842  54.148 -50.718  1.00  0.00     0.005 A 
HETATM   20  C   UNL     1     -42.013  55.084 -51.742  1.00  0.00     0.029 A 
BRANCH  17  21
HETATM   21  O   UNL     1     -39.442  51.879 -52.228  1.00  0.00    -0.361 OA
HETATM   22  H   UNL     1     -38.756  52.113 -52.876  1.00  0.00     0.217 HD
ENDBRANCH  17  21
ENDBRANCH  12  15
ENDBRANCH   7  11
BRANCH   1  23
HETATM   23  C   UNL     1     -44.114  56.723 -60.072  1.00  0.00    -0.035 A 
HETATM   24  C   UNL     1     -44.981  57.818 -60.216  1.00  0.00     0.012 A 
HETATM   25  C   UNL     1     -46.326  57.633 -60.550  1.00  0.00     0.037 A 
HETATM   26  C   UNL     1     -46.838  56.353 -60.754  1.00  0.00     0.068 A 
HETATM   27  C   UNL     1     -46.011  55.251 -60.554  1.00  0.00     0.037 A 
HETATM   28  C   UNL     1     -44.667  55.435 -60.208  1.00  0.00     0.012 A 
BRANCH  26  29
HETATM   29  O   UNL     1     -48.156  56.297 -61.112  1.00  0.00    -0.356 OA
HETATM   30  C   UNL     1     -48.498  56.994 -62.305  1.00  0.00     0.210 C 
ENDBRANCH  26  29
ENDBRANCH   1  23
BRANCH   8  31
HETATM   31  C   UNL     1     -42.126  60.553 -58.733  1.00  0.00     0.409 C 
HETATM   32  F   UNL     1     -41.795  60.986 -59.971  1.00  0.00    -0.169 F 
HETATM   33  F   UNL     1     -43.005  61.468 -58.233  1.00  0.00    -0.169 F 
HETATM   34  F   UNL     1     -41.033  60.622 -57.948  1.00  0.00    -0.169 F 
ENDBRANCH   8  31
TORSDOF 6
ENDMDL
MODEL 9
REMARK VINA RESULT:      -7.4      5.072      8.464
REMARK  6 active torsions:
REMARK  status: ('A' for Active; 'I' for Inactive)
REMARK    1  A    between atoms: O_2  and  C_3 
REMARK    2  A    between atoms: C_6  and  C_7 
REMARK    3  A    between atoms: C_13  and  C_14 
REMARK       I    between atoms: C_14  and  N_15 
REMARK    4  A    between atoms: N_15  and  C_16 
REMARK    5  A    between atoms: C_18  and  O_19 
REMARK    6  A    between atoms: C_24  and  C_25 
ROOT
HETATM    1  C   UNL     1     -41.390  57.853 -52.432  1.00  0.00     0.118 C 
HETATM    2  N   UNL     1     -42.049  58.911 -51.640  1.00  0.00    -0.365 N 
HETATM    3  C   UNL     1     -43.414  58.963 -51.603  1.00  0.00     0.138 A 
HETATM    4  N   UNL     1     -44.178  58.186 -52.448  1.00  0.00    -0.240 N 
HETATM    5  N   UNL     1     -45.496  58.303 -52.242  1.00  0.00    -0.181 NA
HETATM    6  C   UNL     1     -45.581  59.249 -51.304  1.00  0.00     0.160 A 
HETATM    7  C   UNL     1     -44.315  59.705 -50.858  1.00  0.00     0.096 A 
HETATM    8  C   UNL     1     -43.636  57.310 -53.471  1.00  0.00     0.221 C 
HETATM    9  C   UNL     1     -42.167  57.689 -53.749  1.00  0.00     0.066 C 
HETATM   10  H   UNL     1     -41.551  59.803 -51.705  1.00  0.00     0.161 HD
ENDROOT
BRANCH   7  11
HETATM   11  C   UNL     1     -44.088  60.712 -49.833  1.00  0.00     0.261 C 
HETATM   12  N   UNL     1     -45.055  60.733 -48.846  1.00  0.00    -0.323 N 
HETATM   13  H   UNL     1     -45.853  60.128 -49.011  1.00  0.00     0.169 HD
HETATM   14  O   UNL     1     -43.111  61.448 -49.895  1.00  0.00    -0.267 OA
BRANCH  12  15
HETATM   15  C   UNL     1     -45.068  61.499 -47.664  1.00  0.00     0.037 A 
HETATM   16  C   UNL     1     -44.662  61.016 -46.416  1.00  0.00     0.066 A 
HETATM   17  C   UNL     1     -44.734  61.841 -45.294  1.00  0.00     0.067 A 
HETATM   18  C   UNL     1     -45.211  63.141 -45.389  1.00  0.00     0.036 A 
HETATM   19  C   UNL     1     -45.615  63.632 -46.627  1.00  0.00     0.005 A 
HETATM   20  C   UNL     1     -45.541  62.816 -47.760  1.00  0.00     0.029 A 
BRANCH  17  21
HETATM   21  O   UNL     1     -44.340  61.397 -44.065  1.00  0.00    -0.361 OA
HETATM   22  H   UNL     1     -44.645  60.480 -43.957  1.00  0.00     0.217 HD
ENDBRANCH  17  21
ENDBRANCH  12  15
ENDBRANCH   7  11
BRANCH   1  23
HETATM   23  C   UNL     1     -41.239  56.540 -51.668  1.00  0.00    -0.035 A 
HETATM   24  C   UNL     1     -41.059  55.303 -52.306  1.00  0.00     0.012 A 
HETATM   25  C   UNL     1     -40.856  54.133 -51.567  1.00  0.00     0.037 A 
HETATM   26  C   UNL     1     -40.821  54.169 -50.175  1.00  0.00     0.068 A 
HETATM   27  C   UNL     1     -41.061  55.375 -49.521  1.00  0.00     0.037 A 
HETATM   28  C   UNL     1     -41.275  56.544 -50.260  1.00  0.00     0.012 A 
BRANCH  26  29
HETATM   29  O   UNL     1     -40.580  52.972 -49.562  1.00  0.00    -0.356 OA
HETATM   30  C   UNL     1     -40.314  51.878 -50.434  1.00  0.00     0.210 C 
ENDBRANCH  26  29
ENDBRANCH   1  23
BRANCH   8  31
HETATM   31  C   UNL     1     -44.420  57.380 -54.764  1.00  0.00     0.409 C 
HETATM   32  F   UNL     1     -44.632  58.652 -55.172  1.00  0.00    -0.169 F 
HETATM   33  F   UNL     1     -43.704  56.778 -55.756  1.00  0.00    -0.169 F 
HETATM   34  F   UNL     1     -45.604  56.738 -54.721  1.00  0.00    -0.169 F 
ENDBRANCH   8  31
TORSDOF 6
ENDMDL
MODEL 10
REMARK VINA RESULT:      -7.3     15.466     17.897
REMARK  6 active torsions:
REMARK  status: ('A' for Active; 'I' for Inactive)
REMARK    1  A    between atoms: O_2  and  C_3 
REMARK    2  A    between atoms: C_6  and  C_7 
REMARK    3  A    between atoms: C_13  and  C_14 
REMARK       I    between atoms: C_14  and  N_15 
REMARK    4  A    between atoms: N_15  and  C_16 
REMARK    5  A    between atoms: C_18  and  O_19 
REMARK    6  A    between atoms: C_24  and  C_25 
ROOT
HETATM    1  C   UNL     1     -34.309  38.471 -53.780  1.00  0.00     0.118 C 
HETATM    2  N   UNL     1     -35.441  38.967 -54.588  1.00  0.00    -0.365 N 
HETATM    3  C   UNL     1     -35.770  40.293 -54.530  1.00  0.00     0.138 A 
HETATM    4  N   UNL     1     -35.206  41.124 -53.586  1.00  0.00    -0.240 N 
HETATM    5  N   UNL     1     -35.581  42.404 -53.703  1.00  0.00    -0.181 NA
HETATM    6  C   UNL     1     -36.479  42.375 -54.690  1.00  0.00     0.160 A 
HETATM    7  C   UNL     1     -36.644  41.085 -55.254  1.00  0.00     0.096 A 
HETATM    8  C   UNL     1     -34.287  40.686 -52.551  1.00  0.00     0.221 C 
HETATM    9  C   UNL     1     -34.369  39.153 -52.404  1.00  0.00     0.066 C 
HETATM   10  H   UNL     1     -36.214  38.296 -54.614  1.00  0.00     0.161 HD
ENDROOT
BRANCH   7  11
HETATM   11  C   UNL     1     -37.534  40.747 -56.354  1.00  0.00     0.261 C 
HETATM   12  N   UNL     1     -36.894  40.174 -57.436  1.00  0.00    -0.323 N 
HETATM   13  H   UNL     1     -35.881  40.159 -57.379  1.00  0.00     0.169 HD
HETATM   14  O   UNL     1     -38.735  40.977 -56.271  1.00  0.00    -0.267 OA
BRANCH  12  15
HETATM   15  C   UNL     1     -37.477  39.632 -58.599  1.00  0.00     0.037 A 
HETATM   16  C   UNL     1     -38.376  38.561 -58.594  1.00  0.00     0.066 A 
HETATM   17  C   UNL     1     -38.883  38.075 -59.799  1.00  0.00     0.067 A 
HETATM   18  C   UNL     1     -38.506  38.630 -61.013  1.00  0.00     0.036 A 
HETATM   19  C   UNL     1     -37.613  39.698 -61.027  1.00  0.00     0.005 A 
HETATM   20  C   UNL     1     -37.103  40.199 -59.826  1.00  0.00     0.029 A 
BRANCH  17  21
HETATM   21  O   UNL     1     -39.766  37.033 -59.824  1.00  0.00    -0.361 OA
HETATM   22  H   UNL     1     -40.528  37.290 -60.370  1.00  0.00     0.217 HD
ENDBRANCH  17  21
ENDBRANCH  12  15
ENDBRANCH   7  11
BRANCH   1  23
HETATM   23  C   UNL     1     -32.958  38.649 -54.470  1.00  0.00    -0.035 A 
HETATM   24  C   UNL     1     -31.779  38.048 -54.003  1.00  0.00     0.012 A 
HETATM   25  C   UNL     1     -30.576  38.182 -54.702  1.00  0.00     0.037 A 
HETATM   26  C   UNL     1     -30.520  38.913 -55.887  1.00  0.00     0.068 A 
HETATM   27  C   UNL     1     -31.663  39.570 -56.334  1.00  0.00     0.037 A 
HETATM   28  C   UNL     1     -32.866  39.446 -55.627  1.00  0.00     0.012 A 
BRANCH  26  29
HETATM   29  O   UNL     1     -29.301  38.944 -56.502  1.00  0.00    -0.356 OA
HETATM   30  C   UNL     1     -28.361  37.973 -56.052  1.00  0.00     0.210 C 
ENDBRANCH  26  29
ENDBRANCH   1  23
BRANCH   8  31
HETATM   31  C   UNL     1     -34.576  41.330 -51.212  1.00  0.00     0.409 C 
HETATM   32  F   UNL     1     -33.765  40.870 -50.232  1.00  0.00    -0.169 F 
HETATM   33  F   UNL     1     -34.342  42.671 -51.299  1.00  0.00    -0.169 F 
HETATM   34  F   UNL     1     -35.854  41.202 -50.808  1.00  0.00    -0.169 F 
ENDBRANCH   8  31
TORSDOF 6
ENDMDL
