MODEL 1
REMARK VINA RESULT:      -7.6      0.000      0.000
REMARK  4 active torsions:
REMARK  status: ('A' for Active; 'I' for Inactive)
REMARK    1  A    between atoms: C_6  and  C_7 
REMARK    2  A    between atoms: C_7  and  N_8 
REMARK    3  A    between atoms: C_12  and  C_13 
REMARK    4  A    between atoms: C_15  and  C_16 
ROOT
HETATM    1  N   UNL     1     -40.983  54.107 -54.108  1.00  0.00    -0.067 N 
HETATM    2  H   UNL     1     -41.095  54.115 -53.088  1.00  0.00     0.280 HD
HETATM    3  C   UNL     1     -40.558  55.494 -54.534  1.00  0.00     0.236 C 
HETATM    4  C   UNL     1     -41.660  56.503 -54.228  1.00  0.00     0.040 C 
HETATM    5  C   UNL     1     -43.011  56.122 -54.842  1.00  0.00     0.058 C 
HETATM    6  C   UNL     1     -43.385  54.694 -54.433  1.00  0.00     0.040 C 
HETATM    7  C   UNL     1     -42.288  53.679 -54.732  1.00  0.00     0.236 C 
ENDROOT
BRANCH   5   8
HETATM    8  C   UNL     1     -42.978  56.269 -56.333  1.00  0.00     0.108 A 
HETATM    9  N   UNL     1     -42.443  57.275 -56.991  1.00  0.00    -0.229 NA
HETATM   10  C   UNL     1     -42.663  57.025 -58.342  1.00  0.00     0.157 A 
HETATM   11  C   UNL     1     -43.342  55.826 -58.470  1.00  0.00     0.126 A 
HETATM   12  N   UNL     1     -43.532  55.359 -57.198  1.00  0.00    -0.352 N 
HETATM   13  H   UNL     1     -44.006  54.500 -56.947  1.00  0.00     0.166 HD
BRANCH  10  14
HETATM   14  C   UNL     1     -42.207  57.965 -59.428  1.00  0.00     0.436 C 
HETATM   15  F   UNL     1     -41.238  57.413 -60.206  1.00  0.00    -0.165 F 
HETATM   16  F   UNL     1     -43.227  58.314 -60.253  1.00  0.00    -0.165 F 
HETATM   17  F   UNL     1     -41.694  59.113 -58.915  1.00  0.00    -0.165 F 
ENDBRANCH  10  14
ENDBRANCH   5   8
BRANCH   1  18
HETATM   18  C   UNL     1     -39.907  53.073 -54.402  1.00  0.00     0.275 C 
BRANCH  18  19
HETATM   19  C   UNL     1     -39.874  51.965 -53.418  1.00  0.00    -0.001 A 
HETATM   20  C   UNL     1     -39.796  50.608 -53.692  1.00  0.00     0.057 A 
HETATM   21  O   UNL     1     -39.761  49.895 -52.537  1.00  0.00    -0.320 OA
HETATM   22  C   UNL     1     -39.744  49.818 -54.943  1.00  0.00     0.077 C 
HETATM   23  C   UNL     1     -39.841  50.776 -51.507  1.00  0.00     0.050 A 
HETATM   24  C   UNL     1     -39.836  50.202 -50.145  1.00  0.00     0.076 C 
HETATM   25  C   UNL     1     -39.917  52.063 -51.995  1.00  0.00     0.043 A 
ENDBRANCH  18  19
ENDBRANCH   1  18
TORSDOF 4
ENDMDL
MODEL 2
REMARK VINA RESULT:      -7.4      4.869      7.449
REMARK  4 active torsions:
REMARK  status: ('A' for Active; 'I' for Inactive)
REMARK    1  A    between atoms: C_6  and  C_7 
REMARK    2  A    between atoms: C_7  and  N_8 
REMARK    3  A    between atoms: C_12  and  C_13 
REMARK    4  A    between atoms: C_15  and  C_16 
ROOT
HETATM    1  N   UNL     1     -42.018  55.957 -54.728  1.00  0.00    -0.067 N 
HETATM    2  H   UNL     1     -42.174  55.991 -55.741  1.00  0.00     0.280 HD
HETATM    3  C   UNL     1     -40.532  55.806 -54.497  1.00  0.00     0.236 C 
HETATM    4  C   UNL     1     -40.042  54.474 -55.055  1.00  0.00     0.040 C 
HETATM    5  C   UNL     1     -40.814  53.271 -54.506  1.00  0.00     0.058 C 
HETATM    6  C   UNL     1     -42.318  53.481 -54.708  1.00  0.00     0.040 C 
HETATM    7  C   UNL     1     -42.817  54.810 -54.156  1.00  0.00     0.236 C 
ENDROOT
BRANCH   5   8
HETATM    8  C   UNL     1     -40.487  53.043 -53.061  1.00  0.00     0.108 A 
HETATM    9  N   UNL     1     -40.543  53.953 -52.112  1.00  0.00    -0.229 NA
HETATM   10  C   UNL     1     -40.131  53.327 -50.940  1.00  0.00     0.157 A 
HETATM   11  C   UNL     1     -39.836  52.004 -51.219  1.00  0.00     0.126 A 
HETATM   12  N   UNL     1     -40.066  51.837 -52.558  1.00  0.00    -0.352 N 
HETATM   13  H   UNL     1     -39.938  50.979 -53.079  1.00  0.00     0.166 HD
BRANCH  10  14
HETATM   14  C   UNL     1     -40.043  54.048 -49.620  1.00  0.00     0.436 C 
HETATM   15  F   UNL     1     -40.465  53.271 -48.585  1.00  0.00    -0.165 F 
HETATM   16  F   UNL     1     -38.771  54.427 -49.337  1.00  0.00    -0.165 F 
HETATM   17  F   UNL     1     -40.808  55.169 -49.608  1.00  0.00    -0.165 F 
ENDBRANCH  10  14
ENDBRANCH   5   8
BRANCH   1  18
HETATM   18  C   UNL     1     -42.542  57.274 -54.179  1.00  0.00     0.275 C 
BRANCH  18  19
HETATM   19  C   UNL     1     -41.846  57.715 -52.946  1.00  0.00    -0.001 A 
HETATM   20  C   UNL     1     -42.203  57.425 -51.639  1.00  0.00     0.057 A 
HETATM   21  O   UNL     1     -41.314  57.979 -50.774  1.00  0.00    -0.320 OA
HETATM   22  C   UNL     1     -43.312  56.660 -51.025  1.00  0.00     0.077 C 
HETATM   23  C   UNL     1     -40.392  58.654 -51.508  1.00  0.00     0.050 A 
HETATM   24  C   UNL     1     -39.331  59.354 -50.753  1.00  0.00     0.076 C 
HETATM   25  C   UNL     1     -40.676  58.526 -52.850  1.00  0.00     0.043 A 
ENDBRANCH  18  19
ENDBRANCH   1  18
TORSDOF 4
ENDMDL
MODEL 3
REMARK VINA RESULT:      -7.3      1.373      2.293
REMARK  4 active torsions:
REMARK  status: ('A' for Active; 'I' for Inactive)
REMARK    1  A    between atoms: C_6  and  C_7 
REMARK    2  A    between atoms: C_7  and  N_8 
REMARK    3  A    between atoms: C_12  and  C_13 
REMARK    4  A    between atoms: C_15  and  C_16 
ROOT
HETATM    1  N   UNL     1     -41.477  54.672 -53.832  1.00  0.00    -0.067 N 
HETATM    2  H   UNL     1     -41.819  54.550 -52.872  1.00  0.00     0.280 HD
HETATM    3  C   UNL     1     -41.083  56.122 -53.997  1.00  0.00     0.236 C 
HETATM    4  C   UNL     1     -42.306  57.023 -53.854  1.00  0.00     0.040 C 
HETATM    5  C   UNL     1     -43.445  56.645 -54.805  1.00  0.00     0.058 C 
HETATM    6  C   UNL     1     -43.783  55.159 -54.650  1.00  0.00     0.040 C 
HETATM    7  C   UNL     1     -42.567  54.251 -54.788  1.00  0.00     0.236 C 
ENDROOT
BRANCH   5   8
HETATM    8  C   UNL     1     -43.087  56.975 -56.223  1.00  0.00     0.108 A 
HETATM    9  N   UNL     1     -43.302  56.202 -57.265  1.00  0.00    -0.229 NA
HETATM   10  C   UNL     1     -42.789  56.876 -58.370  1.00  0.00     0.157 A 
HETATM   11  C   UNL     1     -42.268  58.088 -57.951  1.00  0.00     0.126 A 
HETATM   12  N   UNL     1     -42.463  58.139 -56.598  1.00  0.00    -0.352 N 
HETATM   13  H   UNL     1     -42.186  58.898 -55.987  1.00  0.00     0.166 HD
BRANCH  10  14
HETATM   14  C   UNL     1     -42.830  56.304 -59.763  1.00  0.00     0.436 C 
HETATM   15  F   UNL     1     -43.569  57.074 -60.608  1.00  0.00    -0.165 F 
HETATM   16  F   UNL     1     -41.589  56.202 -60.303  1.00  0.00    -0.165 F 
HETATM   17  F   UNL     1     -43.380  55.063 -59.780  1.00  0.00    -0.165 F 
ENDBRANCH  10  14
ENDBRANCH   5   8
BRANCH   1  18
HETATM   18  C   UNL     1     -40.282  53.744 -53.972  1.00  0.00     0.275 C 
BRANCH  18  19
HETATM   19  C   UNL     1     -40.110  52.828 -52.819  1.00  0.00    -0.001 A 
HETATM   20  C   UNL     1     -40.281  53.135 -51.479  1.00  0.00     0.057 A 
HETATM   21  O   UNL     1     -40.062  52.035 -50.712  1.00  0.00    -0.320 OA
HETATM   22  C   UNL     1     -40.642  54.372 -50.749  1.00  0.00     0.077 C 
HETATM   23  C   UNL     1     -39.723  51.016 -51.542  1.00  0.00     0.050 A 
HETATM   24  C   UNL     1     -39.424  49.717 -50.904  1.00  0.00     0.076 C 
HETATM   25  C   UNL     1     -39.734  51.452 -52.849  1.00  0.00     0.043 A 
ENDBRANCH  18  19
ENDBRANCH   1  18
TORSDOF 4
ENDMDL
MODEL 4
REMARK VINA RESULT:      -7.2      5.158      8.198
REMARK  4 active torsions:
REMARK  status: ('A' for Active; 'I' for Inactive)
REMARK    1  A    between atoms: C_6  and  C_7 
REMARK    2  A    between atoms: C_7  and  N_8 
REMARK    3  A    between atoms: C_12  and  C_13 
REMARK    4  A    between atoms: C_15  and  C_16 
ROOT
HETATM    1  N   UNL     1     -41.822  55.275 -55.836  1.00  0.00    -0.067 N 
HETATM    2  H   UNL     1     -41.567  54.843 -56.730  1.00  0.00     0.280 HD
HETATM    3  C   UNL     1     -40.574  55.339 -54.985  1.00  0.00     0.236 C 
HETATM    4  C   UNL     1     -40.082  53.932 -54.661  1.00  0.00     0.040 C 
HETATM    5  C   UNL     1     -41.154  53.054 -54.009  1.00  0.00     0.058 C 
HETATM    6  C   UNL     1     -42.422  53.055 -54.870  1.00  0.00     0.040 C 
HETATM    7  C   UNL     1     -42.920  54.456 -55.201  1.00  0.00     0.236 C 
ENDROOT
BRANCH   5   8
HETATM    8  C   UNL     1     -41.445  53.518 -52.614  1.00  0.00     0.108 A 
HETATM    9  N   UNL     1     -40.573  53.581 -51.631  1.00  0.00    -0.229 NA
HETATM   10  C   UNL     1     -41.268  54.031 -50.513  1.00  0.00     0.157 A 
HETATM   11  C   UNL     1     -42.589  54.245 -50.865  1.00  0.00     0.126 A 
HETATM   12  N   UNL     1     -42.687  53.921 -52.191  1.00  0.00    -0.352 N 
HETATM   13  H   UNL     1     -43.530  53.963 -52.750  1.00  0.00     0.166 HD
BRANCH  10  14
HETATM   14  C   UNL     1     -40.613  54.220 -49.170  1.00  0.00     0.436 C 
HETATM   15  F   UNL     1     -41.142  55.274 -48.490  1.00  0.00    -0.165 F 
HETATM   16  F   UNL     1     -40.758  53.127 -48.379  1.00  0.00    -0.165 F 
HETATM   17  F   UNL     1     -39.282  54.456 -49.289  1.00  0.00    -0.165 F 
ENDBRANCH  10  14
ENDBRANCH   5   8
BRANCH   1  18
HETATM   18  C   UNL     1     -42.344  56.662 -56.174  1.00  0.00     0.275 C 
BRANCH  18  19
HETATM   19  C   UNL     1     -43.246  56.679 -57.351  1.00  0.00    -0.001 A 
HETATM   20  C   UNL     1     -44.300  57.549 -57.581  1.00  0.00     0.057 A 
HETATM   21  O   UNL     1     -44.883  57.277 -58.777  1.00  0.00    -0.320 OA
HETATM   22  C   UNL     1     -44.888  58.671 -56.814  1.00  0.00     0.077 C 
HETATM   23  C   UNL     1     -44.233  56.216 -59.320  1.00  0.00     0.050 A 
HETATM   24  C   UNL     1     -44.726  55.740 -60.630  1.00  0.00     0.076 C 
HETATM   25  C   UNL     1     -43.220  55.806 -58.480  1.00  0.00     0.043 A 
ENDBRANCH  18  19
ENDBRANCH   1  18
TORSDOF 4
ENDMDL
MODEL 5
REMARK VINA RESULT:      -7.2      5.389      8.259
REMARK  4 active torsions:
REMARK  status: ('A' for Active; 'I' for Inactive)
REMARK    1  A    between atoms: C_6  and  C_7 
REMARK    2  A    between atoms: C_7  and  N_8 
REMARK    3  A    between atoms: C_12  and  C_13 
REMARK    4  A    between atoms: C_15  and  C_16 
ROOT
HETATM    1  N   UNL     1     -42.507  57.016 -50.811  1.00  0.00    -0.067 N 
HETATM    2  H   UNL     1     -43.091  57.367 -50.044  1.00  0.00     0.280 HD
HETATM    3  C   UNL     1     -43.236  55.853 -51.446  1.00  0.00     0.236 C 
HETATM    4  C   UNL     1     -43.376  54.707 -50.449  1.00  0.00     0.040 C 
HETATM    5  C   UNL     1     -42.037  54.264 -49.850  1.00  0.00     0.058 C 
HETATM    6  C   UNL     1     -41.303  55.474 -49.263  1.00  0.00     0.040 C 
HETATM    7  C   UNL     1     -41.161  56.625 -50.251  1.00  0.00     0.236 C 
ENDROOT
BRANCH   5   8
HETATM    8  C   UNL     1     -41.199  53.567 -50.878  1.00  0.00     0.108 A 
HETATM    9  N   UNL     1     -41.505  53.433 -52.151  1.00  0.00    -0.229 NA
HETATM   10  C   UNL     1     -40.473  52.699 -52.730  1.00  0.00     0.157 A 
HETATM   11  C   UNL     1     -39.533  52.407 -51.758  1.00  0.00     0.126 A 
HETATM   12  N   UNL     1     -40.000  52.961 -50.597  1.00  0.00    -0.352 N 
HETATM   13  H   UNL     1     -39.543  52.920 -49.695  1.00  0.00     0.166 HD
BRANCH  10  14
HETATM   14  C   UNL     1     -40.464  52.319 -54.187  1.00  0.00     0.436 C 
HETATM   15  F   UNL     1     -41.699  51.950 -54.625  1.00  0.00    -0.165 F 
HETATM   16  F   UNL     1     -40.058  53.348 -54.974  1.00  0.00    -0.165 F 
HETATM   17  F   UNL     1     -39.632  51.275 -54.430  1.00  0.00    -0.165 F 
ENDBRANCH  10  14
ENDBRANCH   5   8
BRANCH   1  18
HETATM   18  C   UNL     1     -42.346  58.176 -51.779  1.00  0.00     0.275 C 
BRANCH  18  19
HETATM   19  C   UNL     1     -42.937  59.442 -51.282  1.00  0.00    -0.001 A 
HETATM   20  C   UNL     1     -44.266  59.673 -50.966  1.00  0.00     0.057 A 
HETATM   21  O   UNL     1     -44.430  60.946 -50.518  1.00  0.00    -0.320 OA
HETATM   22  C   UNL     1     -45.490  58.842 -51.014  1.00  0.00     0.077 C 
HETATM   23  C   UNL     1     -43.218  61.557 -50.566  1.00  0.00     0.050 A 
HETATM   24  C   UNL     1     -43.175  62.970 -50.133  1.00  0.00     0.076 C 
HETATM   25  C   UNL     1     -42.266  60.677 -51.033  1.00  0.00     0.043 A 
ENDBRANCH  18  19
ENDBRANCH   1  18
TORSDOF 4
ENDMDL
MODEL 6
REMARK VINA RESULT:      -7.1      4.525      7.835
REMARK  4 active torsions:
REMARK  status: ('A' for Active; 'I' for Inactive)
REMARK    1  A    between atoms: C_6  and  C_7 
REMARK    2  A    between atoms: C_7  and  N_8 
REMARK    3  A    between atoms: C_12  and  C_13 
REMARK    4  A    between atoms: C_15  and  C_16 
ROOT
HETATM    1  N   UNL     1     -42.432  55.465 -55.055  1.00  0.00    -0.067 N 
HETATM    2  H   UNL     1     -42.983  56.304 -54.842  1.00  0.00     0.280 HD
HETATM    3  C   UNL     1     -43.107  54.291 -54.383  1.00  0.00     0.236 C 
HETATM    4  C   UNL     1     -43.075  54.458 -52.867  1.00  0.00     0.040 C 
HETATM    5  C   UNL     1     -41.664  54.676 -52.316  1.00  0.00     0.058 C 
HETATM    6  C   UNL     1     -40.990  55.837 -53.054  1.00  0.00     0.040 C 
HETATM    7  C   UNL     1     -41.019  55.681 -54.569  1.00  0.00     0.236 C 
ENDROOT
BRANCH   5   8
HETATM    8  C   UNL     1     -40.851  53.421 -52.422  1.00  0.00     0.108 A 
HETATM    9  N   UNL     1     -41.014  52.478 -53.324  1.00  0.00    -0.229 NA
HETATM   10  C   UNL     1     -40.077  51.490 -53.038  1.00  0.00     0.157 A 
HETATM   11  C   UNL     1     -39.338  51.881 -51.935  1.00  0.00     0.126 A 
HETATM   12  N   UNL     1     -39.834  53.100 -51.558  1.00  0.00    -0.352 N 
HETATM   13  H   UNL     1     -39.510  53.654 -50.775  1.00  0.00     0.166 HD
BRANCH  10  14
HETATM   14  C   UNL     1     -39.957  50.224 -53.846  1.00  0.00     0.436 C 
HETATM   15  F   UNL     1     -38.915  50.274 -54.719  1.00  0.00    -0.165 F 
HETATM   16  F   UNL     1     -39.759  49.138 -53.056  1.00  0.00    -0.165 F 
HETATM   17  F   UNL     1     -41.075  49.989 -54.580  1.00  0.00    -0.165 F 
ENDBRANCH  10  14
ENDBRANCH   5   8
BRANCH   1  18
HETATM   18  C   UNL     1     -42.442  55.330 -56.569  1.00  0.00     0.275 C 
BRANCH  18  19
HETATM   19  C   UNL     1     -43.233  56.385 -57.247  1.00  0.00    -0.001 A 
HETATM   20  C   UNL     1     -43.713  56.360 -58.547  1.00  0.00     0.057 A 
HETATM   21  O   UNL     1     -44.417  57.492 -58.811  1.00  0.00    -0.320 OA
HETATM   22  C   UNL     1     -43.617  55.384 -59.656  1.00  0.00     0.077 C 
HETATM   23  C   UNL     1     -44.377  58.269 -57.699  1.00  0.00     0.050 A 
HETATM   24  C   UNL     1     -45.075  59.570 -57.777  1.00  0.00     0.076 C 
HETATM   25  C   UNL     1     -43.657  57.636 -56.708  1.00  0.00     0.043 A 
ENDBRANCH  18  19
ENDBRANCH   1  18
TORSDOF 4
ENDMDL
MODEL 7
REMARK VINA RESULT:      -7.1      2.358      3.451
REMARK  4 active torsions:
REMARK  status: ('A' for Active; 'I' for Inactive)
REMARK    1  A    between atoms: C_6  and  C_7 
REMARK    2  A    between atoms: C_7  and  N_8 
REMARK    3  A    between atoms: C_12  and  C_13 
REMARK    4  A    between atoms: C_15  and  C_16 
ROOT
HETATM    1  N   UNL     1     -41.084  53.951 -50.885  1.00  0.00    -0.067 N 
HETATM    2  H   UNL     1     -41.451  53.564 -50.009  1.00  0.00     0.280 HD
HETATM    3  C   UNL     1     -41.011  55.453 -50.727  1.00  0.00     0.236 C 
HETATM    4  C   UNL     1     -42.409  56.035 -50.550  1.00  0.00     0.040 C 
HETATM    5  C   UNL     1     -43.372  55.641 -51.674  1.00  0.00     0.058 C 
HETATM    6  C   UNL     1     -43.381  54.118 -51.842  1.00  0.00     0.040 C 
HETATM    7  C   UNL     1     -41.988  53.527 -52.016  1.00  0.00     0.236 C 
ENDROOT
BRANCH   5   8
HETATM    8  C   UNL     1     -43.003  56.326 -52.955  1.00  0.00     0.108 A 
HETATM    9  N   UNL     1     -43.271  55.881 -54.164  1.00  0.00    -0.229 NA
HETATM   10  C   UNL     1     -42.726  56.802 -55.054  1.00  0.00     0.157 A 
HETATM   11  C   UNL     1     -42.130  57.821 -54.332  1.00  0.00     0.126 A 
HETATM   12  N   UNL     1     -42.314  57.511 -53.012  1.00  0.00    -0.352 N 
HETATM   13  H   UNL     1     -41.988  58.057 -52.224  1.00  0.00     0.166 HD
BRANCH  10  14
HETATM   14  C   UNL     1     -42.809  56.636 -56.549  1.00  0.00     0.436 C 
HETATM   15  F   UNL     1     -44.062  56.885 -57.019  1.00  0.00    -0.165 F 
HETATM   16  F   UNL     1     -41.968  57.481 -57.198  1.00  0.00    -0.165 F 
HETATM   17  F   UNL     1     -42.488  55.375 -56.933  1.00  0.00    -0.165 F 
ENDBRANCH  10  14
ENDBRANCH   5   8
BRANCH   1  18
HETATM   18  C   UNL     1     -39.705  53.337 -51.068  1.00  0.00     0.275 C 
BRANCH  18  19
HETATM   19  C   UNL     1     -39.723  52.078 -51.851  1.00  0.00    -0.001 A 
HETATM   20  C   UNL     1     -39.890  50.793 -51.360  1.00  0.00     0.057 A 
HETATM   21  O   UNL     1     -39.877  49.894 -52.378  1.00  0.00    -0.320 OA
HETATM   22  C   UNL     1     -40.077  50.232 -50.003  1.00  0.00     0.077 C 
HETATM   23  C   UNL     1     -39.674  50.581 -53.531  1.00  0.00     0.050 A 
HETATM   24  C   UNL     1     -39.607  49.782 -54.773  1.00  0.00     0.076 C 
HETATM   25  C   UNL     1     -39.568  51.929 -53.262  1.00  0.00     0.043 A 
ENDBRANCH  18  19
ENDBRANCH   1  18
TORSDOF 4
ENDMDL
MODEL 8
REMARK VINA RESULT:      -7.1      4.190      7.093
REMARK  4 active torsions:
REMARK  status: ('A' for Active; 'I' for Inactive)
REMARK    1  A    between atoms: C_6  and  C_7 
REMARK    2  A    between atoms: C_7  and  N_8 
REMARK    3  A    between atoms: C_12  and  C_13 
REMARK    4  A    between atoms: C_15  and  C_16 
ROOT
HETATM    1  N   UNL     1     -42.688  57.054 -50.884  1.00  0.00    -0.067 N 
HETATM    2  H   UNL     1     -43.186  57.438 -50.074  1.00  0.00     0.280 HD
HETATM    3  C   UNL     1     -43.437  55.823 -51.342  1.00  0.00     0.236 C 
HETATM    4  C   UNL     1     -43.401  54.748 -50.261  1.00  0.00     0.040 C 
HETATM    5  C   UNL     1     -41.980  54.397 -49.810  1.00  0.00     0.058 C 
HETATM    6  C   UNL     1     -41.232  55.671 -49.404  1.00  0.00     0.040 C 
HETATM    7  C   UNL     1     -41.266  56.753 -50.476  1.00  0.00     0.236 C 
ENDROOT
BRANCH   5   8
HETATM    8  C   UNL     1     -41.246  53.658 -50.888  1.00  0.00     0.108 A 
HETATM    9  N   UNL     1     -41.521  53.710 -52.174  1.00  0.00    -0.229 NA
HETATM   10  C   UNL     1     -40.623  52.854 -52.805  1.00  0.00     0.157 A 
HETATM   11  C   UNL     1     -39.792  52.296 -51.850  1.00  0.00     0.126 A 
HETATM   12  N   UNL     1     -40.193  52.812 -50.648  1.00  0.00    -0.352 N 
HETATM   13  H   UNL     1     -39.787  52.596 -49.745  1.00  0.00     0.166 HD
BRANCH  10  14
HETATM   14  C   UNL     1     -40.627  52.625 -54.294  1.00  0.00     0.436 C 
HETATM   15  F   UNL     1     -40.146  51.395 -54.621  1.00  0.00    -0.165 F 
HETATM   16  F   UNL     1     -41.878  52.711 -54.814  1.00  0.00    -0.165 F 
HETATM   17  F   UNL     1     -39.859  53.535 -54.944  1.00  0.00    -0.165 F 
ENDBRANCH  10  14
ENDBRANCH   5   8
BRANCH   1  18
HETATM   18  C   UNL     1     -42.700  58.147 -51.940  1.00  0.00     0.275 C 
BRANCH  18  19
HETATM   19  C   UNL     1     -42.939  57.635 -53.311  1.00  0.00    -0.001 A 
HETATM   20  C   UNL     1     -43.964  58.000 -54.170  1.00  0.00     0.057 A 
HETATM   21  O   UNL     1     -43.845  57.341 -55.352  1.00  0.00    -0.320 OA
HETATM   22  C   UNL     1     -45.111  58.929 -54.059  1.00  0.00     0.077 C 
HETATM   23  C   UNL     1     -42.763  56.526 -55.262  1.00  0.00     0.050 A 
HETATM   24  C   UNL     1     -42.461  55.696 -56.447  1.00  0.00     0.076 C 
HETATM   25  C   UNL     1     -42.172  56.666 -54.024  1.00  0.00     0.043 A 
ENDBRANCH  18  19
ENDBRANCH   1  18
TORSDOF 4
ENDMDL
MODEL 9
REMARK VINA RESULT:      -7.1      4.628      7.228
REMARK  4 active torsions:
REMARK  status: ('A' for Active; 'I' for Inactive)
REMARK    1  A    between atoms: C_6  and  C_7 
REMARK    2  A    between atoms: C_7  and  N_8 
REMARK    3  A    between atoms: C_12  and  C_13 
REMARK    4  A    between atoms: C_15  and  C_16 
ROOT
HETATM    1  N   UNL     1     -42.090  57.711 -50.491  1.00  0.00    -0.067 N 
HETATM    2  H   UNL     1     -42.438  57.982 -49.565  1.00  0.00     0.280 HD
HETATM    3  C   UNL     1     -43.289  57.411 -51.361  1.00  0.00     0.236 C 
HETATM    4  C   UNL     1     -44.050  56.206 -50.817  1.00  0.00     0.040 C 
HETATM    5  C   UNL     1     -43.168  54.967 -50.639  1.00  0.00     0.058 C 
HETATM    6  C   UNL     1     -41.937  55.320 -49.798  1.00  0.00     0.040 C 
HETATM    7  C   UNL     1     -41.171  56.524 -50.333  1.00  0.00     0.236 C 
ENDROOT
BRANCH   5   8
HETATM    8  C   UNL     1     -42.772  54.401 -51.969  1.00  0.00     0.108 A 
HETATM    9  N   UNL     1     -41.697  53.679 -52.204  1.00  0.00    -0.229 NA
HETATM   10  C   UNL     1     -41.702  53.393 -53.566  1.00  0.00     0.157 A 
HETATM   11  C   UNL     1     -42.826  53.962 -54.137  1.00  0.00     0.126 A 
HETATM   12  N   UNL     1     -43.493  54.592 -53.122  1.00  0.00    -0.352 N 
HETATM   13  H   UNL     1     -44.357  55.112 -53.213  1.00  0.00     0.166 HD
BRANCH  10  14
HETATM   14  C   UNL     1     -40.615  52.590 -54.232  1.00  0.00     0.436 C 
HETATM   15  F   UNL     1     -40.111  53.225 -55.325  1.00  0.00    -0.165 F 
HETATM   16  F   UNL     1     -39.574  52.357 -53.394  1.00  0.00    -0.165 F 
HETATM   17  F   UNL     1     -41.070  51.382 -54.654  1.00  0.00    -0.165 F 
ENDBRANCH  10  14
ENDBRANCH   5   8
BRANCH   1  18
HETATM   18  C   UNL     1     -41.305  58.906 -51.008  1.00  0.00     0.275 C 
BRANCH  18  19
HETATM   19  C   UNL     1     -41.604  59.237 -52.423  1.00  0.00    -0.001 A 
HETATM   20  C   UNL     1     -41.299  58.475 -53.539  1.00  0.00     0.057 A 
HETATM   21  O   UNL     1     -41.750  59.087 -54.665  1.00  0.00    -0.320 OA
HETATM   22  C   UNL     1     -40.610  57.179 -53.738  1.00  0.00     0.077 C 
HETATM   23  C   UNL     1     -42.325  60.259 -54.293  1.00  0.00     0.050 A 
HETATM   24  C   UNL     1     -42.872  61.100 -55.379  1.00  0.00     0.076 C 
HETATM   25  C   UNL     1     -42.258  60.402 -52.924  1.00  0.00     0.043 A 
ENDBRANCH  18  19
ENDBRANCH   1  18
TORSDOF 4
ENDMDL
MODEL 10
REMARK VINA RESULT:      -7.0      1.688      2.156
REMARK  4 active torsions:
REMARK  status: ('A' for Active; 'I' for Inactive)
REMARK    1  A    between atoms: C_6  and  C_7 
REMARK    2  A    between atoms: C_7  and  N_8 
REMARK    3  A    between atoms: C_12  and  C_13 
REMARK    4  A    between atoms: C_15  and  C_16 
ROOT
HETATM    1  N   UNL     1     -41.941  55.175 -53.489  1.00  0.00    -0.067 N 
HETATM    2  H   UNL     1     -42.106  55.522 -52.538  1.00  0.00     0.280 HD
HETATM    3  C   UNL     1     -41.161  56.235 -54.234  1.00  0.00     0.236 C 
HETATM    4  C   UNL     1     -41.994  57.505 -54.375  1.00  0.00     0.040 C 
HETATM    5  C   UNL     1     -43.358  57.260 -55.025  1.00  0.00     0.058 C 
HETATM    6  C   UNL     1     -44.099  56.145 -54.279  1.00  0.00     0.040 C 
HETATM    7  C   UNL     1     -43.273  54.873 -54.130  1.00  0.00     0.236 C 
ENDROOT
BRANCH   5   8
HETATM    8  C   UNL     1     -43.204  56.929 -56.479  1.00  0.00     0.108 A 
HETATM    9  N   UNL     1     -42.657  57.709 -57.386  1.00  0.00    -0.229 NA
HETATM   10  C   UNL     1     -42.749  57.031 -58.598  1.00  0.00     0.157 A 
HETATM   11  C   UNL     1     -43.363  55.810 -58.381  1.00  0.00     0.126 A 
HETATM   12  N   UNL     1     -43.643  55.757 -57.042  1.00  0.00    -0.352 N 
HETATM   13  H   UNL     1     -44.100  54.992 -56.562  1.00  0.00     0.166 HD
BRANCH  10  14
HETATM   14  C   UNL     1     -42.242  57.608 -59.894  1.00  0.00     0.436 C 
HETATM   15  F   UNL     1     -43.210  57.640 -60.850  1.00  0.00    -0.165 F 
HETATM   16  F   UNL     1     -41.797  58.881 -59.739  1.00  0.00    -0.165 F 
HETATM   17  F   UNL     1     -41.213  56.881 -60.399  1.00  0.00    -0.165 F 
ENDBRANCH  10  14
ENDBRANCH   5   8
BRANCH   1  18
HETATM   18  C   UNL     1     -41.141  53.892 -53.334  1.00  0.00     0.275 C 
BRANCH  18  19
HETATM   19  C   UNL     1     -40.780  53.591 -51.928  1.00  0.00    -0.001 A 
HETATM   20  C   UNL     1     -40.092  52.482 -51.463  1.00  0.00     0.057 A 
HETATM   21  O   UNL     1     -39.923  52.562 -50.117  1.00  0.00    -0.320 OA
HETATM   22  C   UNL     1     -39.525  51.280 -52.116  1.00  0.00     0.077 C 
HETATM   23  C   UNL     1     -40.522  53.705 -49.695  1.00  0.00     0.050 A 
HETATM   24  C   UNL     1     -40.471  53.980 -48.244  1.00  0.00     0.076 C 
HETATM   25  C   UNL     1     -41.068  54.373 -50.769  1.00  0.00     0.043 A 
ENDBRANCH  18  19
ENDBRANCH   1  18
TORSDOF 4
ENDMDL
