MODEL 1
REMARK VINA RESULT:      -8.7      0.000      0.000
REMARK  3 active torsions:
REMARK  status: ('A' for Active; 'I' for Inactive)
REMARK    1  A    between atoms: C_9  and  C_10 
REMARK    2  A    between atoms: C_16  and  C_17 
REMARK       I    between atoms: C_17  and  N_18 
REMARK    3  A    between atoms: N_18  and  C_19 
ROOT
HETATM    1  C   UNL     1     -41.672  54.785 -49.217  1.00  0.00     0.070 C 
HETATM    2  C   UNL     1     -41.496  55.812 -50.309  1.00  0.00     0.037 C 
HETATM    3  N   UNL     1     -41.305  57.122 -49.873  1.00  0.00    -0.191 N 
HETATM    4  C   UNL     1     -40.888  58.111 -50.691  1.00  0.00     0.735 A 
HETATM    5  N   UNL     1     -40.792  57.871 -52.032  1.00  0.00    -0.092 N 
HETATM    6  N   UNL     1     -40.294  58.945 -52.663  1.00  0.00     0.012 NA
HETATM    7  N   UNL     1     -40.129  59.847 -51.700  1.00  0.00     0.033 NA
HETATM    8  N   UNL     1     -40.495  59.340 -50.466  1.00  0.00     0.030 NA
HETATM    9  C   UNL     1     -41.139  56.608 -52.678  1.00  0.00     0.199 C 
HETATM   10  C   UNL     1     -41.443  55.532 -51.636  1.00  0.00     0.062 C 
HETATM   11  H   UNL     1     -41.267  57.281 -48.868  1.00  0.00     0.184 HD
ENDROOT
BRANCH  10  12
HETATM   12  C   UNL     1     -41.547  54.161 -52.206  1.00  0.00     0.256 C 
HETATM   13  N   UNL     1     -40.352  53.479 -52.226  1.00  0.00    -0.323 N 
HETATM   14  H   UNL     1     -39.545  53.942 -51.826  1.00  0.00     0.169 HD
HETATM   15  O   UNL     1     -42.651  53.755 -52.545  1.00  0.00    -0.267 OA
BRANCH  13  16
HETATM   16  C   UNL     1     -40.109  52.199 -52.768  1.00  0.00     0.035 A 
HETATM   17  C   UNL     1     -40.181  51.901 -54.129  1.00  0.00     0.029 A 
HETATM   18  C   UNL     1     -39.902  50.609 -54.589  1.00  0.00     0.002 A 
HETATM   19  C   UNL     1     -39.543  49.607 -53.692  1.00  0.00     0.000 A 
HETATM   20  C   UNL     1     -39.469  49.892 -52.331  1.00  0.00     0.002 A 
HETATM   21  C   UNL     1     -39.756  51.181 -51.871  1.00  0.00     0.029 A 
ENDBRANCH  13  16
ENDBRANCH  10  12
BRANCH   9  22
HETATM   22  C   UNL     1     -42.292  56.807 -53.645  1.00  0.00    -0.011 A 
HETATM   23  C   UNL     1     -42.139  56.666 -55.024  1.00  0.00     0.125 A 
HETATM   24  N   UNL     1     -43.127  56.866 -55.923  1.00  0.00    -0.272 NA
HETATM   25  C   UNL     1     -44.337  57.207 -55.433  1.00  0.00     0.116 A 
HETATM   26  C   UNL     1     -44.599  57.376 -54.084  1.00  0.00     0.020 A 
HETATM   27  C   UNL     1     -43.559  57.180 -53.181  1.00  0.00     0.012 A 
ENDBRANCH   9  22
TORSDOF 3
ENDMDL
MODEL 2
REMARK VINA RESULT:      -8.0      1.911      4.332
REMARK  3 active torsions:
REMARK  status: ('A' for Active; 'I' for Inactive)
REMARK    1  A    between atoms: C_9  and  C_10 
REMARK    2  A    between atoms: C_16  and  C_17 
REMARK       I    between atoms: C_17  and  N_18 
REMARK    3  A    between atoms: N_18  and  C_19 
ROOT
HETATM    1  C   UNL     1     -42.837  55.398 -56.767  1.00  0.00     0.070 C 
HETATM    2  C   UNL     1     -43.046  56.555 -55.821  1.00  0.00     0.037 C 
HETATM    3  N   UNL     1     -43.453  57.748 -56.416  1.00  0.00    -0.191 N 
HETATM    4  C   UNL     1     -43.921  58.796 -55.707  1.00  0.00     0.735 A 
HETATM    5  N   UNL     1     -43.856  58.761 -54.344  1.00  0.00    -0.092 N 
HETATM    6  N   UNL     1     -44.433  59.853 -53.821  1.00  0.00     0.012 NA
HETATM    7  N   UNL     1     -44.808  60.567 -54.879  1.00  0.00     0.033 NA
HETATM    8  N   UNL     1     -44.496  59.919 -56.060  1.00  0.00     0.030 NA
HETATM    9  C   UNL     1     -43.282  57.665 -53.566  1.00  0.00     0.199 C 
HETATM   10  C   UNL     1     -42.935  56.484 -54.470  1.00  0.00     0.062 C 
HETATM   11  H   UNL     1     -43.607  57.741 -57.422  1.00  0.00     0.184 HD
ENDROOT
BRANCH  10  12
HETATM   12  C   UNL     1     -42.593  55.242 -53.724  1.00  0.00     0.256 C 
HETATM   13  N   UNL     1     -41.261  54.902 -53.797  1.00  0.00    -0.323 N 
HETATM   14  H   UNL     1     -40.648  55.531 -54.301  1.00  0.00     0.169 HD
HETATM   15  O   UNL     1     -43.479  54.681 -53.092  1.00  0.00    -0.267 OA
BRANCH  13  16
HETATM   16  C   UNL     1     -40.643  53.752 -53.263  1.00  0.00     0.035 A 
HETATM   17  C   UNL     1     -40.347  53.581 -51.910  1.00  0.00     0.029 A 
HETATM   18  C   UNL     1     -39.752  52.398 -51.456  1.00  0.00     0.002 A 
HETATM   19  C   UNL     1     -39.455  51.374 -52.351  1.00  0.00     0.000 A 
HETATM   20  C   UNL     1     -39.745  51.534 -53.704  1.00  0.00     0.002 A 
HETATM   21  C   UNL     1     -40.332  52.719 -54.158  1.00  0.00     0.029 A 
ENDBRANCH  13  16
ENDBRANCH  10  12
BRANCH   9  22
HETATM   22  C   UNL     1     -42.080  58.150 -52.775  1.00  0.00    -0.011 A 
HETATM   23  C   UNL     1     -40.954  58.693 -53.392  1.00  0.00     0.125 A 
HETATM   24  N   UNL     1     -39.849  59.106 -52.732  1.00  0.00    -0.272 NA
HETATM   25  C   UNL     1     -39.866  58.993 -51.387  1.00  0.00     0.116 A 
HETATM   26  C   UNL     1     -40.929  58.467 -50.674  1.00  0.00     0.020 A 
HETATM   27  C   UNL     1     -42.047  58.033 -51.380  1.00  0.00     0.012 A 
ENDBRANCH   9  22
TORSDOF 3
ENDMDL
MODEL 3
REMARK VINA RESULT:      -7.7      2.575      5.279
REMARK  3 active torsions:
REMARK  status: ('A' for Active; 'I' for Inactive)
REMARK    1  A    between atoms: C_9  and  C_10 
REMARK    2  A    between atoms: C_16  and  C_17 
REMARK       I    between atoms: C_17  and  N_18 
REMARK    3  A    between atoms: N_18  and  C_19 
ROOT
HETATM    1  C   UNL     1     -41.211  52.833 -53.587  1.00  0.00     0.070 C 
HETATM    2  C   UNL     1     -41.350  53.784 -52.423  1.00  0.00     0.037 C 
HETATM    3  N   UNL     1     -41.329  53.192 -51.161  1.00  0.00    -0.191 N 
HETATM    4  C   UNL     1     -41.191  53.904 -50.023  1.00  0.00     0.735 A 
HETATM    5  N   UNL     1     -41.226  55.268 -50.080  1.00  0.00    -0.092 N 
HETATM    6  N   UNL     1     -41.000  55.791 -48.867  1.00  0.00     0.012 NA
HETATM    7  N   UNL     1     -40.869  54.734 -48.070  1.00  0.00     0.033 NA
HETATM    8  N   UNL     1     -40.985  53.553 -48.778  1.00  0.00     0.030 NA
HETATM    9  C   UNL     1     -41.435  56.044 -51.300  1.00  0.00     0.199 C 
HETATM   10  C   UNL     1     -41.420  55.135 -52.529  1.00  0.00     0.062 C 
HETATM   11  H   UNL     1     -41.191  52.185 -51.118  1.00  0.00     0.184 HD
ENDROOT
BRANCH  10  12
HETATM   12  C   UNL     1     -41.363  55.877 -53.819  1.00  0.00     0.256 C 
HETATM   13  N   UNL     1     -42.535  55.824 -54.538  1.00  0.00    -0.323 N 
HETATM   14  H   UNL     1     -43.316  55.336 -54.119  1.00  0.00     0.169 HD
HETATM   15  O   UNL     1     -40.338  56.489 -54.092  1.00  0.00    -0.267 OA
BRANCH  13  16
HETATM   16  C   UNL     1     -42.773  56.359 -55.822  1.00  0.00     0.035 A 
HETATM   17  C   UNL     1     -42.913  57.722 -56.087  1.00  0.00     0.029 A 
HETATM   18  C   UNL     1     -43.125  58.174 -57.394  1.00  0.00     0.002 A 
HETATM   19  C   UNL     1     -43.193  57.267 -58.448  1.00  0.00     0.000 A 
HETATM   20  C   UNL     1     -43.056  55.904 -58.196  1.00  0.00     0.002 A 
HETATM   21  C   UNL     1     -42.852  55.453 -56.888  1.00  0.00     0.029 A 
ENDBRANCH  13  16
ENDBRANCH  10  12
BRANCH   9  22
HETATM   22  C   UNL     1     -42.718  56.849 -51.203  1.00  0.00    -0.011 A 
HETATM   23  C   UNL     1     -43.939  56.265 -50.872  1.00  0.00     0.125 A 
HETATM   24  N   UNL     1     -45.111  56.936 -50.806  1.00  0.00    -0.272 NA
HETATM   25  C   UNL     1     -45.070  58.260 -51.065  1.00  0.00     0.116 A 
HETATM   26  C   UNL     1     -43.913  58.940 -51.405  1.00  0.00     0.020 A 
HETATM   27  C   UNL     1     -42.724  58.222 -51.483  1.00  0.00     0.012 A 
ENDBRANCH   9  22
TORSDOF 3
ENDMDL
MODEL 4
REMARK VINA RESULT:      -7.6      1.555      2.111
REMARK  3 active torsions:
REMARK  status: ('A' for Active; 'I' for Inactive)
REMARK    1  A    between atoms: C_9  and  C_10 
REMARK    2  A    between atoms: C_16  and  C_17 
REMARK       I    between atoms: C_17  and  N_18 
REMARK    3  A    between atoms: N_18  and  C_19 
ROOT
HETATM    1  C   UNL     1     -43.989  55.546 -50.300  1.00  0.00     0.070 C 
HETATM    2  C   UNL     1     -43.403  56.499 -51.314  1.00  0.00     0.037 C 
HETATM    3  N   UNL     1     -43.521  57.852 -51.001  1.00  0.00    -0.191 N 
HETATM    4  C   UNL     1     -42.844  58.816 -51.659  1.00  0.00     0.735 A 
HETATM    5  N   UNL     1     -42.131  58.486 -52.776  1.00  0.00    -0.092 N 
HETATM    6  N   UNL     1     -41.474  59.558 -53.243  1.00  0.00     0.012 NA
HETATM    7  N   UNL     1     -41.828  60.545 -52.425  1.00  0.00     0.033 NA
HETATM    8  N   UNL     1     -42.681  60.096 -51.433  1.00  0.00     0.030 NA
HETATM    9  C   UNL     1     -42.059  57.145 -53.351  1.00  0.00     0.199 C 
HETATM   10  C   UNL     1     -42.733  56.125 -52.433  1.00  0.00     0.062 C 
HETATM   11  H   UNL     1     -43.956  58.092 -50.112  1.00  0.00     0.184 HD
ENDROOT
BRANCH  10  12
HETATM   12  C   UNL     1     -42.472  54.712 -52.819  1.00  0.00     0.256 C 
HETATM   13  N   UNL     1     -41.203  54.279 -52.510  1.00  0.00    -0.323 N 
HETATM   14  H   UNL     1     -40.595  54.929 -52.026  1.00  0.00     0.169 HD
HETATM   15  O   UNL     1     -43.389  54.065 -53.311  1.00  0.00    -0.267 OA
BRANCH  13  16
HETATM   16  C   UNL     1     -40.631  53.025 -52.812  1.00  0.00     0.035 A 
HETATM   17  C   UNL     1     -39.987  52.214 -51.876  1.00  0.00     0.029 A 
HETATM   18  C   UNL     1     -39.465  50.972 -52.253  1.00  0.00     0.002 A 
HETATM   19  C   UNL     1     -39.587  50.528 -53.566  1.00  0.00     0.000 A 
HETATM   20  C   UNL     1     -40.227  51.329 -54.509  1.00  0.00     0.002 A 
HETATM   21  C   UNL     1     -40.741  52.573 -54.134  1.00  0.00     0.029 A 
ENDBRANCH  13  16
ENDBRANCH  10  12
BRANCH   9  22
HETATM   22  C   UNL     1     -42.654  57.135 -54.748  1.00  0.00    -0.011 A 
HETATM   23  C   UNL     1     -43.885  57.722 -55.036  1.00  0.00     0.125 A 
HETATM   24  N   UNL     1     -44.468  57.708 -56.255  1.00  0.00    -0.272 NA
HETATM   25  C   UNL     1     -43.789  57.095 -57.247  1.00  0.00     0.116 A 
HETATM   26  C   UNL     1     -42.563  56.479 -57.072  1.00  0.00     0.020 A 
HETATM   27  C   UNL     1     -41.993  56.493 -55.802  1.00  0.00     0.012 A 
ENDBRANCH   9  22
TORSDOF 3
ENDMDL
MODEL 5
REMARK VINA RESULT:      -7.6      2.704      5.935
REMARK  3 active torsions:
REMARK  status: ('A' for Active; 'I' for Inactive)
REMARK    1  A    between atoms: C_9  and  C_10 
REMARK    2  A    between atoms: C_16  and  C_17 
REMARK       I    between atoms: C_17  and  N_18 
REMARK    3  A    between atoms: N_18  and  C_19 
ROOT
HETATM    1  C   UNL     1     -42.114  60.058 -55.738  1.00  0.00     0.070 C 
HETATM    2  C   UNL     1     -41.911  58.998 -54.683  1.00  0.00     0.037 C 
HETATM    3  N   UNL     1     -41.060  59.351 -53.637  1.00  0.00    -0.191 N 
HETATM    4  C   UNL     1     -40.964  58.632 -52.499  1.00  0.00     0.735 A 
HETATM    5  N   UNL     1     -41.603  57.428 -52.415  1.00  0.00    -0.092 N 
HETATM    6  N   UNL     1     -41.450  56.904 -51.190  1.00  0.00     0.012 NA
HETATM    7  N   UNL     1     -40.681  57.780 -50.549  1.00  0.00     0.033 NA
HETATM    8  N   UNL     1     -40.372  58.862 -51.353  1.00  0.00     0.030 NA
HETATM    9  C   UNL     1     -42.380  56.822 -53.493  1.00  0.00     0.199 C 
HETATM   10  C   UNL     1     -42.541  57.796 -54.659  1.00  0.00     0.062 C 
HETATM   11  H   UNL     1     -40.671  60.292 -53.645  1.00  0.00     0.184 HD
ENDROOT
BRANCH  10  12
HETATM   12  C   UNL     1     -43.533  57.352 -55.676  1.00  0.00     0.256 C 
HETATM   13  N   UNL     1     -42.981  57.084 -56.907  1.00  0.00    -0.323 N 
HETATM   14  H   UNL     1     -41.976  57.171 -56.995  1.00  0.00     0.169 HD
HETATM   15  O   UNL     1     -44.700  57.217 -55.328  1.00  0.00    -0.267 OA
BRANCH  13  16
HETATM   16  C   UNL     1     -43.662  56.718 -58.087  1.00  0.00     0.035 A 
HETATM   17  C   UNL     1     -44.549  57.554 -58.768  1.00  0.00     0.029 A 
HETATM   18  C   UNL     1     -45.168  57.123 -59.947  1.00  0.00     0.002 A 
HETATM   19  C   UNL     1     -44.902  55.856 -60.457  1.00  0.00     0.000 A 
HETATM   20  C   UNL     1     -44.019  55.013 -59.786  1.00  0.00     0.002 A 
HETATM   21  C   UNL     1     -43.407  55.440 -58.604  1.00  0.00     0.029 A 
ENDBRANCH  13  16
ENDBRANCH  10  12
BRANCH   9  22
HETATM   22  C   UNL     1     -41.749  55.511 -53.928  1.00  0.00    -0.011 A 
HETATM   23  C   UNL     1     -42.298  54.274 -53.592  1.00  0.00     0.125 A 
HETATM   24  N   UNL     1     -41.753  53.084 -53.928  1.00  0.00    -0.272 NA
HETATM   25  C   UNL     1     -40.614  53.118 -54.651  1.00  0.00     0.116 A 
HETATM   26  C   UNL     1     -39.983  54.288 -55.036  1.00  0.00     0.020 A 
HETATM   27  C   UNL     1     -40.556  55.500 -54.661  1.00  0.00     0.012 A 
ENDBRANCH   9  22
TORSDOF 3
ENDMDL
MODEL 6
REMARK VINA RESULT:      -7.4      2.003      4.211
REMARK  3 active torsions:
REMARK  status: ('A' for Active; 'I' for Inactive)
REMARK    1  A    between atoms: C_9  and  C_10 
REMARK    2  A    between atoms: C_16  and  C_17 
REMARK       I    between atoms: C_17  and  N_18 
REMARK    3  A    between atoms: N_18  and  C_19 
ROOT
HETATM    1  C   UNL     1     -42.487  55.753 -56.964  1.00  0.00     0.070 C 
HETATM    2  C   UNL     1     -42.769  56.423 -55.641  1.00  0.00     0.037 C 
HETATM    3  N   UNL     1     -43.772  57.391 -55.663  1.00  0.00    -0.191 N 
HETATM    4  C   UNL     1     -44.318  57.902 -54.539  1.00  0.00     0.735 A 
HETATM    5  N   UNL     1     -43.774  57.584 -53.328  1.00  0.00    -0.092 N 
HETATM    6  N   UNL     1     -44.495  58.126 -52.336  1.00  0.00     0.012 NA
HETATM    7  N   UNL     1     -45.454  58.806 -52.958  1.00  0.00     0.033 NA
HETATM    8  N   UNL     1     -45.355  58.674 -54.331  1.00  0.00     0.030 NA
HETATM    9  C   UNL     1     -42.599  56.735 -53.142  1.00  0.00     0.199 C 
HETATM   10  C   UNL     1     -42.174  56.099 -54.465  1.00  0.00     0.062 C 
HETATM   11  H   UNL     1     -44.253  57.548 -56.546  1.00  0.00     0.184 HD
ENDROOT
BRANCH  10  12
HETATM   12  C   UNL     1     -41.156  55.024 -54.310  1.00  0.00     0.256 C 
HETATM   13  N   UNL     1     -41.660  53.857 -53.783  1.00  0.00    -0.323 N 
HETATM   14  H   UNL     1     -42.654  53.824 -53.592  1.00  0.00     0.169 HD
HETATM   15  O   UNL     1     -40.016  55.244 -54.699  1.00  0.00    -0.267 OA
BRANCH  13  16
HETATM   16  C   UNL     1     -40.940  52.691 -53.448  1.00  0.00     0.035 A 
HETATM   17  C   UNL     1     -40.751  51.614 -54.316  1.00  0.00     0.029 A 
HETATM   18  C   UNL     1     -40.004  50.501 -53.915  1.00  0.00     0.002 A 
HETATM   19  C   UNL     1     -39.435  50.458 -52.646  1.00  0.00     0.000 A 
HETATM   20  C   UNL     1     -39.617  51.526 -51.770  1.00  0.00     0.002 A 
HETATM   21  C   UNL     1     -40.371  52.634 -52.169  1.00  0.00     0.029 A 
ENDBRANCH  13  16
ENDBRANCH  10  12
BRANCH   9  22
HETATM   22  C   UNL     1     -41.471  57.524 -52.501  1.00  0.00    -0.011 A 
HETATM   23  C   UNL     1     -41.191  57.448 -51.138  1.00  0.00     0.125 A 
HETATM   24  N   UNL     1     -40.221  58.157 -50.519  1.00  0.00    -0.272 NA
HETATM   25  C   UNL     1     -39.475  58.973 -51.294  1.00  0.00     0.116 A 
HETATM   26  C   UNL     1     -39.669  59.127 -52.656  1.00  0.00     0.020 A 
HETATM   27  C   UNL     1     -40.686  58.398 -53.264  1.00  0.00     0.012 A 
ENDBRANCH   9  22
TORSDOF 3
ENDMDL
MODEL 7
REMARK VINA RESULT:      -7.4      2.353      4.898
REMARK  3 active torsions:
REMARK  status: ('A' for Active; 'I' for Inactive)
REMARK    1  A    between atoms: C_9  and  C_10 
REMARK    2  A    between atoms: C_16  and  C_17 
REMARK       I    between atoms: C_17  and  N_18 
REMARK    3  A    between atoms: N_18  and  C_19 
ROOT
HETATM    1  C   UNL     1     -40.899  54.284 -55.462  1.00  0.00     0.070 C 
HETATM    2  C   UNL     1     -41.921  55.394 -55.441  1.00  0.00     0.037 C 
HETATM    3  N   UNL     1     -42.104  56.062 -56.650  1.00  0.00    -0.191 N 
HETATM    4  C   UNL     1     -43.139  56.900 -56.873  1.00  0.00     0.735 A 
HETATM    5  N   UNL     1     -43.960  57.236 -55.836  1.00  0.00    -0.092 N 
HETATM    6  N   UNL     1     -44.964  58.013 -56.268  1.00  0.00     0.012 NA
HETATM    7  N   UNL     1     -44.719  58.177 -57.566  1.00  0.00     0.033 NA
HETATM    8  N   UNL     1     -43.585  57.488 -57.955  1.00  0.00     0.030 NA
HETATM    9  C   UNL     1     -43.793  56.774 -54.459  1.00  0.00     0.199 C 
HETATM   10  C   UNL     1     -42.692  55.719 -54.372  1.00  0.00     0.062 C 
HETATM   11  H   UNL     1     -41.568  55.736 -57.452  1.00  0.00     0.184 HD
ENDROOT
BRANCH  10  12
HETATM   12  C   UNL     1     -42.642  55.016 -53.061  1.00  0.00     0.256 C 
HETATM   13  N   UNL     1     -41.540  55.339 -52.302  1.00  0.00    -0.323 N 
HETATM   14  H   UNL     1     -40.906  56.034 -52.676  1.00  0.00     0.169 HD
HETATM   15  O   UNL     1     -43.574  54.281 -52.759  1.00  0.00    -0.267 OA
BRANCH  13  16
HETATM   16  C   UNL     1     -41.171  54.791 -51.055  1.00  0.00     0.035 A 
HETATM   17  C   UNL     1     -41.358  55.436 -49.832  1.00  0.00     0.029 A 
HETATM   18  C   UNL     1     -40.984  54.814 -48.636  1.00  0.00     0.002 A 
HETATM   19  C   UNL     1     -40.427  53.538 -48.653  1.00  0.00     0.000 A 
HETATM   20  C   UNL     1     -40.236  52.884 -49.868  1.00  0.00     0.002 A 
HETATM   21  C   UNL     1     -40.601  53.510 -51.063  1.00  0.00     0.029 A 
ENDBRANCH  13  16
ENDBRANCH  10  12
BRANCH   9  22
HETATM   22  C   UNL     1     -43.531  57.950 -53.535  1.00  0.00    -0.011 A 
HETATM   23  C   UNL     1     -42.429  58.789 -53.693  1.00  0.00     0.125 A 
HETATM   24  N   UNL     1     -42.138  59.825 -52.875  1.00  0.00    -0.272 NA
HETATM   25  C   UNL     1     -42.993  60.055 -51.856  1.00  0.00     0.116 A 
HETATM   26  C   UNL     1     -44.115  59.284 -51.606  1.00  0.00     0.020 A 
HETATM   27  C   UNL     1     -44.381  58.213 -52.453  1.00  0.00     0.012 A 
ENDBRANCH   9  22
TORSDOF 3
ENDMDL
MODEL 8
REMARK VINA RESULT:      -7.2      2.558      4.640
REMARK  3 active torsions:
REMARK  status: ('A' for Active; 'I' for Inactive)
REMARK    1  A    between atoms: C_9  and  C_10 
REMARK    2  A    between atoms: C_16  and  C_17 
REMARK       I    between atoms: C_17  and  N_18 
REMARK    3  A    between atoms: N_18  and  C_19 
ROOT
HETATM    1  C   UNL     1     -42.401  57.561 -57.317  1.00  0.00     0.070 C 
HETATM    2  C   UNL     1     -42.593  58.415 -56.088  1.00  0.00     0.037 C 
HETATM    3  N   UNL     1     -42.756  59.779 -56.327  1.00  0.00    -0.191 N 
HETATM    4  C   UNL     1     -43.182  60.640 -55.380  1.00  0.00     0.735 A 
HETATM    5  N   UNL     1     -43.317  60.204 -54.093  1.00  0.00    -0.092 N 
HETATM    6  N   UNL     1     -43.817  61.179 -53.321  1.00  0.00     0.012 NA
HETATM    7  N   UNL     1     -43.945  62.218 -54.141  1.00  0.00     0.033 NA
HETATM    8  N   UNL     1     -43.554  61.895 -55.427  1.00  0.00     0.030 NA
HETATM    9  C   UNL     1     -43.002  58.852 -53.636  1.00  0.00     0.199 C 
HETATM   10  C   UNL     1     -42.684  57.940 -54.820  1.00  0.00     0.062 C 
HETATM   11  H   UNL     1     -42.765  60.087 -57.297  1.00  0.00     0.184 HD
ENDROOT
BRANCH  10  12
HETATM   12  C   UNL     1     -42.612  56.498 -54.459  1.00  0.00     0.256 C 
HETATM   13  N   UNL     1     -41.334  56.054 -54.209  1.00  0.00    -0.323 N 
HETATM   14  H   UNL     1     -40.587  56.737 -54.251  1.00  0.00     0.169 HD
HETATM   15  O   UNL     1     -43.659  55.869 -54.369  1.00  0.00    -0.267 OA
BRANCH  13  16
HETATM   16  C   UNL     1     -40.930  54.733 -53.918  1.00  0.00     0.035 A 
HETATM   17  C   UNL     1     -40.495  53.820 -54.879  1.00  0.00     0.029 A 
HETATM   18  C   UNL     1     -40.090  52.534 -54.505  1.00  0.00     0.002 A 
HETATM   19  C   UNL     1     -40.111  52.153 -53.167  1.00  0.00     0.000 A 
HETATM   20  C   UNL     1     -40.545  53.056 -52.198  1.00  0.00     0.002 A 
HETATM   21  C   UNL     1     -40.957  54.337 -52.574  1.00  0.00     0.029 A 
ENDBRANCH  13  16
ENDBRANCH  10  12
BRANCH   9  22
HETATM   22  C   UNL     1     -41.873  58.886 -52.622  1.00  0.00    -0.011 A 
HETATM   23  C   UNL     1     -40.589  59.317 -52.952  1.00  0.00     0.125 A 
HETATM   24  N   UNL     1     -39.547  59.332 -52.093  1.00  0.00    -0.272 NA
HETATM   25  C   UNL     1     -39.791  58.914 -50.833  1.00  0.00     0.116 A 
HETATM   26  C   UNL     1     -41.025  58.463 -50.398  1.00  0.00     0.020 A 
HETATM   27  C   UNL     1     -42.077  58.442 -51.309  1.00  0.00     0.012 A 
ENDBRANCH   9  22
TORSDOF 3
ENDMDL
MODEL 9
REMARK VINA RESULT:      -7.0     15.290     18.109
REMARK  3 active torsions:
REMARK  status: ('A' for Active; 'I' for Inactive)
REMARK    1  A    between atoms: C_9  and  C_10 
REMARK    2  A    between atoms: C_16  and  C_17 
REMARK       I    between atoms: C_17  and  N_18 
REMARK    3  A    between atoms: N_18  and  C_19 
ROOT
HETATM    1  C   UNL     1     -35.696  42.268 -53.410  1.00  0.00     0.070 C 
HETATM    2  C   UNL     1     -34.693  41.145 -53.308  1.00  0.00     0.037 C 
HETATM    3  N   UNL     1     -33.841  41.201 -52.207  1.00  0.00    -0.191 N 
HETATM    4  C   UNL     1     -33.065  40.164 -51.830  1.00  0.00     0.735 A 
HETATM    5  N   UNL     1     -32.983  39.064 -52.635  1.00  0.00    -0.092 N 
HETATM    6  N   UNL     1     -32.227  38.119 -52.059  1.00  0.00     0.012 NA
HETATM    7  N   UNL     1     -31.819  38.671 -50.919  1.00  0.00     0.033 NA
HETATM    8  N   UNL     1     -32.335  39.945 -50.765  1.00  0.00     0.030 NA
HETATM    9  C   UNL     1     -33.664  38.923 -53.921  1.00  0.00     0.199 C 
HETATM   10  C   UNL     1     -34.625  40.087 -54.156  1.00  0.00     0.062 C 
HETATM   11  H   UNL     1     -33.977  41.964 -51.547  1.00  0.00     0.184 HD
ENDROOT
BRANCH  10  12
HETATM   12  C   UNL     1     -35.540  39.881 -55.312  1.00  0.00     0.256 C 
HETATM   13  N   UNL     1     -35.179  40.589 -56.435  1.00  0.00    -0.323 N 
HETATM   14  H   UNL     1     -34.328  41.136 -56.387  1.00  0.00     0.169 HD
HETATM   15  O   UNL     1     -36.466  39.090 -55.185  1.00  0.00    -0.267 OA
BRANCH  13  16
HETATM   16  C   UNL     1     -35.878  40.663 -57.659  1.00  0.00     0.035 A 
HETATM   17  C   UNL     1     -36.057  39.581 -58.523  1.00  0.00     0.029 A 
HETATM   18  C   UNL     1     -36.784  39.732 -59.709  1.00  0.00     0.002 A 
HETATM   19  C   UNL     1     -37.342  40.964 -60.038  1.00  0.00     0.000 A 
HETATM   20  C   UNL     1     -37.170  42.051 -59.184  1.00  0.00     0.002 A 
HETATM   21  C   UNL     1     -36.436  41.901 -58.004  1.00  0.00     0.029 A 
ENDBRANCH  13  16
ENDBRANCH  10  12
BRANCH   9  22
HETATM   22  C   UNL     1     -32.651  38.784 -55.043  1.00  0.00    -0.011 A 
HETATM   23  C   UNL     1     -32.536  37.620 -55.802  1.00  0.00     0.125 A 
HETATM   24  N   UNL     1     -31.629  37.440 -56.787  1.00  0.00    -0.272 NA
HETATM   25  C   UNL     1     -30.800  38.473 -57.047  1.00  0.00     0.116 A 
HETATM   26  C   UNL     1     -30.824  39.671 -56.354  1.00  0.00     0.020 A 
HETATM   27  C   UNL     1     -31.758  39.823 -55.333  1.00  0.00     0.012 A 
ENDBRANCH   9  22
TORSDOF 3
ENDMDL
MODEL 10
REMARK VINA RESULT:      -6.9      2.402      7.073
REMARK  3 active torsions:
REMARK  status: ('A' for Active; 'I' for Inactive)
REMARK    1  A    between atoms: C_9  and  C_10 
REMARK    2  A    between atoms: C_16  and  C_17 
REMARK       I    between atoms: C_17  and  N_18 
REMARK    3  A    between atoms: N_18  and  C_19 
ROOT
HETATM    1  C   UNL     1     -43.070  54.917 -55.324  1.00  0.00     0.070 C 
HETATM    2  C   UNL     1     -42.109  54.177 -54.426  1.00  0.00     0.037 C 
HETATM    3  N   UNL     1     -42.034  52.801 -54.634  1.00  0.00    -0.191 N 
HETATM    4  C   UNL     1     -41.059  52.034 -54.102  1.00  0.00     0.735 A 
HETATM    5  N   UNL     1     -40.196  52.584 -53.199  1.00  0.00    -0.092 N 
HETATM    6  N   UNL     1     -39.262  51.690 -52.843  1.00  0.00     0.012 NA
HETATM    7  N   UNL     1     -39.592  50.585 -53.506  1.00  0.00     0.033 NA
HETATM    8  N   UNL     1     -40.710  50.786 -54.294  1.00  0.00     0.030 NA
HETATM    9  C   UNL     1     -40.255  53.965 -52.725  1.00  0.00     0.199 C 
HETATM   10  C   UNL     1     -41.293  54.763 -53.513  1.00  0.00     0.062 C 
HETATM   11  H   UNL     1     -42.599  52.409 -55.385  1.00  0.00     0.184 HD
ENDROOT
BRANCH  10  12
HETATM   12  C   UNL     1     -41.227  56.230 -53.270  1.00  0.00     0.256 C 
HETATM   13  N   UNL     1     -42.115  56.672 -52.316  1.00  0.00    -0.323 N 
HETATM   14  H   UNL     1     -42.685  55.976 -51.852  1.00  0.00     0.169 HD
HETATM   15  O   UNL     1     -40.387  56.883 -53.876  1.00  0.00    -0.267 OA
BRANCH  13  16
HETATM   16  C   UNL     1     -42.345  58.006 -51.917  1.00  0.00     0.035 A 
HETATM   17  C   UNL     1     -41.603  58.669 -50.939  1.00  0.00     0.029 A 
HETATM   18  C   UNL     1     -41.881  60.002 -50.616  1.00  0.00     0.002 A 
HETATM   19  C   UNL     1     -42.900  60.685 -51.274  1.00  0.00     0.000 A 
HETATM   20  C   UNL     1     -43.649  60.034 -52.251  1.00  0.00     0.002 A 
HETATM   21  C   UNL     1     -43.376  58.700 -52.567  1.00  0.00     0.029 A 
ENDBRANCH  13  16
ENDBRANCH  10  12
BRANCH   9  22
HETATM   22  C   UNL     1     -40.522  54.001 -51.231  1.00  0.00    -0.011 A 
HETATM   23  C   UNL     1     -41.811  53.936 -50.704  1.00  0.00     0.125 A 
HETATM   24  N   UNL     1     -42.098  53.999 -49.385  1.00  0.00    -0.272 NA
HETATM   25  C   UNL     1     -41.052  54.114 -48.539  1.00  0.00     0.116 A 
HETATM   26  C   UNL     1     -39.734  54.189 -48.954  1.00  0.00     0.020 A 
HETATM   27  C   UNL     1     -39.468  54.140 -50.319  1.00  0.00     0.012 A 
ENDBRANCH   9  22
TORSDOF 3
ENDMDL
