MODEL 1
REMARK VINA RESULT:      -7.1      0.000      0.000
REMARK  8 active torsions:
REMARK  status: ('A' for Active; 'I' for Inactive)
REMARK    1  A    between atoms: C_2  and  C_3 
REMARK    2  A    between atoms: C_3  and  N_4 
REMARK    3  A    between atoms: C_7  and  C_8 
REMARK       I    between atoms: C_8  and  N_9 
REMARK    4  A    between atoms: N_9  and  C_10 
REMARK    5  A    between atoms: C_13  and  O_14 
REMARK    6  A    between atoms: O_14  and  C_15 
REMARK    7  A    between atoms: C_15  and  C_16 
REMARK       I    between atoms: C_16  and  N_17 
REMARK    8  A    between atoms: C_23  and  C_24 
ROOT
HETATM    1  C   UNL     1     -43.767  55.277 -50.884  1.00  0.00     0.259 C 
HETATM    2  N   UNL     1     -43.568  56.615 -50.652  1.00  0.00    -0.323 N 
HETATM    3  O   UNL     1     -44.383  54.655 -50.016  1.00  0.00    -0.267 OA
HETATM    4  H   UNL     1     -43.910  56.841 -49.725  1.00  0.00     0.169 HD
ENDROOT
BRANCH   2   5
HETATM    5  C   UNL     1     -43.095  57.698 -51.406  1.00  0.00     0.035 A 
HETATM    6  C   UNL     1     -41.765  57.924 -51.754  1.00  0.00     0.032 A 
HETATM    7  C   UNL     1     -41.423  59.023 -52.556  1.00  0.00     0.039 A 
HETATM    8  C   UNL     1     -42.413  59.876 -53.041  1.00  0.00     0.069 A 
HETATM    9  C   UNL     1     -43.741  59.674 -52.687  1.00  0.00     0.039 A 
HETATM   10  C   UNL     1     -44.077  58.585 -51.881  1.00  0.00     0.032 A 
BRANCH   8  11
HETATM   11  O   UNL     1     -42.031  60.927 -53.828  1.00  0.00    -0.342 OA
BRANCH  11  12
HETATM   12  C   UNL     1     -42.811  61.006 -55.025  1.00  0.00     0.278 C 
BRANCH  12  13
HETATM   13  C   UNL     1     -42.251  60.170 -56.177  1.00  0.00     0.241 C 
HETATM   14  N   UNL     1     -42.913  58.978 -56.385  1.00  0.00    -0.364 N 
HETATM   15  C   UNL     1     -42.490  58.049 -57.400  1.00  0.00     0.149 C 
HETATM   16  H   UNL     1     -43.541  58.666 -55.652  1.00  0.00     0.161 HD
HETATM   17  O   UNL     1     -41.322  60.560 -56.878  1.00  0.00    -0.271 OA
ENDBRANCH  12  13
ENDBRANCH  11  12
ENDBRANCH   8  11
ENDBRANCH   2   5
BRANCH   1  18
HETATM   18  C   UNL     1     -43.168  54.587 -52.003  1.00  0.00     0.076 C 
HETATM   19  C   UNL     1     -43.557  54.699 -53.357  1.00  0.00     0.158 C 
HETATM   20  N   UNL     1     -42.707  54.108 -54.196  1.00  0.00    -0.183 NA
HETATM   21  N   UNL     1     -41.701  53.702 -53.393  1.00  0.00    -0.268 N 
HETATM   22  C   UNL     1     -41.997  53.841 -52.052  1.00  0.00     0.052 C 
BRANCH  21  23
HETATM   23  C   UNL     1     -40.449  53.216 -53.979  1.00  0.00     0.106 C 
HETATM   24  C   UNL     1     -39.939  54.093 -55.130  1.00  0.00     0.034 C 
BRANCH  23  25
HETATM   25  C   UNL     1     -40.503  51.723 -54.352  1.00  0.00     0.022 C 
HETATM   26  C   UNL     1     -39.533  50.830 -53.593  1.00  0.00     0.007 C 
ENDBRANCH  23  25
ENDBRANCH  21  23
BRANCH  22  27
HETATM   27  C   UNL     1     -41.148  53.252 -50.923  1.00  0.00     0.038 A 
HETATM   28  C   UNL     1     -39.647  53.324 -50.843  1.00  0.00     0.011 A 
HETATM   29  C   UNL     1     -40.463  54.251 -50.010  1.00  0.00     0.011 A 
ENDBRANCH  22  27
ENDBRANCH   1  18
TORSDOF 8
ENDMDL
MODEL 2
REMARK VINA RESULT:      -6.9      2.983      3.901
REMARK  8 active torsions:
REMARK  status: ('A' for Active; 'I' for Inactive)
REMARK    1  A    between atoms: C_2  and  C_3 
REMARK    2  A    between atoms: C_3  and  N_4 
REMARK    3  A    between atoms: C_7  and  C_8 
REMARK       I    between atoms: C_8  and  N_9 
REMARK    4  A    between atoms: N_9  and  C_10 
REMARK    5  A    between atoms: C_13  and  O_14 
REMARK    6  A    between atoms: O_14  and  C_15 
REMARK    7  A    between atoms: C_15  and  C_16 
REMARK       I    between atoms: C_16  and  N_17 
REMARK    8  A    between atoms: C_23  and  C_24 
ROOT
HETATM    1  C   UNL     1     -41.274  57.172 -52.697  1.00  0.00     0.259 C 
HETATM    2  N   UNL     1     -41.954  58.163 -53.360  1.00  0.00    -0.323 N 
HETATM    3  O   UNL     1     -40.670  57.509 -51.676  1.00  0.00    -0.267 OA
HETATM    4  H   UNL     1     -41.758  59.051 -52.912  1.00  0.00     0.169 HD
ENDROOT
BRANCH   2   5
HETATM    5  C   UNL     1     -42.876  58.205 -54.416  1.00  0.00     0.035 A 
HETATM    6  C   UNL     1     -42.602  58.632 -55.714  1.00  0.00     0.032 A 
HETATM    7  C   UNL     1     -43.601  58.581 -56.697  1.00  0.00     0.039 A 
HETATM    8  C   UNL     1     -44.862  58.071 -56.394  1.00  0.00     0.069 A 
HETATM    9  C   UNL     1     -45.155  57.660 -55.101  1.00  0.00     0.039 A 
HETATM   10  C   UNL     1     -44.162  57.720 -54.122  1.00  0.00     0.032 A 
BRANCH   8  11
HETATM   11  O   UNL     1     -45.799  58.032 -57.390  1.00  0.00    -0.342 OA
BRANCH  11  12
HETATM   12  C   UNL     1     -45.198  57.900 -58.681  1.00  0.00     0.278 C 
BRANCH  12  13
HETATM   13  C   UNL     1     -45.549  56.589 -59.388  1.00  0.00     0.241 C 
HETATM   14  N   UNL     1     -44.586  55.610 -59.276  1.00  0.00    -0.364 N 
HETATM   15  C   UNL     1     -44.734  54.329 -59.917  1.00  0.00     0.149 C 
HETATM   16  H   UNL     1     -43.672  55.899 -58.943  1.00  0.00     0.161 HD
HETATM   17  O   UNL     1     -46.622  56.422 -59.963  1.00  0.00    -0.271 OA
ENDBRANCH  12  13
ENDBRANCH  11  12
ENDBRANCH   8  11
ENDBRANCH   2   5
BRANCH   1  18
HETATM   18  C   UNL     1     -41.137  55.836 -53.230  1.00  0.00     0.076 C 
HETATM   19  C   UNL     1     -40.519  55.485 -54.451  1.00  0.00     0.158 C 
HETATM   20  N   UNL     1     -40.359  54.170 -54.597  1.00  0.00    -0.183 NA
HETATM   21  N   UNL     1     -40.775  53.667 -53.415  1.00  0.00    -0.268 N 
HETATM   22  C   UNL     1     -41.383  54.615 -52.616  1.00  0.00     0.052 C 
BRANCH  21  23
HETATM   23  C   UNL     1     -40.527  52.261 -53.091  1.00  0.00     0.106 C 
HETATM   24  C   UNL     1     -39.482  52.069 -51.985  1.00  0.00     0.034 C 
BRANCH  23  25
HETATM   25  C   UNL     1     -40.235  51.403 -54.337  1.00  0.00     0.022 C 
HETATM   26  C   UNL     1     -39.790  49.977 -54.051  1.00  0.00     0.007 C 
ENDBRANCH  23  25
ENDBRANCH  21  23
BRANCH  22  27
HETATM   27  C   UNL     1     -42.153  54.286 -51.334  1.00  0.00     0.038 A 
HETATM   28  C   UNL     1     -43.249  55.132 -50.745  1.00  0.00     0.011 A 
HETATM   29  C   UNL     1     -43.612  53.908 -51.510  1.00  0.00     0.011 A 
ENDBRANCH  22  27
ENDBRANCH   1  18
TORSDOF 8
ENDMDL
MODEL 3
REMARK VINA RESULT:      -6.7      2.407      6.577
REMARK  8 active torsions:
REMARK  status: ('A' for Active; 'I' for Inactive)
REMARK    1  A    between atoms: C_2  and  C_3 
REMARK    2  A    between atoms: C_3  and  N_4 
REMARK    3  A    between atoms: C_7  and  C_8 
REMARK       I    between atoms: C_8  and  N_9 
REMARK    4  A    between atoms: N_9  and  C_10 
REMARK    5  A    between atoms: C_13  and  O_14 
REMARK    6  A    between atoms: O_14  and  C_15 
REMARK    7  A    between atoms: C_15  and  C_16 
REMARK       I    between atoms: C_16  and  N_17 
REMARK    8  A    between atoms: C_23  and  C_24 
ROOT
HETATM    1  C   UNL     1     -44.154  58.032 -51.854  1.00  0.00     0.259 C 
HETATM    2  N   UNL     1     -43.875  57.105 -50.881  1.00  0.00    -0.323 N 
HETATM    3  O   UNL     1     -44.856  58.988 -51.515  1.00  0.00    -0.267 OA
HETATM    4  H   UNL     1     -44.391  57.345 -50.042  1.00  0.00     0.169 HD
ENDROOT
BRANCH   2   5
HETATM    5  C   UNL     1     -43.016  56.002 -50.771  1.00  0.00     0.035 A 
HETATM    6  C   UNL     1     -43.275  54.722 -51.257  1.00  0.00     0.032 A 
HETATM    7  C   UNL     1     -42.312  53.711 -51.126  1.00  0.00     0.039 A 
HETATM    8  C   UNL     1     -41.076  53.986 -50.545  1.00  0.00     0.069 A 
HETATM    9  C   UNL     1     -40.811  55.253 -50.040  1.00  0.00     0.039 A 
HETATM   10  C   UNL     1     -41.775  56.254 -50.162  1.00  0.00     0.032 A 
BRANCH   8  11
HETATM   11  O   UNL     1     -40.165  52.971 -50.451  1.00  0.00    -0.342 OA
BRANCH  11  12
HETATM   12  C   UNL     1     -39.472  52.761 -51.685  1.00  0.00     0.278 C 
BRANCH  12  13
HETATM   13  C   UNL     1     -39.567  51.325 -52.204  1.00  0.00     0.241 C 
HETATM   14  N   UNL     1     -39.748  51.225 -53.567  1.00  0.00    -0.364 N 
HETATM   15  C   UNL     1     -39.900  49.949 -54.216  1.00  0.00     0.149 C 
HETATM   16  H   UNL     1     -40.015  52.071 -54.059  1.00  0.00     0.161 HD
HETATM   17  O   UNL     1     -39.443  50.351 -51.464  1.00  0.00    -0.271 OA
ENDBRANCH  12  13
ENDBRANCH  11  12
ENDBRANCH   8  11
ENDBRANCH   2   5
BRANCH   1  18
HETATM   18  C   UNL     1     -43.781  57.841 -53.236  1.00  0.00     0.076 C 
HETATM   19  C   UNL     1     -44.510  57.110 -54.202  1.00  0.00     0.158 C 
HETATM   20  N   UNL     1     -44.038  57.265 -55.439  1.00  0.00    -0.183 NA
HETATM   21  N   UNL     1     -43.064  58.188 -55.294  1.00  0.00    -0.268 N 
HETATM   22  C   UNL     1     -42.778  58.459 -53.971  1.00  0.00     0.052 C 
BRANCH  21  23
HETATM   23  C   UNL     1     -42.462  58.808 -56.476  1.00  0.00     0.106 C 
HETATM   24  C   UNL     1     -43.103  60.152 -56.848  1.00  0.00     0.034 C 
BRANCH  23  25
HETATM   25  C   UNL     1     -42.370  57.845 -57.674  1.00  0.00     0.022 C 
HETATM   26  C   UNL     1     -41.994  58.493 -58.999  1.00  0.00     0.007 C 
ENDBRANCH  23  25
ENDBRANCH  21  23
BRANCH  22  27
HETATM   27  C   UNL     1     -41.572  59.280 -53.507  1.00  0.00     0.038 A 
HETATM   28  C   UNL     1     -41.021  59.290 -52.107  1.00  0.00     0.011 A 
HETATM   29  C   UNL     1     -40.324  58.493 -53.154  1.00  0.00     0.011 A 
ENDBRANCH  22  27
ENDBRANCH   1  18
TORSDOF 8
ENDMDL
MODEL 4
REMARK VINA RESULT:      -6.6      3.023      6.362
REMARK  8 active torsions:
REMARK  status: ('A' for Active; 'I' for Inactive)
REMARK    1  A    between atoms: C_2  and  C_3 
REMARK    2  A    between atoms: C_3  and  N_4 
REMARK    3  A    between atoms: C_7  and  C_8 
REMARK       I    between atoms: C_8  and  N_9 
REMARK    4  A    between atoms: N_9  and  C_10 
REMARK    5  A    between atoms: C_13  and  O_14 
REMARK    6  A    between atoms: O_14  and  C_15 
REMARK    7  A    between atoms: C_15  and  C_16 
REMARK       I    between atoms: C_16  and  N_17 
REMARK    8  A    between atoms: C_23  and  C_24 
ROOT
HETATM    1  C   UNL     1     -41.772  56.604 -51.380  1.00  0.00     0.259 C 
HETATM    2  N   UNL     1     -41.441  55.699 -52.358  1.00  0.00    -0.323 N 
HETATM    3  O   UNL     1     -41.000  56.682 -50.421  1.00  0.00    -0.267 OA
HETATM    4  H   UNL     1     -40.626  55.176 -52.059  1.00  0.00     0.169 HD
ENDROOT
BRANCH   2   5
HETATM    5  C   UNL     1     -41.909  55.409 -53.648  1.00  0.00     0.035 A 
HETATM    6  C   UNL     1     -42.634  54.275 -54.010  1.00  0.00     0.032 A 
HETATM    7  C   UNL     1     -43.089  54.122 -55.328  1.00  0.00     0.039 A 
HETATM    8  C   UNL     1     -42.852  55.117 -56.275  1.00  0.00     0.069 A 
HETATM    9  C   UNL     1     -42.115  56.243 -55.933  1.00  0.00     0.039 A 
HETATM   10  C   UNL     1     -41.655  56.388 -54.623  1.00  0.00     0.032 A 
BRANCH   8  11
HETATM   11  O   UNL     1     -43.326  54.927 -57.544  1.00  0.00    -0.342 OA
BRANCH  11  12
HETATM   12  C   UNL     1     -43.200  56.108 -58.342  1.00  0.00     0.278 C 
BRANCH  12  13
HETATM   13  C   UNL     1     -44.133  56.130 -59.554  1.00  0.00     0.241 C 
HETATM   14  N   UNL     1     -45.470  56.236 -59.237  1.00  0.00    -0.364 N 
HETATM   15  C   UNL     1     -46.489  56.228 -60.254  1.00  0.00     0.149 C 
HETATM   16  H   UNL     1     -45.729  56.072 -58.269  1.00  0.00     0.161 HD
HETATM   17  O   UNL     1     -43.710  56.103 -60.707  1.00  0.00    -0.271 OA
ENDBRANCH  12  13
ENDBRANCH  11  12
ENDBRANCH   8  11
ENDBRANCH   2   5
BRANCH   1  18
HETATM   18  C   UNL     1     -43.024  57.324 -51.382  1.00  0.00     0.076 C 
HETATM   19  C   UNL     1     -44.280  56.812 -50.985  1.00  0.00     0.158 C 
HETATM   20  N   UNL     1     -45.223  57.750 -50.900  1.00  0.00    -0.183 NA
HETATM   21  N   UNL     1     -44.552  58.897 -51.137  1.00  0.00    -0.268 N 
HETATM   22  C   UNL     1     -43.259  58.680 -51.570  1.00  0.00     0.052 C 
BRANCH  21  23
HETATM   23  C   UNL     1     -45.200  60.188 -50.892  1.00  0.00     0.106 C 
HETATM   24  C   UNL     1     -45.421  60.482 -49.403  1.00  0.00     0.034 C 
BRANCH  23  25
HETATM   25  C   UNL     1     -46.477  60.383 -51.730  1.00  0.00     0.022 C 
HETATM   26  C   UNL     1     -46.288  61.150 -53.030  1.00  0.00     0.007 C 
ENDBRANCH  23  25
ENDBRANCH  21  23
BRANCH  22  27
HETATM   27  C   UNL     1     -42.350  59.775 -52.134  1.00  0.00     0.038 A 
HETATM   28  C   UNL     1     -41.282  59.561 -53.172  1.00  0.00     0.011 A 
HETATM   29  C   UNL     1     -42.583  60.158 -53.583  1.00  0.00     0.011 A 
ENDBRANCH  22  27
ENDBRANCH   1  18
TORSDOF 8
ENDMDL
MODEL 5
REMARK VINA RESULT:      -6.6     16.062     18.176
REMARK  8 active torsions:
REMARK  status: ('A' for Active; 'I' for Inactive)
REMARK    1  A    between atoms: C_2  and  C_3 
REMARK    2  A    between atoms: C_3  and  N_4 
REMARK    3  A    between atoms: C_7  and  C_8 
REMARK       I    between atoms: C_8  and  N_9 
REMARK    4  A    between atoms: N_9  and  C_10 
REMARK    5  A    between atoms: C_13  and  O_14 
REMARK    6  A    between atoms: O_14  and  C_15 
REMARK    7  A    between atoms: C_15  and  C_16 
REMARK       I    between atoms: C_16  and  N_17 
REMARK    8  A    between atoms: C_23  and  C_24 
ROOT
HETATM    1  C   UNL     1     -37.195  40.791 -53.544  1.00  0.00     0.259 C 
HETATM    2  N   UNL     1     -37.699  41.501 -54.605  1.00  0.00    -0.323 N 
HETATM    3  O   UNL     1     -37.740  40.972 -52.453  1.00  0.00    -0.267 OA
HETATM    4  H   UNL     1     -38.410  42.138 -54.264  1.00  0.00     0.169 HD
ENDROOT
BRANCH   2   5
HETATM    5  C   UNL     1     -37.514  41.483 -55.995  1.00  0.00     0.035 A 
HETATM    6  C   UNL     1     -36.568  42.228 -56.695  1.00  0.00     0.032 A 
HETATM    7  C   UNL     1     -36.449  42.086 -58.086  1.00  0.00     0.039 A 
HETATM    8  C   UNL     1     -37.249  41.174 -58.772  1.00  0.00     0.069 A 
HETATM    9  C   UNL     1     -38.209  40.439 -58.089  1.00  0.00     0.039 A 
HETATM   10  C   UNL     1     -38.332  40.589 -56.707  1.00  0.00     0.032 A 
BRANCH   8  11
HETATM   11  O   UNL     1     -37.088  41.064 -60.125  1.00  0.00    -0.342 OA
BRANCH  11  12
HETATM   12  C   UNL     1     -37.638  39.843 -60.629  1.00  0.00     0.278 C 
BRANCH  12  13
HETATM   13  C   UNL     1     -36.611  38.953 -61.333  1.00  0.00     0.241 C 
HETATM   14  N   UNL     1     -36.881  38.720 -62.664  1.00  0.00    -0.364 N 
HETATM   15  C   UNL     1     -36.041  37.869 -63.466  1.00  0.00     0.149 C 
HETATM   16  H   UNL     1     -37.811  38.959 -62.994  1.00  0.00     0.161 HD
HETATM   17  O   UNL     1     -35.609  38.530 -60.760  1.00  0.00    -0.271 OA
ENDBRANCH  12  13
ENDBRANCH  11  12
ENDBRANCH   8  11
ENDBRANCH   2   5
BRANCH   1  18
HETATM   18  C   UNL     1     -36.000  39.986 -53.648  1.00  0.00     0.076 C 
HETATM   19  C   UNL     1     -35.866  38.783 -54.378  1.00  0.00     0.158 C 
HETATM   20  N   UNL     1     -34.604  38.360 -54.462  1.00  0.00    -0.183 NA
HETATM   21  N   UNL     1     -33.899  39.351 -53.876  1.00  0.00    -0.268 N 
HETATM   22  C   UNL     1     -34.703  40.281 -53.247  1.00  0.00     0.052 C 
BRANCH  21  23
HETATM   23  C   UNL     1     -32.438  39.372 -53.986  1.00  0.00     0.106 C 
HETATM   24  C   UNL     1     -31.941  39.762 -55.384  1.00  0.00     0.034 C 
BRANCH  23  25
HETATM   25  C   UNL     1     -31.782  38.080 -53.463  1.00  0.00     0.022 C 
HETATM   26  C   UNL     1     -31.996  37.798 -51.983  1.00  0.00     0.007 C 
ENDBRANCH  23  25
ENDBRANCH  21  23
BRANCH  22  27
HETATM   27  C   UNL     1     -34.178  41.373 -52.311  1.00  0.00     0.038 A 
HETATM   28  C   UNL     1     -34.819  41.777 -51.012  1.00  0.00     0.011 A 
HETATM   29  C   UNL     1     -33.615  40.902 -50.984  1.00  0.00     0.011 A 
ENDBRANCH  22  27
ENDBRANCH   1  18
TORSDOF 8
ENDMDL
MODEL 6
REMARK VINA RESULT:      -6.5      2.602      6.599
REMARK  8 active torsions:
REMARK  status: ('A' for Active; 'I' for Inactive)
REMARK    1  A    between atoms: C_2  and  C_3 
REMARK    2  A    between atoms: C_3  and  N_4 
REMARK    3  A    between atoms: C_7  and  C_8 
REMARK       I    between atoms: C_8  and  N_9 
REMARK    4  A    between atoms: N_9  and  C_10 
REMARK    5  A    between atoms: C_13  and  O_14 
REMARK    6  A    between atoms: O_14  and  C_15 
REMARK    7  A    between atoms: C_15  and  C_16 
REMARK       I    between atoms: C_16  and  N_17 
REMARK    8  A    between atoms: C_23  and  C_24 
ROOT
HETATM    1  C   UNL     1     -41.833  58.551 -51.015  1.00  0.00     0.259 C 
HETATM    2  N   UNL     1     -41.779  57.482 -50.157  1.00  0.00    -0.323 N 
HETATM    3  O   UNL     1     -41.837  59.671 -50.497  1.00  0.00    -0.267 OA
HETATM    4  H   UNL     1     -41.840  57.822 -49.204  1.00  0.00     0.169 HD
ENDROOT
BRANCH   2   5
HETATM    5  C   UNL     1     -41.589  56.099 -50.297  1.00  0.00     0.035 A 
HETATM    6  C   UNL     1     -42.478  55.217 -50.908  1.00  0.00     0.032 A 
HETATM    7  C   UNL     1     -42.150  53.858 -51.029  1.00  0.00     0.039 A 
HETATM    8  C   UNL     1     -40.920  53.387 -50.572  1.00  0.00     0.069 A 
HETATM    9  C   UNL     1     -40.033  54.252 -49.944  1.00  0.00     0.039 A 
HETATM   10  C   UNL     1     -40.366  55.601 -49.816  1.00  0.00     0.032 A 
BRANCH   8  11
HETATM   11  O   UNL     1     -40.642  52.057 -50.722  1.00  0.00    -0.342 OA
BRANCH  11  12
HETATM   12  C   UNL     1     -39.464  51.845 -51.506  1.00  0.00     0.278 C 
BRANCH  12  13
HETATM   13  C   UNL     1     -39.752  51.567 -52.982  1.00  0.00     0.241 C 
HETATM   14  N   UNL     1     -39.607  50.246 -53.349  1.00  0.00    -0.364 N 
HETATM   15  C   UNL     1     -39.797  49.816 -54.710  1.00  0.00     0.149 C 
HETATM   16  H   UNL     1     -39.126  49.637 -52.695  1.00  0.00     0.161 HD
HETATM   17  O   UNL     1     -40.127  52.447 -53.753  1.00  0.00    -0.271 OA
ENDBRANCH  12  13
ENDBRANCH  11  12
ENDBRANCH   8  11
ENDBRANCH   2   5
BRANCH   1  18
HETATM   18  C   UNL     1     -42.024  58.394 -52.438  1.00  0.00     0.076 C 
HETATM   19  C   UNL     1     -41.013  58.438 -53.425  1.00  0.00     0.158 C 
HETATM   20  N   UNL     1     -41.442  58.066 -54.630  1.00  0.00    -0.183 NA
HETATM   21  N   UNL     1     -42.714  57.672 -54.406  1.00  0.00    -0.268 N 
HETATM   22  C   UNL     1     -43.153  57.983 -53.134  1.00  0.00     0.052 C 
BRANCH  21  23
HETATM   23  C   UNL     1     -43.454  56.961 -55.451  1.00  0.00     0.106 C 
HETATM   24  C   UNL     1     -42.663  55.804 -56.074  1.00  0.00     0.034 C 
BRANCH  23  25
HETATM   25  C   UNL     1     -44.051  57.908 -56.509  1.00  0.00     0.022 C 
HETATM   26  C   UNL     1     -44.186  57.317 -57.904  1.00  0.00     0.007 C 
ENDBRANCH  23  25
ENDBRANCH  21  23
BRANCH  22  27
HETATM   27  C   UNL     1     -44.611  57.869 -52.681  1.00  0.00     0.038 A 
HETATM   28  C   UNL     1     -45.110  58.175 -51.295  1.00  0.00     0.011 A 
HETATM   29  C   UNL     1     -45.320  59.175 -52.378  1.00  0.00     0.011 A 
ENDBRANCH  22  27
ENDBRANCH   1  18
TORSDOF 8
ENDMDL
MODEL 7
REMARK VINA RESULT:      -6.4      2.720      3.824
REMARK  8 active torsions:
REMARK  status: ('A' for Active; 'I' for Inactive)
REMARK    1  A    between atoms: C_2  and  C_3 
REMARK    2  A    between atoms: C_3  and  N_4 
REMARK    3  A    between atoms: C_7  and  C_8 
REMARK       I    between atoms: C_8  and  N_9 
REMARK    4  A    between atoms: N_9  and  C_10 
REMARK    5  A    between atoms: C_13  and  O_14 
REMARK    6  A    between atoms: O_14  and  C_15 
REMARK    7  A    between atoms: C_15  and  C_16 
REMARK       I    between atoms: C_16  and  N_17 
REMARK    8  A    between atoms: C_23  and  C_24 
ROOT
HETATM    1  C   UNL     1     -44.028  57.324 -52.761  1.00  0.00     0.259 C 
HETATM    2  N   UNL     1     -44.278  58.330 -53.660  1.00  0.00    -0.323 N 
HETATM    3  O   UNL     1     -44.205  57.595 -51.571  1.00  0.00    -0.267 OA
HETATM    4  H   UNL     1     -44.494  59.179 -53.151  1.00  0.00     0.169 HD
ENDROOT
BRANCH   2   5
HETATM    5  C   UNL     1     -44.374  58.418 -55.057  1.00  0.00     0.035 A 
HETATM    6  C   UNL     1     -45.520  58.166 -55.807  1.00  0.00     0.032 A 
HETATM    7  C   UNL     1     -45.502  58.337 -57.200  1.00  0.00     0.039 A 
HETATM    8  C   UNL     1     -44.350  58.793 -57.838  1.00  0.00     0.069 A 
HETATM    9  C   UNL     1     -43.195  59.031 -57.105  1.00  0.00     0.039 A 
HETATM   10  C   UNL     1     -43.213  58.851 -55.721  1.00  0.00     0.032 A 
BRANCH   8  11
HETATM   11  O   UNL     1     -44.386  58.955 -59.196  1.00  0.00    -0.342 OA
BRANCH  11  12
HETATM   12  C   UNL     1     -43.221  58.413 -59.827  1.00  0.00     0.278 C 
BRANCH  12  13
HETATM   13  C   UNL     1     -43.388  56.960 -60.274  1.00  0.00     0.241 C 
HETATM   14  N   UNL     1     -44.659  56.641 -60.704  1.00  0.00    -0.364 N 
HETATM   15  C   UNL     1     -45.003  55.307 -61.119  1.00  0.00     0.149 C 
HETATM   16  H   UNL     1     -45.397  57.303 -60.486  1.00  0.00     0.161 HD
HETATM   17  O   UNL     1     -42.450  56.167 -60.290  1.00  0.00    -0.271 OA
ENDBRANCH  12  13
ENDBRANCH  11  12
ENDBRANCH   8  11
ENDBRANCH   2   5
BRANCH   1  18
HETATM   18  C   UNL     1     -43.447  56.061 -53.153  1.00  0.00     0.076 C 
HETATM   19  C   UNL     1     -43.956  55.177 -54.132  1.00  0.00     0.158 C 
HETATM   20  N   UNL     1     -43.116  54.187 -54.430  1.00  0.00    -0.183 NA
HETATM   21  N   UNL     1     -42.007  54.488 -53.720  1.00  0.00    -0.268 N 
HETATM   22  C   UNL     1     -42.207  55.524 -52.831  1.00  0.00     0.052 C 
BRANCH  21  23
HETATM   23  C   UNL     1     -40.761  53.760 -53.969  1.00  0.00     0.106 C 
HETATM   24  C   UNL     1     -39.978  54.294 -55.175  1.00  0.00     0.034 C 
BRANCH  23  25
HETATM   25  C   UNL     1     -40.960  52.234 -54.021  1.00  0.00     0.022 C 
HETATM   26  C   UNL     1     -39.703  51.408 -53.794  1.00  0.00     0.007 C 
ENDBRANCH  23  25
ENDBRANCH  21  23
BRANCH  22  27
HETATM   27  C   UNL     1     -41.207  55.922 -51.741  1.00  0.00     0.038 A 
HETATM   28  C   UNL     1     -41.557  56.174 -50.300  1.00  0.00     0.011 A 
HETATM   29  C   UNL     1     -40.929  54.878 -50.677  1.00  0.00     0.011 A 
ENDBRANCH  22  27
ENDBRANCH   1  18
TORSDOF 8
ENDMDL
MODEL 8
REMARK VINA RESULT:      -6.4     15.749     18.247
REMARK  8 active torsions:
REMARK  status: ('A' for Active; 'I' for Inactive)
REMARK    1  A    between atoms: C_2  and  C_3 
REMARK    2  A    between atoms: C_3  and  N_4 
REMARK    3  A    between atoms: C_7  and  C_8 
REMARK       I    between atoms: C_8  and  N_9 
REMARK    4  A    between atoms: N_9  and  C_10 
REMARK    5  A    between atoms: C_13  and  O_14 
REMARK    6  A    between atoms: O_14  and  C_15 
REMARK    7  A    between atoms: C_15  and  C_16 
REMARK       I    between atoms: C_16  and  N_17 
REMARK    8  A    between atoms: C_23  and  C_24 
ROOT
HETATM    1  C   UNL     1     -36.392  42.006 -54.378  1.00  0.00     0.259 C 
HETATM    2  N   UNL     1     -37.226  42.146 -55.460  1.00  0.00    -0.323 N 
HETATM    3  O   UNL     1     -36.714  42.614 -53.355  1.00  0.00    -0.267 OA
HETATM    4  H   UNL     1     -37.946  42.822 -55.233  1.00  0.00     0.169 HD
ENDROOT
BRANCH   2   5
HETATM    5  C   UNL     1     -37.343  41.532 -56.715  1.00  0.00     0.035 A 
HETATM    6  C   UNL     1     -37.946  40.300 -56.961  1.00  0.00     0.032 A 
HETATM    7  C   UNL     1     -38.042  39.813 -58.273  1.00  0.00     0.039 A 
HETATM    8  C   UNL     1     -37.571  40.572 -59.343  1.00  0.00     0.069 A 
HETATM    9  C   UNL     1     -36.951  41.793 -59.110  1.00  0.00     0.039 A 
HETATM   10  C   UNL     1     -36.847  42.270 -57.803  1.00  0.00     0.032 A 
BRANCH   8  11
HETATM   11  O   UNL     1     -37.698  40.059 -60.604  1.00  0.00    -0.342 OA
BRANCH  11  12
HETATM   12  C   UNL     1     -38.216  38.726 -60.587  1.00  0.00     0.278 C 
BRANCH  12  13
HETATM   13  C   UNL     1     -38.861  38.303 -61.909  1.00  0.00     0.241 C 
HETATM   14  N   UNL     1     -40.221  38.093 -61.833  1.00  0.00    -0.364 N 
HETATM   15  C   UNL     1     -40.980  37.649 -62.973  1.00  0.00     0.149 C 
HETATM   16  H   UNL     1     -40.625  38.021 -60.905  1.00  0.00     0.161 HD
HETATM   17  O   UNL     1     -38.218  38.208 -62.951  1.00  0.00    -0.271 OA
ENDBRANCH  12  13
ENDBRANCH  11  12
ENDBRANCH   8  11
ENDBRANCH   2   5
BRANCH   1  18
HETATM   18  C   UNL     1     -35.127  41.313 -54.460  1.00  0.00     0.076 C 
HETATM   19  C   UNL     1     -34.170  41.445 -55.491  1.00  0.00     0.158 C 
HETATM   20  N   UNL     1     -33.014  40.843 -55.211  1.00  0.00    -0.183 NA
HETATM   21  N   UNL     1     -33.181  40.410 -53.944  1.00  0.00    -0.268 N 
HETATM   22  C   UNL     1     -34.482  40.544 -53.500  1.00  0.00     0.052 C 
BRANCH  21  23
HETATM   23  C   UNL     1     -32.034  39.903 -53.187  1.00  0.00     0.106 C 
HETATM   24  C   UNL     1     -31.969  38.371 -53.140  1.00  0.00     0.034 C 
BRANCH  23  25
HETATM   25  C   UNL     1     -31.908  40.544 -51.792  1.00  0.00     0.022 C 
HETATM   26  C   UNL     1     -31.742  39.563 -50.641  1.00  0.00     0.007 C 
ENDBRANCH  23  25
ENDBRANCH  21  23
BRANCH  22  27
HETATM   27  C   UNL     1     -35.011  39.927 -52.203  1.00  0.00     0.038 A 
HETATM   28  C   UNL     1     -36.438  39.513 -51.964  1.00  0.00     0.011 A 
HETATM   29  C   UNL     1     -35.423  38.469 -52.275  1.00  0.00     0.011 A 
ENDBRANCH  22  27
ENDBRANCH   1  18
TORSDOF 8
ENDMDL
MODEL 9
REMARK VINA RESULT:      -6.4      2.859      5.683
REMARK  8 active torsions:
REMARK  status: ('A' for Active; 'I' for Inactive)
REMARK    1  A    between atoms: C_2  and  C_3 
REMARK    2  A    between atoms: C_3  and  N_4 
REMARK    3  A    between atoms: C_7  and  C_8 
REMARK       I    between atoms: C_8  and  N_9 
REMARK    4  A    between atoms: N_9  and  C_10 
REMARK    5  A    between atoms: C_13  and  O_14 
REMARK    6  A    between atoms: O_14  and  C_15 
REMARK    7  A    between atoms: C_15  and  C_16 
REMARK       I    between atoms: C_16  and  N_17 
REMARK    8  A    between atoms: C_23  and  C_24 
ROOT
HETATM    1  C   UNL     1     -41.604  56.291 -50.587  1.00  0.00     0.259 C 
HETATM    2  N   UNL     1     -42.011  55.299 -51.443  1.00  0.00    -0.323 N 
HETATM    3  O   UNL     1     -41.396  55.956 -49.418  1.00  0.00    -0.267 OA
HETATM    4  H   UNL     1     -42.152  54.446 -50.914  1.00  0.00     0.169 HD
ENDROOT
BRANCH   2   5
HETATM    5  C   UNL     1     -42.187  55.189 -52.830  1.00  0.00     0.035 A 
HETATM    6  C   UNL     1     -43.396  54.935 -53.475  1.00  0.00     0.032 A 
HETATM    7  C   UNL     1     -43.452  54.896 -54.877  1.00  0.00     0.039 A 
HETATM    8  C   UNL     1     -42.309  55.146 -55.634  1.00  0.00     0.069 A 
HETATM    9  C   UNL     1     -41.094  55.382 -55.004  1.00  0.00     0.039 A 
HETATM   10  C   UNL     1     -41.039  55.410 -53.610  1.00  0.00     0.032 A 
BRANCH   8  11
HETATM   11  O   UNL     1     -42.416  55.108 -56.997  1.00  0.00    -0.342 OA
BRANCH  11  12
HETATM   12  C   UNL     1     -42.868  56.356 -57.530  1.00  0.00     0.278 C 
BRANCH  12  13
HETATM   13  C   UNL     1     -44.008  56.214 -58.540  1.00  0.00     0.241 C 
HETATM   14  N   UNL     1     -44.145  54.947 -59.066  1.00  0.00    -0.364 N 
HETATM   15  C   UNL     1     -45.140  54.647 -60.062  1.00  0.00     0.149 C 
HETATM   16  H   UNL     1     -43.375  54.301 -58.917  1.00  0.00     0.161 HD
HETATM   17  O   UNL     1     -44.761  57.145 -58.814  1.00  0.00    -0.271 OA
ENDBRANCH  12  13
ENDBRANCH  11  12
ENDBRANCH   8  11
ENDBRANCH   2   5
BRANCH   1  18
HETATM   18  C   UNL     1     -41.560  57.681 -50.976  1.00  0.00     0.076 C 
HETATM   19  C   UNL     1     -40.426  58.523 -50.935  1.00  0.00     0.158 C 
HETATM   20  N   UNL     1     -40.623  59.695 -51.538  1.00  0.00    -0.183 NA
HETATM   21  N   UNL     1     -41.858  59.574 -52.070  1.00  0.00    -0.268 N 
HETATM   22  C   UNL     1     -42.516  58.439 -51.641  1.00  0.00     0.052 C 
BRANCH  21  23
HETATM   23  C   UNL     1     -42.344  60.574 -53.023  1.00  0.00     0.106 C 
HETATM   24  C   UNL     1     -43.320  61.580 -52.400  1.00  0.00     0.034 C 
BRANCH  23  25
HETATM   25  C   UNL     1     -42.887  59.948 -54.321  1.00  0.00     0.022 C 
HETATM   26  C   UNL     1     -41.933  58.999 -55.031  1.00  0.00     0.007 C 
ENDBRANCH  23  25
ENDBRANCH  21  23
BRANCH  22  27
HETATM   27  C   UNL     1     -44.001  58.165 -51.891  1.00  0.00     0.038 A 
HETATM   28  C   UNL     1     -44.879  57.309 -51.019  1.00  0.00     0.011 A 
HETATM   29  C   UNL     1     -44.971  58.791 -50.907  1.00  0.00     0.011 A 
ENDBRANCH  22  27
ENDBRANCH   1  18
TORSDOF 8
ENDMDL
MODEL 10
REMARK VINA RESULT:      -6.2     15.839     18.529
REMARK  8 active torsions:
REMARK  status: ('A' for Active; 'I' for Inactive)
REMARK    1  A    between atoms: C_2  and  C_3 
REMARK    2  A    between atoms: C_3  and  N_4 
REMARK    3  A    between atoms: C_7  and  C_8 
REMARK       I    between atoms: C_8  and  N_9 
REMARK    4  A    between atoms: N_9  and  C_10 
REMARK    5  A    between atoms: C_13  and  O_14 
REMARK    6  A    between atoms: O_14  and  C_15 
REMARK    7  A    between atoms: C_15  and  C_16 
REMARK       I    between atoms: C_16  and  N_17 
REMARK    8  A    between atoms: C_23  and  C_24 
ROOT
HETATM    1  C   UNL     1     -36.249  41.889 -53.957  1.00  0.00     0.259 C 
HETATM    2  N   UNL     1     -36.737  42.280 -55.178  1.00  0.00    -0.323 N 
HETATM    3  O   UNL     1     -36.249  42.743 -53.067  1.00  0.00    -0.267 OA
HETATM    4  H   UNL     1     -36.943  43.273 -55.147  1.00  0.00     0.169 HD
ENDROOT
BRANCH   2   5
HETATM    5  C   UNL     1     -37.073  41.628 -56.374  1.00  0.00     0.035 A 
HETATM    6  C   UNL     1     -37.904  40.515 -56.484  1.00  0.00     0.032 A 
HETATM    7  C   UNL     1     -38.202  39.981 -57.746  1.00  0.00     0.039 A 
HETATM    8  C   UNL     1     -37.702  40.580 -58.901  1.00  0.00     0.069 A 
HETATM    9  C   UNL     1     -36.857  41.679 -58.805  1.00  0.00     0.039 A 
HETATM   10  C   UNL     1     -36.554  42.202 -57.547  1.00  0.00     0.032 A 
BRANCH   8  11
HETATM   11  O   UNL     1     -38.030  40.030 -60.108  1.00  0.00    -0.342 OA
BRANCH  11  12
HETATM   12  C   UNL     1     -38.271  38.624 -60.005  1.00  0.00     0.278 C 
BRANCH  12  13
HETATM   13  C   UNL     1     -39.477  38.148 -60.818  1.00  0.00     0.241 C 
HETATM   14  N   UNL     1     -39.242  38.047 -62.173  1.00  0.00    -0.364 N 
HETATM   15  C   UNL     1     -40.280  37.655 -63.090  1.00  0.00     0.149 C 
HETATM   16  H   UNL     1     -38.401  38.489 -62.528  1.00  0.00     0.161 HD
HETATM   17  O   UNL     1     -40.543  37.840 -60.290  1.00  0.00    -0.271 OA
ENDBRANCH  12  13
ENDBRANCH  11  12
ENDBRANCH   8  11
ENDBRANCH   2   5
BRANCH   1  18
HETATM   18  C   UNL     1     -35.628  40.602 -53.747  1.00  0.00     0.076 C 
HETATM   19  C   UNL     1     -36.194  39.506 -53.056  1.00  0.00     0.158 C 
HETATM   20  N   UNL     1     -35.487  38.384 -53.187  1.00  0.00    -0.183 NA
HETATM   21  N   UNL     1     -34.512  38.724 -54.057  1.00  0.00    -0.268 N 
HETATM   22  C   UNL     1     -34.471  40.080 -54.311  1.00  0.00     0.052 C 
BRANCH  21  23
HETATM   23  C   UNL     1     -33.662  37.686 -54.645  1.00  0.00     0.106 C 
HETATM   24  C   UNL     1     -34.434  36.707 -55.540  1.00  0.00     0.034 C 
BRANCH  23  25
HETATM   25  C   UNL     1     -32.786  36.969 -53.601  1.00  0.00     0.022 C 
HETATM   26  C   UNL     1     -31.697  37.824 -52.972  1.00  0.00     0.007 C 
ENDBRANCH  23  25
ENDBRANCH  21  23
BRANCH  22  27
HETATM   27  C   UNL     1     -33.336  40.776 -55.067  1.00  0.00     0.038 A 
HETATM   28  C   UNL     1     -32.302  40.075 -55.906  1.00  0.00     0.011 A 
HETATM   29  C   UNL     1     -33.435  40.766 -56.580  1.00  0.00     0.011 A 
ENDBRANCH  22  27
ENDBRANCH   1  18
TORSDOF 8
ENDMDL
