MODEL 1
REMARK VINA RESULT:      -9.2      0.000      0.000
REMARK  8 active torsions:
REMARK  status: ('A' for Active; 'I' for Inactive)
REMARK    1  A    between atoms: C_2  and  C_3 
REMARK    2  A    between atoms: C_3  and  O_4 
REMARK    3  A    between atoms: O_4  and  C_5 
REMARK    4  A    between atoms: C_8  and  C_9 
REMARK       I    between atoms: C_9  and  N_10 
REMARK    5  A    between atoms: N_10  and  C_11 
REMARK    6  A    between atoms: N_12  and  C_13 
REMARK    7  A    between atoms: C_15  and  C_16 
REMARK    8  A    between atoms: C_27  and  O_28 
ROOT
HETATM    1  C   UNL     1     -43.741  59.314 -52.917  1.00  0.00     0.035 A 
HETATM    2  C   UNL     1     -43.117  58.066 -53.064  1.00  0.00     0.048 A 
HETATM    3  C   UNL     1     -43.438  56.965 -52.246  1.00  0.00     0.052 A 
HETATM    4  C   UNL     1     -44.432  57.143 -51.275  1.00  0.00     0.080 A 
HETATM    5  C   UNL     1     -45.061  58.384 -51.116  1.00  0.00     0.040 A 
HETATM    6  C   UNL     1     -44.705  59.467 -51.926  1.00  0.00     0.032 A 
ENDROOT
BRANCH   1   7
HETATM    7  N   UNL     1     -43.258  60.361 -53.731  1.00  0.00    -0.333 N 
HETATM    8  C   UNL     1     -43.206  60.499 -55.071  1.00  0.00     0.179 C 
HETATM    9  S   UNL     1     -43.381  62.033 -55.723  1.00  0.00    -0.040 SA
HETATM   10  H   UNL     1     -43.123  61.239 -53.241  1.00  0.00     0.168 HD
BRANCH   8  11
HETATM   11  N   UNL     1     -42.991  59.473 -55.934  1.00  0.00    -0.299 N 
HETATM   12  C   UNL     1     -42.196  59.514 -57.075  1.00  0.00     0.257 C 
HETATM   13  O   UNL     1     -41.286  60.296 -57.312  1.00  0.00    -0.267 OA
HETATM   14  H   UNL     1     -43.840  58.936 -56.053  1.00  0.00     0.171 HD
BRANCH  12  15
HETATM   15  C   UNL     1     -42.559  58.498 -58.103  1.00  0.00     0.032 A 
HETATM   16  C   UNL     1     -42.826  58.937 -59.404  1.00  0.00     0.020 A 
HETATM   17  C   UNL     1     -43.259  58.025 -60.370  1.00  0.00     0.038 A 
HETATM   18  C   UNL     1     -43.391  56.673 -60.053  1.00  0.00     0.068 A 
HETATM   19  C   UNL     1     -43.105  56.229 -58.761  1.00  0.00     0.038 A 
HETATM   20  C   UNL     1     -42.686  57.140 -57.784  1.00  0.00     0.020 A 
BRANCH  18  21
HETATM   21  O   UNL     1     -43.885  55.873 -61.045  1.00  0.00    -0.351 OA
BRANCH  21  22
HETATM   22  C   UNL     1     -45.036  55.107 -60.684  1.00  0.00     0.175 C 
BRANCH  22  23
HETATM   23  C   UNL     1     -46.289  55.933 -60.976  1.00  0.00     0.022 C 
HETATM   24  C   UNL     1     -46.833  56.637 -59.741  1.00  0.00     0.007 C 
ENDBRANCH  22  23
ENDBRANCH  21  22
ENDBRANCH  18  21
ENDBRANCH  12  15
ENDBRANCH   8  11
ENDBRANCH   1   7
BRANCH   3  25
HETATM   25  C   UNL     1     -42.696  55.720 -52.463  1.00  0.00     0.183 A 
HETATM   26  O   UNL     1     -41.882  55.273 -51.453  1.00  0.00    -0.288 OA
HETATM   27  C   UNL     1     -41.284  54.157 -51.966  1.00  0.00     0.112 A 
HETATM   28  C   UNL     1     -41.757  53.989 -53.255  1.00  0.00     0.094 A 
HETATM   29  C   UNL     1     -40.358  53.326 -51.336  1.00  0.00    -0.025 A 
HETATM   30  N   UNL     1     -42.643  54.988 -53.566  1.00  0.00    -0.221 NA
HETATM   31  C   UNL     1     -41.292  52.908 -54.017  1.00  0.00     0.041 A 
HETATM   32  C   UNL     1     -40.356  52.031 -53.439  1.00  0.00    -0.059 A 
HETATM   33  C   UNL     1     -39.904  52.248 -52.123  1.00  0.00     0.016 A 
HETATM   34  C   UNL     1     -39.838  50.875 -54.246  1.00  0.00     0.048 C 
HETATM   35  C   UNL     1     -39.855  53.532 -49.944  1.00  0.00     0.051 C 
ENDBRANCH   3  25
BRANCH   4  36
HETATM   36  O   UNL     1     -44.812  56.110 -50.464  1.00  0.00    -0.360 OA
HETATM   37  H   UNL     1     -45.358  56.449 -49.737  1.00  0.00     0.217 HD
ENDBRANCH   4  36
TORSDOF 8
ENDMDL
MODEL 2
REMARK VINA RESULT:      -9.1      1.792      2.331
REMARK  8 active torsions:
REMARK  status: ('A' for Active; 'I' for Inactive)
REMARK    1  A    between atoms: C_2  and  C_3 
REMARK    2  A    between atoms: C_3  and  O_4 
REMARK    3  A    between atoms: O_4  and  C_5 
REMARK    4  A    between atoms: C_8  and  C_9 
REMARK       I    between atoms: C_9  and  N_10 
REMARK    5  A    between atoms: N_10  and  C_11 
REMARK    6  A    between atoms: N_12  and  C_13 
REMARK    7  A    between atoms: C_15  and  C_16 
REMARK    8  A    between atoms: C_27  and  O_28 
ROOT
HETATM    1  C   UNL     1     -41.910  59.495 -54.072  1.00  0.00     0.035 A 
HETATM    2  C   UNL     1     -41.619  58.124 -54.071  1.00  0.00     0.048 A 
HETATM    3  C   UNL     1     -41.594  57.361 -52.886  1.00  0.00     0.052 A 
HETATM    4  C   UNL     1     -41.895  58.017 -51.685  1.00  0.00     0.080 A 
HETATM    5  C   UNL     1     -42.185  59.386 -51.671  1.00  0.00     0.040 A 
HETATM    6  C   UNL     1     -42.179  60.123 -52.860  1.00  0.00     0.032 A 
ENDROOT
BRANCH   1   7
HETATM    7  N   UNL     1     -41.803  60.163 -55.311  1.00  0.00    -0.333 N 
HETATM    8  C   UNL     1     -42.665  60.274 -56.342  1.00  0.00     0.179 C 
HETATM    9  S   UNL     1     -42.662  61.693 -57.234  1.00  0.00    -0.040 SA
HETATM   10  H   UNL     1     -41.051  60.843 -55.354  1.00  0.00     0.168 HD
BRANCH   8  11
HETATM   11  N   UNL     1     -43.521  59.295 -56.727  1.00  0.00    -0.299 N 
HETATM   12  C   UNL     1     -43.252  58.282 -57.643  1.00  0.00     0.257 C 
HETATM   13  O   UNL     1     -42.152  57.861 -57.973  1.00  0.00    -0.267 OA
HETATM   14  H   UNL     1     -44.461  59.664 -56.800  1.00  0.00     0.171 HD
BRANCH  12  15
HETATM   15  C   UNL     1     -44.467  57.709 -58.289  1.00  0.00     0.032 A 
HETATM   16  C   UNL     1     -44.310  56.613 -59.142  1.00  0.00     0.020 A 
HETATM   17  C   UNL     1     -45.413  56.109 -59.836  1.00  0.00     0.038 A 
HETATM   18  C   UNL     1     -46.677  56.672 -59.654  1.00  0.00     0.068 A 
HETATM   19  C   UNL     1     -46.840  57.754 -58.787  1.00  0.00     0.038 A 
HETATM   20  C   UNL     1     -45.736  58.273 -58.100  1.00  0.00     0.020 A 
BRANCH  18  21
HETATM   21  O   UNL     1     -47.677  56.153 -60.427  1.00  0.00    -0.351 OA
BRANCH  21  22
HETATM   22  C   UNL     1     -47.574  56.450 -61.822  1.00  0.00     0.175 C 
BRANCH  22  23
HETATM   23  C   UNL     1     -48.881  57.093 -62.287  1.00  0.00     0.022 C 
HETATM   24  C   UNL     1     -48.836  58.614 -62.246  1.00  0.00     0.007 C 
ENDBRANCH  22  23
ENDBRANCH  21  22
ENDBRANCH  18  21
ENDBRANCH  12  15
ENDBRANCH   8  11
ENDBRANCH   1   7
BRANCH   3  25
HETATM   25  C   UNL     1     -41.240  55.944 -52.999  1.00  0.00     0.183 A 
HETATM   26  O   UNL     1     -41.020  55.243 -51.841  1.00  0.00    -0.288 OA
HETATM   27  C   UNL     1     -40.648  53.998 -52.262  1.00  0.00     0.112 A 
HETATM   28  C   UNL     1     -40.654  54.008 -53.645  1.00  0.00     0.094 A 
HETATM   29  C   UNL     1     -40.309  52.901 -51.470  1.00  0.00    -0.025 A 
HETATM   30  N   UNL     1     -41.021  55.247 -54.104  1.00  0.00    -0.221 NA
HETATM   31  C   UNL     1     -40.299  52.844 -54.338  1.00  0.00     0.041 A 
HETATM   32  C   UNL     1     -39.947  51.701 -53.597  1.00  0.00    -0.059 A 
HETATM   33  C   UNL     1     -39.954  51.742 -52.190  1.00  0.00     0.016 A 
HETATM   34  C   UNL     1     -39.553  50.447 -54.324  1.00  0.00     0.048 C 
HETATM   35  C   UNL     1     -40.302  52.915 -49.975  1.00  0.00     0.051 C 
ENDBRANCH   3  25
BRANCH   4  36
HETATM   36  O   UNL     1     -41.916  57.333 -50.501  1.00  0.00    -0.360 OA
HETATM   37  H   UNL     1     -41.204  57.656 -49.925  1.00  0.00     0.217 HD
ENDBRANCH   4  36
TORSDOF 8
ENDMDL
MODEL 3
REMARK VINA RESULT:      -9.0      2.651      8.696
REMARK  8 active torsions:
REMARK  status: ('A' for Active; 'I' for Inactive)
REMARK    1  A    between atoms: C_2  and  C_3 
REMARK    2  A    between atoms: C_3  and  O_4 
REMARK    3  A    between atoms: O_4  and  C_5 
REMARK    4  A    between atoms: C_8  and  C_9 
REMARK       I    between atoms: C_9  and  N_10 
REMARK    5  A    between atoms: N_10  and  C_11 
REMARK    6  A    between atoms: N_12  and  C_13 
REMARK    7  A    between atoms: C_15  and  C_16 
REMARK    8  A    between atoms: C_27  and  O_28 
ROOT
HETATM    1  C   UNL     1     -44.250  57.055 -54.250  1.00  0.00     0.035 A 
HETATM    2  C   UNL     1     -43.770  58.046 -55.118  1.00  0.00     0.048 A 
HETATM    3  C   UNL     1     -43.053  57.736 -56.290  1.00  0.00     0.052 A 
HETATM    4  C   UNL     1     -42.847  56.382 -56.587  1.00  0.00     0.080 A 
HETATM    5  C   UNL     1     -43.319  55.383 -55.729  1.00  0.00     0.040 A 
HETATM    6  C   UNL     1     -44.006  55.720 -54.558  1.00  0.00     0.032 A 
ENDROOT
BRANCH   1   7
HETATM    7  N   UNL     1     -44.864  57.501 -53.060  1.00  0.00    -0.333 N 
HETATM    8  C   UNL     1     -44.420  57.540 -51.787  1.00  0.00     0.179 C 
HETATM    9  S   UNL     1     -44.942  58.790 -50.799  1.00  0.00    -0.040 SA
HETATM   10  H   UNL     1     -45.685  58.078 -53.207  1.00  0.00     0.168 HD
BRANCH   8  11
HETATM   11  N   UNL     1     -43.596  56.612 -51.239  1.00  0.00    -0.299 N 
HETATM   12  C   UNL     1     -42.209  56.687 -51.166  1.00  0.00     0.257 C 
HETATM   13  O   UNL     1     -41.522  57.697 -51.221  1.00  0.00    -0.267 OA
HETATM   14  H   UNL     1     -43.939  55.681 -51.440  1.00  0.00     0.171 HD
BRANCH  12  15
HETATM   15  C   UNL     1     -41.535  55.363 -51.046  1.00  0.00     0.032 A 
HETATM   16  C   UNL     1     -41.250  54.655 -52.217  1.00  0.00     0.020 A 
HETATM   17  C   UNL     1     -40.704  53.372 -52.138  1.00  0.00     0.038 A 
HETATM   18  C   UNL     1     -40.409  52.807 -50.897  1.00  0.00     0.068 A 
HETATM   19  C   UNL     1     -40.673  53.520 -49.726  1.00  0.00     0.038 A 
HETATM   20  C   UNL     1     -41.234  54.800 -49.798  1.00  0.00     0.020 A 
BRANCH  18  21
HETATM   21  O   UNL     1     -39.941  51.523 -50.922  1.00  0.00    -0.351 OA
BRANCH  21  22
HETATM   22  C   UNL     1     -39.183  51.182 -52.084  1.00  0.00     0.175 C 
BRANCH  22  23
HETATM   23  C   UNL     1     -39.720  49.869 -52.655  1.00  0.00     0.022 C 
HETATM   24  C   UNL     1     -39.856  49.898 -54.171  1.00  0.00     0.007 C 
ENDBRANCH  22  23
ENDBRANCH  21  22
ENDBRANCH  18  21
ENDBRANCH  12  15
ENDBRANCH   8  11
ENDBRANCH   1   7
BRANCH   3  25
HETATM   25  C   UNL     1     -42.564  58.853 -57.103  1.00  0.00     0.183 A 
HETATM   26  O   UNL     1     -42.921  58.890 -58.426  1.00  0.00    -0.288 OA
HETATM   27  C   UNL     1     -42.272  59.983 -58.924  1.00  0.00     0.112 A 
HETATM   28  C   UNL     1     -41.552  60.547 -57.887  1.00  0.00     0.094 A 
HETATM   29  C   UNL     1     -42.301  60.463 -60.234  1.00  0.00    -0.025 A 
HETATM   30  N   UNL     1     -41.735  59.820 -56.739  1.00  0.00    -0.221 NA
HETATM   31  C   UNL     1     -40.781  61.690 -58.133  1.00  0.00     0.041 A 
HETATM   32  C   UNL     1     -40.767  62.225 -59.434  1.00  0.00    -0.059 A 
HETATM   33  C   UNL     1     -41.516  61.612 -60.457  1.00  0.00     0.016 A 
HETATM   34  C   UNL     1     -39.937  63.444 -59.718  1.00  0.00     0.048 C 
HETATM   35  C   UNL     1     -43.080  59.832 -61.342  1.00  0.00     0.051 C 
ENDBRANCH   3  25
BRANCH   4  36
HETATM   36  O   UNL     1     -42.182  56.008 -57.722  1.00  0.00    -0.360 OA
HETATM   37  H   UNL     1     -41.753  55.149 -57.581  1.00  0.00     0.217 HD
ENDBRANCH   4  36
TORSDOF 8
ENDMDL
MODEL 4
REMARK VINA RESULT:      -9.0      2.161      6.194
REMARK  8 active torsions:
REMARK  status: ('A' for Active; 'I' for Inactive)
REMARK    1  A    between atoms: C_2  and  C_3 
REMARK    2  A    between atoms: C_3  and  O_4 
REMARK    3  A    between atoms: O_4  and  C_5 
REMARK    4  A    between atoms: C_8  and  C_9 
REMARK       I    between atoms: C_9  and  N_10 
REMARK    5  A    between atoms: N_10  and  C_11 
REMARK    6  A    between atoms: N_12  and  C_13 
REMARK    7  A    between atoms: C_15  and  C_16 
REMARK    8  A    between atoms: C_27  and  O_28 
ROOT
HETATM    1  C   UNL     1     -44.842  58.683 -56.715  1.00  0.00     0.035 A 
HETATM    2  C   UNL     1     -44.170  57.691 -55.987  1.00  0.00     0.048 A 
HETATM    3  C   UNL     1     -43.388  56.700 -56.612  1.00  0.00     0.052 A 
HETATM    4  C   UNL     1     -43.277  56.743 -58.008  1.00  0.00     0.080 A 
HETATM    5  C   UNL     1     -43.944  57.727 -58.747  1.00  0.00     0.040 A 
HETATM    6  C   UNL     1     -44.734  58.684 -58.102  1.00  0.00     0.032 A 
ENDROOT
BRANCH   1   7
HETATM    7  N   UNL     1     -45.671  59.555 -55.978  1.00  0.00    -0.333 N 
HETATM    8  C   UNL     1     -45.426  60.316 -54.891  1.00  0.00     0.179 C 
HETATM    9  S   UNL     1     -46.232  61.778 -54.743  1.00  0.00    -0.040 SA
HETATM   10  H   UNL     1     -46.525  59.821 -56.457  1.00  0.00     0.168 HD
BRANCH   8  11
HETATM   11  N   UNL     1     -44.586  59.959 -53.887  1.00  0.00    -0.299 N 
HETATM   12  C   UNL     1     -43.201  60.094 -53.889  1.00  0.00     0.257 C 
HETATM   13  O   UNL     1     -42.536  60.857 -54.575  1.00  0.00    -0.267 OA
HETATM   14  H   UNL     1     -44.907  59.103 -53.453  1.00  0.00     0.171 HD
BRANCH  12  15
HETATM   15  C   UNL     1     -42.499  59.158 -52.966  1.00  0.00     0.032 A 
HETATM   16  C   UNL     1     -41.488  58.345 -53.487  1.00  0.00     0.020 A 
HETATM   17  C   UNL     1     -40.873  57.392 -52.673  1.00  0.00     0.038 A 
HETATM   18  C   UNL     1     -41.238  57.270 -51.331  1.00  0.00     0.068 A 
HETATM   19  C   UNL     1     -42.233  58.094 -50.803  1.00  0.00     0.038 A 
HETATM   20  C   UNL     1     -42.864  59.041 -51.618  1.00  0.00     0.020 A 
BRANCH  18  21
HETATM   21  O   UNL     1     -40.628  56.264 -50.636  1.00  0.00    -0.351 OA
BRANCH  21  22
HETATM   22  C   UNL     1     -41.348  55.802 -49.491  1.00  0.00     0.175 C 
BRANCH  22  23
HETATM   23  C   UNL     1     -40.674  54.535 -48.963  1.00  0.00     0.022 C 
HETATM   24  C   UNL     1     -39.390  54.197 -49.707  1.00  0.00     0.007 C 
ENDBRANCH  22  23
ENDBRANCH  21  22
ENDBRANCH  18  21
ENDBRANCH  12  15
ENDBRANCH   8  11
ENDBRANCH   1   7
BRANCH   3  25
HETATM   25  C   UNL     1     -42.762  55.689 -55.755  1.00  0.00     0.183 A 
HETATM   26  O   UNL     1     -43.284  55.497 -54.502  1.00  0.00    -0.288 OA
HETATM   27  C   UNL     1     -42.465  54.565 -53.931  1.00  0.00     0.112 A 
HETATM   28  C   UNL     1     -41.490  54.245 -54.858  1.00  0.00     0.094 A 
HETATM   29  C   UNL     1     -42.562  54.022 -52.650  1.00  0.00    -0.025 A 
HETATM   30  N   UNL     1     -41.680  54.968 -56.008  1.00  0.00    -0.221 NA
HETATM   31  C   UNL     1     -40.507  53.307 -54.519  1.00  0.00     0.041 A 
HETATM   32  C   UNL     1     -40.548  52.721 -53.240  1.00  0.00    -0.059 A 
HETATM   33  C   UNL     1     -41.561  53.082 -52.331  1.00  0.00     0.016 A 
HETATM   34  C   UNL     1     -39.495  51.722 -52.856  1.00  0.00     0.048 C 
HETATM   35  C   UNL     1     -43.621  54.388 -51.661  1.00  0.00     0.051 C 
ENDBRANCH   3  25
BRANCH   4  36
HETATM   36  O   UNL     1     -42.514  55.828 -58.678  1.00  0.00    -0.360 OA
HETATM   37  H   UNL     1     -42.506  56.040 -59.625  1.00  0.00     0.217 HD
ENDBRANCH   4  36
TORSDOF 8
ENDMDL
MODEL 5
REMARK VINA RESULT:      -8.8      3.485      8.192
REMARK  8 active torsions:
REMARK  status: ('A' for Active; 'I' for Inactive)
REMARK    1  A    between atoms: C_2  and  C_3 
REMARK    2  A    between atoms: C_3  and  O_4 
REMARK    3  A    between atoms: O_4  and  C_5 
REMARK    4  A    between atoms: C_8  and  C_9 
REMARK       I    between atoms: C_9  and  N_10 
REMARK    5  A    between atoms: N_10  and  C_11 
REMARK    6  A    between atoms: N_12  and  C_13 
REMARK    7  A    between atoms: C_15  and  C_16 
REMARK    8  A    between atoms: C_27  and  O_28 
ROOT
HETATM    1  C   UNL     1     -41.593  59.377 -53.609  1.00  0.00     0.035 A 
HETATM    2  C   UNL     1     -42.563  60.070 -52.869  1.00  0.00     0.048 A 
HETATM    3  C   UNL     1     -42.493  60.190 -51.467  1.00  0.00     0.052 A 
HETATM    4  C   UNL     1     -41.397  59.608 -50.818  1.00  0.00     0.080 A 
HETATM    5  C   UNL     1     -40.424  58.912 -51.544  1.00  0.00     0.040 A 
HETATM    6  C   UNL     1     -40.530  58.787 -52.933  1.00  0.00     0.032 A 
ENDROOT
BRANCH   1   7
HETATM    7  N   UNL     1     -41.832  59.244 -54.993  1.00  0.00    -0.333 N 
HETATM    8  C   UNL     1     -42.319  58.218 -55.722  1.00  0.00     0.179 C 
HETATM    9  S   UNL     1     -43.237  58.568 -57.080  1.00  0.00    -0.040 SA
HETATM   10  H   UNL     1     -41.842  60.123 -55.500  1.00  0.00     0.168 HD
BRANCH   8  11
HETATM   11  N   UNL     1     -42.089  56.910 -55.442  1.00  0.00    -0.299 N 
HETATM   12  C   UNL     1     -42.805  56.124 -54.544  1.00  0.00     0.257 C 
HETATM   13  O   UNL     1     -43.943  56.317 -54.141  1.00  0.00    -0.267 OA
HETATM   14  H   UNL     1     -41.094  56.727 -55.433  1.00  0.00     0.171 HD
BRANCH  12  15
HETATM   15  C   UNL     1     -42.043  54.956 -54.020  1.00  0.00     0.032 A 
HETATM   16  C   UNL     1     -41.494  55.043 -52.736  1.00  0.00     0.020 A 
HETATM   17  C   UNL     1     -40.698  54.005 -52.249  1.00  0.00     0.038 A 
HETATM   18  C   UNL     1     -40.475  52.865 -53.023  1.00  0.00     0.068 A 
HETATM   19  C   UNL     1     -41.038  52.766 -54.296  1.00  0.00     0.038 A 
HETATM   20  C   UNL     1     -41.826  53.810 -54.796  1.00  0.00     0.020 A 
BRANCH  18  21
HETATM   21  O   UNL     1     -39.627  51.936 -52.486  1.00  0.00    -0.351 OA
BRANCH  21  22
HETATM   22  C   UNL     1     -39.462  50.751 -53.267  1.00  0.00     0.175 C 
BRANCH  22  23
HETATM   23  C   UNL     1     -39.713  49.534 -52.376  1.00  0.00     0.022 C 
HETATM   24  C   UNL     1     -39.587  49.854 -50.893  1.00  0.00     0.007 C 
ENDBRANCH  22  23
ENDBRANCH  21  22
ENDBRANCH  18  21
ENDBRANCH  12  15
ENDBRANCH   8  11
ENDBRANCH   1   7
BRANCH   3  25
HETATM   25  C   UNL     1     -43.582  60.902 -50.793  1.00  0.00     0.183 A 
HETATM   26  O   UNL     1     -43.690  60.771 -49.432  1.00  0.00    -0.288 OA
HETATM   27  C   UNL     1     -44.814  61.477 -49.109  1.00  0.00     0.112 A 
HETATM   28  C   UNL     1     -45.333  61.990 -50.284  1.00  0.00     0.094 A 
HETATM   29  C   UNL     1     -45.368  61.656 -47.842  1.00  0.00    -0.025 A 
HETATM   30  N   UNL     1     -44.552  61.615 -51.347  1.00  0.00    -0.221 NA
HETATM   31  C   UNL     1     -46.504  62.757 -50.235  1.00  0.00     0.041 A 
HETATM   32  C   UNL     1     -47.113  62.976 -48.986  1.00  0.00    -0.059 A 
HETATM   33  C   UNL     1     -46.547  62.429 -47.819  1.00  0.00     0.016 A 
HETATM   34  C   UNL     1     -48.376  63.786 -48.917  1.00  0.00     0.048 C 
HETATM   35  C   UNL     1     -44.794  61.084 -46.586  1.00  0.00     0.051 C 
ENDBRANCH   3  25
BRANCH   4  36
HETATM   36  O   UNL     1     -41.252  59.708 -49.462  1.00  0.00    -0.360 OA
HETATM   37  H   UNL     1     -41.615  58.916 -49.035  1.00  0.00     0.217 HD
ENDBRANCH   4  36
TORSDOF 8
ENDMDL
MODEL 6
REMARK VINA RESULT:      -8.8      2.577      4.457
REMARK  8 active torsions:
REMARK  status: ('A' for Active; 'I' for Inactive)
REMARK    1  A    between atoms: C_2  and  C_3 
REMARK    2  A    between atoms: C_3  and  O_4 
REMARK    3  A    between atoms: O_4  and  C_5 
REMARK    4  A    between atoms: C_8  and  C_9 
REMARK       I    between atoms: C_9  and  N_10 
REMARK    5  A    between atoms: N_10  and  C_11 
REMARK    6  A    between atoms: N_12  and  C_13 
REMARK    7  A    between atoms: C_15  and  C_16 
REMARK    8  A    between atoms: C_27  and  O_28 
ROOT
HETATM    1  C   UNL     1     -45.126  60.853 -53.471  1.00  0.00     0.035 A 
HETATM    2  C   UNL     1     -44.346  59.774 -53.031  1.00  0.00     0.048 A 
HETATM    3  C   UNL     1     -44.572  59.137 -51.795  1.00  0.00     0.052 A 
HETATM    4  C   UNL     1     -45.633  59.604 -51.008  1.00  0.00     0.080 A 
HETATM    5  C   UNL     1     -46.418  60.682 -51.434  1.00  0.00     0.040 A 
HETATM    6  C   UNL     1     -46.155  61.311 -52.655  1.00  0.00     0.032 A 
ENDROOT
BRANCH   1   7
HETATM    7  N   UNL     1     -44.732  61.465 -54.680  1.00  0.00    -0.333 N 
HETATM    8  C   UNL     1     -44.534  60.960 -55.914  1.00  0.00     0.179 C 
HETATM    9  S   UNL     1     -44.887  61.926 -57.238  1.00  0.00    -0.040 SA
HETATM   10  H   UNL     1     -44.814  62.477 -54.680  1.00  0.00     0.168 HD
BRANCH   8  11
HETATM   11  N   UNL     1     -44.037  59.721 -56.159  1.00  0.00    -0.299 N 
HETATM   12  C   UNL     1     -44.777  58.589 -56.484  1.00  0.00     0.257 C 
HETATM   13  O   UNL     1     -45.901  58.556 -56.964  1.00  0.00    -0.267 OA
HETATM   14  H   UNL     1     -43.260  59.530 -55.538  1.00  0.00     0.171 HD
BRANCH  12  15
HETATM   15  C   UNL     1     -44.096  57.304 -56.157  1.00  0.00     0.032 A 
HETATM   16  C   UNL     1     -44.154  56.839 -54.839  1.00  0.00     0.020 A 
HETATM   17  C   UNL     1     -43.450  55.688 -54.477  1.00  0.00     0.038 A 
HETATM   18  C   UNL     1     -42.718  54.980 -55.431  1.00  0.00     0.068 A 
HETATM   19  C   UNL     1     -42.675  55.431 -56.752  1.00  0.00     0.038 A 
HETATM   20  C   UNL     1     -43.366  56.592 -57.118  1.00  0.00     0.020 A 
BRANCH  18  21
HETATM   21  O   UNL     1     -42.010  53.908 -54.965  1.00  0.00    -0.351 OA
BRANCH  21  22
HETATM   22  C   UNL     1     -41.087  54.207 -53.916  1.00  0.00     0.175 C 
BRANCH  22  23
HETATM   23  C   UNL     1     -40.638  52.899 -53.266  1.00  0.00     0.022 C 
HETATM   24  C   UNL     1     -40.239  51.840 -54.284  1.00  0.00     0.007 C 
ENDBRANCH  22  23
ENDBRANCH  21  22
ENDBRANCH  18  21
ENDBRANCH  12  15
ENDBRANCH   8  11
ENDBRANCH   1   7
BRANCH   3  25
HETATM   25  C   UNL     1     -43.671  58.045 -51.419  1.00  0.00     0.183 A 
HETATM   26  O   UNL     1     -44.212  56.797 -51.247  1.00  0.00    -0.288 OA
HETATM   27  C   UNL     1     -43.161  56.023 -50.840  1.00  0.00     0.112 A 
HETATM   28  C   UNL     1     -42.046  56.838 -50.779  1.00  0.00     0.094 A 
HETATM   29  C   UNL     1     -43.180  54.664 -50.528  1.00  0.00    -0.025 A 
HETATM   30  N   UNL     1     -42.378  58.119 -51.138  1.00  0.00    -0.221 NA
HETATM   31  C   UNL     1     -40.821  56.289 -50.378  1.00  0.00     0.041 A 
HETATM   32  C   UNL     1     -40.772  54.922 -50.048  1.00  0.00    -0.059 A 
HETATM   33  C   UNL     1     -41.937  54.136 -50.124  1.00  0.00     0.016 A 
HETATM   34  C   UNL     1     -39.470  54.320 -49.605  1.00  0.00     0.048 C 
HETATM   35  C   UNL     1     -44.401  53.804 -50.593  1.00  0.00     0.051 C 
ENDBRANCH   3  25
BRANCH   4  36
HETATM   36  O   UNL     1     -45.927  59.016 -49.809  1.00  0.00    -0.360 OA
HETATM   37  H   UNL     1     -46.140  59.700 -49.153  1.00  0.00     0.217 HD
ENDBRANCH   4  36
TORSDOF 8
ENDMDL
MODEL 7
REMARK VINA RESULT:      -8.7      1.651      2.438
REMARK  8 active torsions:
REMARK  status: ('A' for Active; 'I' for Inactive)
REMARK    1  A    between atoms: C_2  and  C_3 
REMARK    2  A    between atoms: C_3  and  O_4 
REMARK    3  A    between atoms: O_4  and  C_5 
REMARK    4  A    between atoms: C_8  and  C_9 
REMARK       I    between atoms: C_9  and  N_10 
REMARK    5  A    between atoms: N_10  and  C_11 
REMARK    6  A    between atoms: N_12  and  C_13 
REMARK    7  A    between atoms: C_15  and  C_16 
REMARK    8  A    between atoms: C_27  and  O_28 
ROOT
HETATM    1  C   UNL     1     -43.675  60.167 -51.923  1.00  0.00     0.035 A 
HETATM    2  C   UNL     1     -43.057  58.968 -52.305  1.00  0.00     0.048 A 
HETATM    3  C   UNL     1     -43.523  57.711 -51.871  1.00  0.00     0.052 A 
HETATM    4  C   UNL     1     -44.657  57.687 -51.048  1.00  0.00     0.080 A 
HETATM    5  C   UNL     1     -45.282  58.876 -50.658  1.00  0.00     0.040 A 
HETATM    6  C   UNL     1     -44.784  60.112 -51.084  1.00  0.00     0.032 A 
ENDROOT
BRANCH   1   7
HETATM    7  N   UNL     1     -43.051  61.361 -52.344  1.00  0.00    -0.333 N 
HETATM    8  C   UNL     1     -42.999  61.965 -53.549  1.00  0.00     0.179 C 
HETATM    9  S   UNL     1     -42.948  63.640 -53.600  1.00  0.00    -0.040 SA
HETATM   10  H   UNL     1     -42.776  61.976 -51.586  1.00  0.00     0.168 HD
BRANCH   8  11
HETATM   11  N   UNL     1     -42.956  61.301 -54.732  1.00  0.00    -0.299 N 
HETATM   12  C   UNL     1     -44.040  60.732 -55.394  1.00  0.00     0.257 C 
HETATM   13  O   UNL     1     -45.220  61.022 -55.260  1.00  0.00    -0.267 OA
HETATM   14  H   UNL     1     -42.112  60.745 -54.787  1.00  0.00     0.171 HD
BRANCH  12  15
HETATM   15  C   UNL     1     -43.669  59.629 -56.326  1.00  0.00     0.032 A 
HETATM   16  C   UNL     1     -44.221  59.633 -57.611  1.00  0.00     0.020 A 
HETATM   17  C   UNL     1     -43.970  58.568 -58.478  1.00  0.00     0.038 A 
HETATM   18  C   UNL     1     -43.142  57.517 -58.082  1.00  0.00     0.068 A 
HETATM   19  C   UNL     1     -42.573  57.521 -56.807  1.00  0.00     0.038 A 
HETATM   20  C   UNL     1     -42.833  58.578 -55.928  1.00  0.00     0.020 A 
BRANCH  18  21
HETATM   21  O   UNL     1     -43.012  56.490 -58.975  1.00  0.00    -0.351 OA
BRANCH  21  22
HETATM   22  C   UNL     1     -43.588  56.735 -60.260  1.00  0.00     0.175 C 
BRANCH  22  23
HETATM   23  C   UNL     1     -44.552  55.596 -60.593  1.00  0.00     0.022 C 
HETATM   24  C   UNL     1     -44.426  54.419 -59.637  1.00  0.00     0.007 C 
ENDBRANCH  22  23
ENDBRANCH  21  22
ENDBRANCH  18  21
ENDBRANCH  12  15
ENDBRANCH   8  11
ENDBRANCH   1   7
BRANCH   3  25
HETATM   25  C   UNL     1     -42.776  56.525 -52.300  1.00  0.00     0.183 A 
HETATM   26  O   UNL     1     -43.129  55.939 -53.488  1.00  0.00    -0.288 OA
HETATM   27  C   UNL     1     -42.321  54.842 -53.580  1.00  0.00     0.112 A 
HETATM   28  C   UNL     1     -41.529  54.814 -52.447  1.00  0.00     0.094 A 
HETATM   29  C   UNL     1     -42.284  53.900 -54.609  1.00  0.00    -0.025 A 
HETATM   30  N   UNL     1     -41.829  55.878 -51.637  1.00  0.00    -0.221 NA
HETATM   31  C   UNL     1     -40.604  53.774 -52.286  1.00  0.00     0.041 A 
HETATM   32  C   UNL     1     -40.516  52.790 -53.289  1.00  0.00    -0.059 A 
HETATM   33  C   UNL     1     -41.347  52.863 -54.423  1.00  0.00     0.016 A 
HETATM   34  C   UNL     1     -39.539  51.662 -53.127  1.00  0.00     0.048 C 
HETATM   35  C   UNL     1     -43.155  53.946 -55.821  1.00  0.00     0.051 C 
ENDBRANCH   3  25
BRANCH   4  36
HETATM   36  O   UNL     1     -45.179  56.501 -50.611  1.00  0.00    -0.360 OA
HETATM   37  H   UNL     1     -46.080  56.643 -50.280  1.00  0.00     0.217 HD
ENDBRANCH   4  36
TORSDOF 8
ENDMDL
MODEL 8
REMARK VINA RESULT:      -8.7      2.946      9.001
REMARK  8 active torsions:
REMARK  status: ('A' for Active; 'I' for Inactive)
REMARK    1  A    between atoms: C_2  and  C_3 
REMARK    2  A    between atoms: C_3  and  O_4 
REMARK    3  A    between atoms: O_4  and  C_5 
REMARK    4  A    between atoms: C_8  and  C_9 
REMARK       I    between atoms: C_9  and  N_10 
REMARK    5  A    between atoms: N_10  and  C_11 
REMARK    6  A    between atoms: N_12  and  C_13 
REMARK    7  A    between atoms: C_15  and  C_16 
REMARK    8  A    between atoms: C_27  and  O_28 
ROOT
HETATM    1  C   UNL     1     -44.010  57.429 -57.047  1.00  0.00     0.035 A 
HETATM    2  C   UNL     1     -43.528  58.455 -57.872  1.00  0.00     0.048 A 
HETATM    3  C   UNL     1     -42.703  58.198 -58.986  1.00  0.00     0.052 A 
HETATM    4  C   UNL     1     -42.389  56.862 -59.268  1.00  0.00     0.080 A 
HETATM    5  C   UNL     1     -42.863  55.829 -58.451  1.00  0.00     0.040 A 
HETATM    6  C   UNL     1     -43.659  56.115 -57.337  1.00  0.00     0.032 A 
ENDROOT
BRANCH   1   7
HETATM    7  N   UNL     1     -44.742  57.828 -55.907  1.00  0.00    -0.333 N 
HETATM    8  C   UNL     1     -44.395  57.911 -54.607  1.00  0.00     0.179 C 
HETATM    9  S   UNL     1     -45.088  59.117 -53.672  1.00  0.00    -0.040 SA
HETATM   10  H   UNL     1     -45.596  58.333 -56.117  1.00  0.00     0.168 HD
BRANCH   8  11
HETATM   11  N   UNL     1     -43.536  57.058 -53.992  1.00  0.00    -0.299 N 
HETATM   12  C   UNL     1     -42.147  57.106 -54.054  1.00  0.00     0.257 C 
HETATM   13  O   UNL     1     -41.455  58.075 -54.329  1.00  0.00    -0.267 OA
HETATM   14  H   UNL     1     -43.909  56.117 -54.012  1.00  0.00     0.171 HD
BRANCH  12  15
HETATM   15  C   UNL     1     -41.483  55.799 -53.784  1.00  0.00     0.032 A 
HETATM   16  C   UNL     1     -41.066  55.029 -54.874  1.00  0.00     0.020 A 
HETATM   17  C   UNL     1     -40.524  53.759 -54.661  1.00  0.00     0.038 A 
HETATM   18  C   UNL     1     -40.364  53.270 -53.364  1.00  0.00     0.068 A 
HETATM   19  C   UNL     1     -40.761  54.045 -52.274  1.00  0.00     0.038 A 
HETATM   20  C   UNL     1     -41.318  55.312 -52.480  1.00  0.00     0.020 A 
BRANCH  18  21
HETATM   21  O   UNL     1     -39.889  51.992 -53.264  1.00  0.00    -0.351 OA
BRANCH  21  22
HETATM   22  C   UNL     1     -40.193  51.148 -54.377  1.00  0.00     0.175 C 
BRANCH  22  23
HETATM   23  C   UNL     1     -39.672  49.741 -54.085  1.00  0.00     0.022 C 
HETATM   24  C   UNL     1     -39.543  49.457 -52.595  1.00  0.00     0.007 C 
ENDBRANCH  22  23
ENDBRANCH  21  22
ENDBRANCH  18  21
ENDBRANCH  12  15
ENDBRANCH   8  11
ENDBRANCH   1   7
BRANCH   3  25
HETATM   25  C   UNL     1     -42.225  59.349 -59.755  1.00  0.00     0.183 A 
HETATM   26  O   UNL     1     -41.626  60.376 -59.071  1.00  0.00    -0.288 OA
HETATM   27  C   UNL     1     -41.357  61.312 -60.028  1.00  0.00     0.112 A 
HETATM   28  C   UNL     1     -41.810  60.814 -61.236  1.00  0.00     0.094 A 
HETATM   29  C   UNL     1     -40.749  62.555 -59.851  1.00  0.00    -0.025 A 
HETATM   30  N   UNL     1     -42.366  59.574 -61.053  1.00  0.00    -0.221 NA
HETATM   31  C   UNL     1     -41.661  61.589 -62.393  1.00  0.00     0.041 A 
HETATM   32  C   UNL     1     -41.055  62.854 -62.283  1.00  0.00    -0.059 A 
HETATM   33  C   UNL     1     -40.613  63.317 -61.029  1.00  0.00     0.016 A 
HETATM   34  C   UNL     1     -40.898  63.702 -63.511  1.00  0.00     0.048 C 
HETATM   35  C   UNL     1     -40.274  63.077 -58.534  1.00  0.00     0.051 C 
ENDBRANCH   3  25
BRANCH   4  36
HETATM   36  O   UNL     1     -41.616  56.538 -60.348  1.00  0.00    -0.360 OA
HETATM   37  H   UNL     1     -41.337  55.611 -60.284  1.00  0.00     0.217 HD
ENDBRANCH   4  36
TORSDOF 8
ENDMDL
MODEL 9
REMARK VINA RESULT:      -8.4      2.238      8.204
REMARK  8 active torsions:
REMARK  status: ('A' for Active; 'I' for Inactive)
REMARK    1  A    between atoms: C_2  and  C_3 
REMARK    2  A    between atoms: C_3  and  O_4 
REMARK    3  A    between atoms: O_4  and  C_5 
REMARK    4  A    between atoms: C_8  and  C_9 
REMARK       I    between atoms: C_9  and  N_10 
REMARK    5  A    between atoms: N_10  and  C_11 
REMARK    6  A    between atoms: N_12  and  C_13 
REMARK    7  A    between atoms: C_15  and  C_16 
REMARK    8  A    between atoms: C_27  and  O_28 
ROOT
HETATM    1  C   UNL     1     -44.039  58.985 -53.885  1.00  0.00     0.035 A 
HETATM    2  C   UNL     1     -44.693  58.533 -55.039  1.00  0.00     0.048 A 
HETATM    3  C   UNL     1     -44.051  58.477 -56.293  1.00  0.00     0.052 A 
HETATM    4  C   UNL     1     -42.709  58.872 -56.354  1.00  0.00     0.080 A 
HETATM    5  C   UNL     1     -42.045  59.327 -55.209  1.00  0.00     0.040 A 
HETATM    6  C   UNL     1     -42.713  59.396 -53.983  1.00  0.00     0.032 A 
ENDROOT
BRANCH   1   7
HETATM    7  N   UNL     1     -44.822  59.087 -52.715  1.00  0.00    -0.333 N 
HETATM    8  C   UNL     1     -44.586  58.697 -51.445  1.00  0.00     0.179 C 
HETATM    9  S   UNL     1     -45.223  59.617 -50.197  1.00  0.00    -0.040 SA
HETATM   10  H   UNL     1     -45.592  59.743 -52.786  1.00  0.00     0.168 HD
BRANCH   8  11
HETATM   11  N   UNL     1     -43.887  57.584 -51.109  1.00  0.00    -0.299 N 
HETATM   12  C   UNL     1     -42.505  57.492 -50.976  1.00  0.00     0.257 C 
HETATM   13  O   UNL     1     -41.722  58.408 -50.768  1.00  0.00    -0.267 OA
HETATM   14  H   UNL     1     -44.306  56.768 -51.536  1.00  0.00     0.171 HD
BRANCH  12  15
HETATM   15  C   UNL     1     -41.969  56.112 -51.154  1.00  0.00     0.032 A 
HETATM   16  C   UNL     1     -40.981  55.665 -50.271  1.00  0.00     0.020 A 
HETATM   17  C   UNL     1     -40.391  54.414 -50.464  1.00  0.00     0.038 A 
HETATM   18  C   UNL     1     -40.809  53.593 -51.512  1.00  0.00     0.068 A 
HETATM   19  C   UNL     1     -41.810  54.028 -52.382  1.00  0.00     0.038 A 
HETATM   20  C   UNL     1     -42.394  55.287 -52.203  1.00  0.00     0.020 A 
BRANCH  18  21
HETATM   21  O   UNL     1     -40.125  52.418 -51.658  1.00  0.00    -0.351 OA
BRANCH  21  22
HETATM   22  C   UNL     1     -39.862  52.039 -53.011  1.00  0.00     0.175 C 
BRANCH  22  23
HETATM   23  C   UNL     1     -39.705  50.520 -53.075  1.00  0.00     0.022 C 
HETATM   24  C   UNL     1     -39.782  49.979 -54.496  1.00  0.00     0.007 C 
ENDBRANCH  22  23
ENDBRANCH  21  22
ENDBRANCH  18  21
ENDBRANCH  12  15
ENDBRANCH   8  11
ENDBRANCH   1   7
BRANCH   3  25
HETATM   25  C   UNL     1     -44.843  58.025 -57.440  1.00  0.00     0.183 A 
HETATM   26  O   UNL     1     -44.423  56.903 -58.108  1.00  0.00    -0.288 OA
HETATM   27  C   UNL     1     -45.302  56.775 -59.146  1.00  0.00     0.112 A 
HETATM   28  C   UNL     1     -46.199  57.824 -59.061  1.00  0.00     0.094 A 
HETATM   29  C   UNL     1     -45.312  55.788 -60.131  1.00  0.00    -0.025 A 
HETATM   30  N   UNL     1     -45.897  58.616 -57.983  1.00  0.00    -0.221 NA
HETATM   31  C   UNL     1     -47.213  57.934 -60.022  1.00  0.00     0.041 A 
HETATM   32  C   UNL     1     -47.280  56.969 -61.044  1.00  0.00    -0.059 A 
HETATM   33  C   UNL     1     -46.340  55.922 -61.088  1.00  0.00     0.016 A 
HETATM   34  C   UNL     1     -48.353  57.079 -62.088  1.00  0.00     0.048 C 
HETATM   35  C   UNL     1     -44.326  54.668 -60.208  1.00  0.00     0.051 C 
ENDBRANCH   3  25
BRANCH   4  36
HETATM   36  O   UNL     1     -42.017  58.818 -57.533  1.00  0.00    -0.360 OA
HETATM   37  H   UNL     1     -42.163  59.636 -58.035  1.00  0.00     0.217 HD
ENDBRANCH   4  36
TORSDOF 8
ENDMDL
MODEL 10
REMARK VINA RESULT:      -8.4      2.601      7.123
REMARK  8 active torsions:
REMARK  status: ('A' for Active; 'I' for Inactive)
REMARK    1  A    between atoms: C_2  and  C_3 
REMARK    2  A    between atoms: C_3  and  O_4 
REMARK    3  A    between atoms: O_4  and  C_5 
REMARK    4  A    between atoms: C_8  and  C_9 
REMARK       I    between atoms: C_9  and  N_10 
REMARK    5  A    between atoms: N_10  and  C_11 
REMARK    6  A    between atoms: N_12  and  C_13 
REMARK    7  A    between atoms: C_15  and  C_16 
REMARK    8  A    between atoms: C_27  and  O_28 
ROOT
HETATM    1  C   UNL     1     -42.743  60.086 -51.618  1.00  0.00     0.035 A 
HETATM    2  C   UNL     1     -42.818  59.415 -52.846  1.00  0.00     0.048 A 
HETATM    3  C   UNL     1     -43.981  59.431 -53.642  1.00  0.00     0.052 A 
HETATM    4  C   UNL     1     -45.077  60.168 -53.176  1.00  0.00     0.080 A 
HETATM    5  C   UNL     1     -45.016  60.841 -51.950  1.00  0.00     0.040 A 
HETATM    6  C   UNL     1     -43.857  60.788 -51.169  1.00  0.00     0.032 A 
ENDROOT
BRANCH   1   7
HETATM    7  N   UNL     1     -41.558  59.907 -50.872  1.00  0.00    -0.333 N 
HETATM    8  C   UNL     1     -40.541  59.032 -51.007  1.00  0.00     0.179 C 
HETATM    9  S   UNL     1     -38.997  59.532 -50.588  1.00  0.00    -0.040 SA
HETATM   10  H   UNL     1     -41.324  60.689 -50.270  1.00  0.00     0.168 HD
BRANCH   8  11
HETATM   11  N   UNL     1     -40.689  57.753 -51.436  1.00  0.00    -0.299 N 
HETATM   12  C   UNL     1     -41.540  56.798 -50.889  1.00  0.00     0.257 C 
HETATM   13  O   UNL     1     -42.538  57.001 -50.213  1.00  0.00    -0.267 OA
HETATM   14  H   UNL     1     -39.795  57.378 -51.725  1.00  0.00     0.171 HD
BRANCH  12  15
HETATM   15  C   UNL     1     -41.123  55.392 -51.155  1.00  0.00     0.032 A 
HETATM   16  C   UNL     1     -40.718  54.604 -50.073  1.00  0.00     0.020 A 
HETATM   17  C   UNL     1     -40.234  53.313 -50.296  1.00  0.00     0.038 A 
HETATM   18  C   UNL     1     -40.186  52.792 -51.590  1.00  0.00     0.068 A 
HETATM   19  C   UNL     1     -40.610  53.569 -52.670  1.00  0.00     0.038 A 
HETATM   20  C   UNL     1     -41.082  54.869 -52.454  1.00  0.00     0.020 A 
BRANCH  18  21
HETATM   21  O   UNL     1     -39.634  51.548 -51.712  1.00  0.00    -0.351 OA
BRANCH  21  22
HETATM   22  C   UNL     1     -39.126  51.240 -53.012  1.00  0.00     0.175 C 
BRANCH  22  23
HETATM   23  C   UNL     1     -39.659  49.872 -53.438  1.00  0.00     0.022 C 
HETATM   24  C   UNL     1     -40.488  49.932 -54.713  1.00  0.00     0.007 C 
ENDBRANCH  22  23
ENDBRANCH  21  22
ENDBRANCH  18  21
ENDBRANCH  12  15
ENDBRANCH   8  11
ENDBRANCH   1   7
BRANCH   3  25
HETATM   25  C   UNL     1     -43.960  58.662 -54.889  1.00  0.00     0.183 A 
HETATM   26  O   UNL     1     -43.425  57.400 -54.857  1.00  0.00    -0.288 OA
HETATM   27  C   UNL     1     -43.481  56.974 -56.154  1.00  0.00     0.112 A 
HETATM   28  C   UNL     1     -44.037  57.994 -56.903  1.00  0.00     0.094 A 
HETATM   29  C   UNL     1     -43.056  55.746 -56.662  1.00  0.00    -0.025 A 
HETATM   30  N   UNL     1     -44.330  59.064 -56.097  1.00  0.00    -0.221 NA
HETATM   31  C   UNL     1     -44.203  57.816 -58.283  1.00  0.00     0.041 A 
HETATM   32  C   UNL     1     -43.794  56.599 -58.858  1.00  0.00    -0.059 A 
HETATM   33  C   UNL     1     -43.231  55.591 -58.052  1.00  0.00     0.016 A 
HETATM   34  C   UNL     1     -43.954  56.396 -60.337  1.00  0.00     0.048 C 
HETATM   35  C   UNL     1     -42.450  54.659 -55.834  1.00  0.00     0.051 C 
ENDBRANCH   3  25
BRANCH   4  36
HETATM   36  O   UNL     1     -46.228  60.250 -53.909  1.00  0.00    -0.360 OA
HETATM   37  H   UNL     1     -46.312  59.465 -54.474  1.00  0.00     0.217 HD
ENDBRANCH   4  36
TORSDOF 8
ENDMDL
