MODEL 1
REMARK VINA RESULT:      -9.3      0.000      0.000
REMARK  7 active torsions:
REMARK  status: ('A' for Active; 'I' for Inactive)
REMARK    1  A    between atoms: N_5  and  C_6 
REMARK    2  A    between atoms: C_14  and  N_15 
REMARK       I    between atoms: N_15  and  C_16 
REMARK    3  A    between atoms: C_16  and  C_17 
REMARK    4  A    between atoms: C_17  and  C_18 
REMARK    5  A    between atoms: C_18  and  C_19 
REMARK    6  A    between atoms: C_19  and  C_20 
REMARK       I    between atoms: C_20  and  N_21 
REMARK    7  A    between atoms: N_24  and  C_25 
ROOT
HETATM    1  C   UNL     1     -43.396  58.870 -51.267  1.00  0.00     0.112 C 
ENDROOT
BRANCH   1   2
HETATM    2  C   UNL     1     -44.167  57.578 -51.249  1.00  0.00     0.223 C 
HETATM    3  N   UNL     1     -43.727  56.415 -51.774  1.00  0.00    -0.321 N 
HETATM    4  H   UNL     1     -44.455  55.711 -51.615  1.00  0.00     0.169 HD
HETATM    5  O   UNL     1     -45.290  57.556 -50.728  1.00  0.00    -0.273 OA
BRANCH   3   6
HETATM    6  C   UNL     1     -42.689  55.882 -52.489  1.00  0.00     0.129 C 
HETATM    7  C   UNL     1     -41.622  56.257 -53.219  1.00  0.00     0.057 C 
HETATM    8  C   UNL     1     -41.071  57.615 -53.506  1.00  0.00     0.072 C 
HETATM    9  N   UNL     1     -40.920  55.148 -53.745  1.00  0.00    -0.289 N 
HETATM   10  C   UNL     1     -40.286  55.165 -55.062  1.00  0.00     0.178 C 
HETATM   11  N   UNL     1     -41.660  53.974 -53.411  1.00  0.00    -0.217 N 
HETATM   12  C   UNL     1     -42.665  54.375 -52.533  1.00  0.00     0.295 C 
HETATM   13  O   UNL     1     -43.442  53.695 -51.872  1.00  0.00    -0.264 OA
BRANCH  11  14
HETATM   14  C   UNL     1     -40.955  52.753 -53.239  1.00  0.00     0.060 A 
HETATM   15  C   UNL     1     -40.202  52.547 -52.076  1.00  0.00     0.031 A 
HETATM   16  C   UNL     1     -39.459  51.376 -51.905  1.00  0.00     0.002 A 
HETATM   17  C   UNL     1     -39.458  50.398 -52.898  1.00  0.00     0.000 A 
HETATM   18  C   UNL     1     -40.189  50.598 -54.066  1.00  0.00     0.002 A 
HETATM   19  C   UNL     1     -40.926  51.774 -54.241  1.00  0.00     0.031 A 
ENDBRANCH  11  14
ENDBRANCH   3   6
ENDBRANCH   1   2
BRANCH   1  20
HETATM   20  C   UNL     1     -44.025  59.987 -52.156  1.00  0.00    -0.031 C 
HETATM   21  C   UNL     1     -44.510  61.098 -51.206  1.00  0.00     0.016 C 
HETATM   22  C   UNL     1     -42.937  60.601 -53.068  1.00  0.00     0.016 C 
BRANCH  20  23
HETATM   23  C   UNL     1     -45.179  59.425 -53.026  1.00  0.00     0.112 C 
BRANCH  23  24
HETATM   24  C   UNL     1     -45.244  59.920 -54.468  1.00  0.00     0.220 C 
HETATM   25  N   UNL     1     -44.799  59.092 -55.487  1.00  0.00    -0.349 N 
HETATM   26  C   UNL     1     -44.825  59.623 -56.858  1.00  0.00     0.145 C 
HETATM   27  C   UNL     1     -44.703  57.624 -55.419  1.00  0.00     0.145 C 
HETATM   28  C   UNL     1     -43.665  59.079 -57.712  1.00  0.00     0.143 C 
HETATM   29  N   UNL     1     -43.634  57.597 -57.688  1.00  0.00    -0.375 N 
HETATM   30  C   UNL     1     -43.588  57.053 -56.317  1.00  0.00     0.143 C 
HETATM   31  O   UNL     1     -45.631  61.069 -54.692  1.00  0.00    -0.273 OA
BRANCH  29  32
HETATM   32  C   UNL     1     -44.328  56.933 -58.706  1.00  0.00     0.069 A 
HETATM   33  C   UNL     1     -43.770  55.986 -59.586  1.00  0.00     0.142 A 
HETATM   34  F   UNL     1     -42.484  55.615 -59.477  1.00  0.00    -0.204 F 
HETATM   35  C   UNL     1     -44.519  55.368 -60.592  1.00  0.00     0.044 A 
HETATM   36  C   UNL     1     -45.859  55.694 -60.767  1.00  0.00     0.003 A 
HETATM   37  C   UNL     1     -46.441  56.643 -59.936  1.00  0.00     0.002 A 
HETATM   38  C   UNL     1     -45.683  57.253 -58.928  1.00  0.00     0.032 A 
ENDBRANCH  29  32
ENDBRANCH  23  24
ENDBRANCH  20  23
ENDBRANCH   1  20
TORSDOF 7
ENDMDL
MODEL 2
REMARK VINA RESULT:      -8.9      2.059      7.256
REMARK  7 active torsions:
REMARK  status: ('A' for Active; 'I' for Inactive)
REMARK    1  A    between atoms: N_5  and  C_6 
REMARK    2  A    between atoms: C_14  and  N_15 
REMARK       I    between atoms: N_15  and  C_16 
REMARK    3  A    between atoms: C_16  and  C_17 
REMARK    4  A    between atoms: C_17  and  C_18 
REMARK    5  A    between atoms: C_18  and  C_19 
REMARK    6  A    between atoms: C_19  and  C_20 
REMARK       I    between atoms: C_20  and  N_21 
REMARK    7  A    between atoms: N_24  and  C_25 
ROOT
HETATM    1  C   UNL     1     -42.259  60.172 -53.435  1.00  0.00     0.112 C 
ENDROOT
BRANCH   1   2
HETATM    2  C   UNL     1     -43.749  60.217 -53.639  1.00  0.00     0.223 C 
HETATM    3  N   UNL     1     -44.371  59.953 -54.808  1.00  0.00    -0.321 N 
HETATM    4  H   UNL     1     -45.378  60.058 -54.651  1.00  0.00     0.169 HD
HETATM    5  O   UNL     1     -44.478  60.521 -52.686  1.00  0.00    -0.273 OA
BRANCH   3   6
HETATM    6  C   UNL     1     -44.116  59.664 -56.120  1.00  0.00     0.129 C 
HETATM    7  C   UNL     1     -43.297  60.018 -57.129  1.00  0.00     0.057 C 
HETATM    8  C   UNL     1     -42.149  60.972 -57.157  1.00  0.00     0.072 C 
HETATM    9  N   UNL     1     -43.586  59.316 -58.322  1.00  0.00    -0.289 N 
HETATM   10  C   UNL     1     -43.471  59.926 -59.646  1.00  0.00     0.178 C 
HETATM   11  N   UNL     1     -44.752  58.528 -58.085  1.00  0.00    -0.217 N 
HETATM   12  C   UNL     1     -45.017  58.612 -56.719  1.00  0.00     0.295 C 
HETATM   13  O   UNL     1     -45.821  57.986 -56.039  1.00  0.00    -0.264 OA
BRANCH  11  14
HETATM   14  C   UNL     1     -44.911  57.315 -58.806  1.00  0.00     0.060 A 
HETATM   15  C   UNL     1     -43.875  56.372 -58.811  1.00  0.00     0.031 A 
HETATM   16  C   UNL     1     -43.986  55.194 -59.554  1.00  0.00     0.002 A 
HETATM   17  C   UNL     1     -45.134  54.947 -60.305  1.00  0.00     0.000 A 
HETATM   18  C   UNL     1     -46.164  55.885 -60.322  1.00  0.00     0.002 A 
HETATM   19  C   UNL     1     -46.049  57.068 -59.585  1.00  0.00     0.031 A 
ENDBRANCH  11  14
ENDBRANCH   3   6
ENDBRANCH   1   2
BRANCH   1  20
HETATM   20  C   UNL     1     -41.679  58.741 -53.215  1.00  0.00    -0.031 C 
HETATM   21  C   UNL     1     -40.166  58.901 -52.976  1.00  0.00     0.016 C 
HETATM   22  C   UNL     1     -42.287  58.123 -51.934  1.00  0.00     0.016 C 
BRANCH  20  23
HETATM   23  C   UNL     1     -41.978  57.824 -54.430  1.00  0.00     0.112 C 
BRANCH  23  24
HETATM   24  C   UNL     1     -42.678  56.503 -54.126  1.00  0.00     0.220 C 
HETATM   25  N   UNL     1     -41.951  55.323 -54.188  1.00  0.00    -0.349 N 
HETATM   26  C   UNL     1     -42.672  54.065 -53.944  1.00  0.00     0.145 C 
HETATM   27  C   UNL     1     -40.490  55.209 -54.051  1.00  0.00     0.145 C 
HETATM   28  C   UNL     1     -42.102  52.901 -54.776  1.00  0.00     0.143 C 
HETATM   29  N   UNL     1     -40.641  52.758 -54.565  1.00  0.00    -0.375 N 
HETATM   30  C   UNL     1     -39.906  54.010 -54.826  1.00  0.00     0.143 C 
HETATM   31  O   UNL     1     -43.889  56.503 -53.895  1.00  0.00    -0.273 OA
BRANCH  29  32
HETATM   32  C   UNL     1     -40.231  51.875 -53.560  1.00  0.00     0.069 A 
HETATM   33  C   UNL     1     -39.956  50.507 -53.744  1.00  0.00     0.142 A 
HETATM   34  F   UNL     1     -40.039  49.942 -54.960  1.00  0.00    -0.204 F 
HETATM   35  C   UNL     1     -39.561  49.676 -52.691  1.00  0.00     0.044 A 
HETATM   36  C   UNL     1     -39.446  50.185 -51.403  1.00  0.00     0.003 A 
HETATM   37  C   UNL     1     -39.734  51.524 -51.175  1.00  0.00     0.002 A 
HETATM   38  C   UNL     1     -40.124  52.350 -52.237  1.00  0.00     0.032 A 
ENDBRANCH  29  32
ENDBRANCH  23  24
ENDBRANCH  20  23
ENDBRANCH   1  20
TORSDOF 7
ENDMDL
MODEL 3
REMARK VINA RESULT:      -8.9      1.806      2.470
REMARK  7 active torsions:
REMARK  status: ('A' for Active; 'I' for Inactive)
REMARK    1  A    between atoms: N_5  and  C_6 
REMARK    2  A    between atoms: C_14  and  N_15 
REMARK       I    between atoms: N_15  and  C_16 
REMARK    3  A    between atoms: C_16  and  C_17 
REMARK    4  A    between atoms: C_17  and  C_18 
REMARK    5  A    between atoms: C_18  and  C_19 
REMARK    6  A    between atoms: C_19  and  C_20 
REMARK       I    between atoms: C_20  and  N_21 
REMARK    7  A    between atoms: N_24  and  C_25 
ROOT
HETATM    1  C   UNL     1     -43.063  58.143 -51.752  1.00  0.00     0.112 C 
ENDROOT
BRANCH   1   2
HETATM    2  C   UNL     1     -43.697  56.979 -52.466  1.00  0.00     0.223 C 
HETATM    3  N   UNL     1     -43.239  55.710 -52.419  1.00  0.00    -0.321 N 
HETATM    4  H   UNL     1     -43.865  55.137 -52.994  1.00  0.00     0.169 HD
HETATM    5  O   UNL     1     -44.706  57.174 -53.155  1.00  0.00    -0.273 OA
BRANCH   3   6
HETATM    6  C   UNL     1     -42.208  54.956 -51.931  1.00  0.00     0.129 C 
HETATM    7  C   UNL     1     -41.473  54.788 -50.815  1.00  0.00     0.057 C 
HETATM    8  C   UNL     1     -41.583  55.436 -49.474  1.00  0.00     0.072 C 
HETATM    9  N   UNL     1     -40.475  53.799 -50.978  1.00  0.00    -0.289 N 
HETATM   10  C   UNL     1     -39.154  53.899 -50.357  1.00  0.00     0.178 C 
HETATM   11  N   UNL     1     -40.506  53.378 -52.341  1.00  0.00    -0.217 N 
HETATM   12  C   UNL     1     -41.636  53.961 -52.911  1.00  0.00     0.295 C 
HETATM   13  O   UNL     1     -42.148  53.766 -54.007  1.00  0.00    -0.264 OA
BRANCH  11  14
HETATM   14  C   UNL     1     -40.111  52.049 -52.650  1.00  0.00     0.060 A 
HETATM   15  C   UNL     1     -40.045  51.640 -53.988  1.00  0.00     0.031 A 
HETATM   16  C   UNL     1     -39.707  50.324 -54.316  1.00  0.00     0.002 A 
HETATM   17  C   UNL     1     -39.435  49.402 -53.309  1.00  0.00     0.000 A 
HETATM   18  C   UNL     1     -39.513  49.791 -51.974  1.00  0.00     0.002 A 
HETATM   19  C   UNL     1     -39.859  51.106 -51.645  1.00  0.00     0.031 A 
ENDBRANCH  11  14
ENDBRANCH   3   6
ENDBRANCH   1   2
BRANCH   1  20
HETATM   20  C   UNL     1     -41.998  58.914 -52.591  1.00  0.00    -0.031 C 
HETATM   21  C   UNL     1     -42.621  60.272 -52.967  1.00  0.00     0.016 C 
HETATM   22  C   UNL     1     -40.756  59.202 -51.717  1.00  0.00     0.016 C 
BRANCH  20  23
HETATM   23  C   UNL     1     -41.579  58.104 -53.844  1.00  0.00     0.112 C 
BRANCH  23  24
HETATM   24  C   UNL     1     -41.838  58.763 -55.196  1.00  0.00     0.220 C 
HETATM   25  N   UNL     1     -42.322  57.992 -56.242  1.00  0.00    -0.349 N 
HETATM   26  C   UNL     1     -42.507  58.650 -57.544  1.00  0.00     0.145 C 
HETATM   27  C   UNL     1     -43.062  56.727 -56.103  1.00  0.00     0.145 C 
HETATM   28  C   UNL     1     -42.238  57.691 -58.719  1.00  0.00     0.143 C 
HETATM   29  N   UNL     1     -43.050  56.456 -58.597  1.00  0.00    -0.375 N 
HETATM   30  C   UNL     1     -42.858  55.778 -57.301  1.00  0.00     0.143 C 
HETATM   31  O   UNL     1     -41.551  59.953 -55.349  1.00  0.00    -0.273 OA
BRANCH  29  32
HETATM   32  C   UNL     1     -44.294  56.451 -59.238  1.00  0.00     0.069 A 
HETATM   33  C   UNL     1     -44.860  55.346 -59.902  1.00  0.00     0.142 A 
HETATM   34  F   UNL     1     -44.231  54.160 -59.933  1.00  0.00    -0.204 F 
HETATM   35  C   UNL     1     -46.106  55.412 -60.534  1.00  0.00     0.044 A 
HETATM   36  C   UNL     1     -46.824  56.602 -60.543  1.00  0.00     0.003 A 
HETATM   37  C   UNL     1     -46.288  57.722 -59.922  1.00  0.00     0.002 A 
HETATM   38  C   UNL     1     -45.042  57.644 -59.286  1.00  0.00     0.032 A 
ENDBRANCH  29  32
ENDBRANCH  23  24
ENDBRANCH  20  23
ENDBRANCH   1  20
TORSDOF 7
ENDMDL
MODEL 4
REMARK VINA RESULT:      -8.8      2.189      7.061
REMARK  7 active torsions:
REMARK  status: ('A' for Active; 'I' for Inactive)
REMARK    1  A    between atoms: N_5  and  C_6 
REMARK    2  A    between atoms: C_14  and  N_15 
REMARK       I    between atoms: N_15  and  C_16 
REMARK    3  A    between atoms: C_16  and  C_17 
REMARK    4  A    between atoms: C_17  and  C_18 
REMARK    5  A    between atoms: C_18  and  C_19 
REMARK    6  A    between atoms: C_19  and  C_20 
REMARK       I    between atoms: C_20  and  N_21 
REMARK    7  A    between atoms: N_24  and  C_25 
ROOT
HETATM    1  C   UNL     1     -42.839  60.695 -53.574  1.00  0.00     0.112 C 
ENDROOT
BRANCH   1   2
HETATM    2  C   UNL     1     -41.766  59.878 -54.242  1.00  0.00     0.223 C 
HETATM    3  N   UNL     1     -41.793  59.487 -55.534  1.00  0.00    -0.321 N 
HETATM    4  H   UNL     1     -40.938  58.951 -55.711  1.00  0.00     0.169 HD
HETATM    5  O   UNL     1     -40.783  59.521 -53.581  1.00  0.00    -0.273 OA
BRANCH   3   6
HETATM    6  C   UNL     1     -42.588  59.507 -56.647  1.00  0.00     0.129 C 
HETATM    7  C   UNL     1     -42.959  60.322 -57.653  1.00  0.00     0.057 C 
HETATM    8  C   UNL     1     -42.511  61.705 -57.996  1.00  0.00     0.072 C 
HETATM    9  N   UNL     1     -43.894  59.709 -58.519  1.00  0.00    -0.289 N 
HETATM   10  C   UNL     1     -44.984  60.447 -59.156  1.00  0.00     0.178 C 
HETATM   11  N   UNL     1     -44.227  58.439 -57.961  1.00  0.00    -0.217 N 
HETATM   12  C   UNL     1     -43.350  58.229 -56.899  1.00  0.00     0.295 C 
HETATM   13  O   UNL     1     -43.163  57.222 -56.227  1.00  0.00    -0.264 OA
BRANCH  11  14
HETATM   14  C   UNL     1     -44.606  57.390 -58.840  1.00  0.00     0.060 A 
HETATM   15  C   UNL     1     -45.955  57.221 -59.177  1.00  0.00     0.031 A 
HETATM   16  C   UNL     1     -46.359  56.167 -59.999  1.00  0.00     0.002 A 
HETATM   17  C   UNL     1     -45.418  55.266 -60.492  1.00  0.00     0.000 A 
HETATM   18  C   UNL     1     -44.075  55.412 -60.152  1.00  0.00     0.002 A 
HETATM   19  C   UNL     1     -43.672  56.463 -59.321  1.00  0.00     0.031 A 
ENDBRANCH  11  14
ENDBRANCH   3   6
ENDBRANCH   1   2
BRANCH   1  20
HETATM   20  C   UNL     1     -43.836  59.866 -52.706  1.00  0.00    -0.031 C 
HETATM   21  C   UNL     1     -44.680  60.876 -51.904  1.00  0.00     0.016 C 
HETATM   22  C   UNL     1     -44.803  59.085 -53.626  1.00  0.00     0.016 C 
BRANCH  20  23
HETATM   23  C   UNL     1     -43.084  58.877 -51.779  1.00  0.00     0.112 C 
BRANCH  23  24
HETATM   24  C   UNL     1     -43.607  57.445 -51.748  1.00  0.00     0.220 C 
HETATM   25  N   UNL     1     -42.881  56.446 -52.378  1.00  0.00    -0.349 N 
HETATM   26  C   UNL     1     -43.445  55.088 -52.375  1.00  0.00     0.145 C 
HETATM   27  C   UNL     1     -41.440  56.492 -52.676  1.00  0.00     0.145 C 
HETATM   28  C   UNL     1     -43.095  54.313 -53.659  1.00  0.00     0.143 C 
HETATM   29  N   UNL     1     -41.631  54.310 -53.899  1.00  0.00    -0.375 N 
HETATM   30  C   UNL     1     -41.058  55.669 -53.923  1.00  0.00     0.143 C 
HETATM   31  O   UNL     1     -44.697  57.214 -51.218  1.00  0.00    -0.273 OA
BRANCH  29  32
HETATM   32  C   UNL     1     -40.908  53.230 -53.380  1.00  0.00     0.069 A 
HETATM   33  C   UNL     1     -40.432  53.131 -52.059  1.00  0.00     0.142 A 
HETATM   34  F   UNL     1     -40.686  54.094 -51.158  1.00  0.00    -0.204 F 
HETATM   35  C   UNL     1     -39.703  52.026 -51.608  1.00  0.00     0.044 A 
HETATM   36  C   UNL     1     -39.403  50.984 -52.477  1.00  0.00     0.003 A 
HETATM   37  C   UNL     1     -39.831  51.056 -53.796  1.00  0.00     0.002 A 
HETATM   38  C   UNL     1     -40.566  52.164 -54.236  1.00  0.00     0.032 A 
ENDBRANCH  29  32
ENDBRANCH  23  24
ENDBRANCH  20  23
ENDBRANCH   1  20
TORSDOF 7
ENDMDL
MODEL 5
REMARK VINA RESULT:      -8.8      2.046      2.864
REMARK  7 active torsions:
REMARK  status: ('A' for Active; 'I' for Inactive)
REMARK    1  A    between atoms: N_5  and  C_6 
REMARK    2  A    between atoms: C_14  and  N_15 
REMARK       I    between atoms: N_15  and  C_16 
REMARK    3  A    between atoms: C_16  and  C_17 
REMARK    4  A    between atoms: C_17  and  C_18 
REMARK    5  A    between atoms: C_18  and  C_19 
REMARK    6  A    between atoms: C_19  and  C_20 
REMARK       I    between atoms: C_20  and  N_21 
REMARK    7  A    between atoms: N_24  and  C_25 
ROOT
HETATM    1  C   UNL     1     -45.723  59.914 -52.258  1.00  0.00     0.112 C 
ENDROOT
BRANCH   1   2
HETATM    2  C   UNL     1     -45.502  58.960 -51.116  1.00  0.00     0.223 C 
HETATM    3  N   UNL     1     -44.358  58.277 -50.898  1.00  0.00    -0.321 N 
HETATM    4  H   UNL     1     -44.493  57.711 -50.055  1.00  0.00     0.169 HD
HETATM    5  O   UNL     1     -46.420  58.765 -50.309  1.00  0.00    -0.273 OA
BRANCH   3   6
HETATM    6  C   UNL     1     -43.127  58.038 -51.446  1.00  0.00     0.129 C 
HETATM    7  C   UNL     1     -41.867  58.513 -51.434  1.00  0.00     0.057 C 
HETATM    8  C   UNL     1     -41.255  59.619 -50.639  1.00  0.00     0.072 C 
HETATM    9  N   UNL     1     -41.016  57.788 -52.300  1.00  0.00    -0.289 N 
HETATM   10  C   UNL     1     -39.940  58.420 -53.063  1.00  0.00     0.178 C 
HETATM   11  N   UNL     1     -41.822  56.842 -53.002  1.00  0.00    -0.217 N 
HETATM   12  C   UNL     1     -43.082  56.876 -52.407  1.00  0.00     0.295 C 
HETATM   13  O   UNL     1     -44.045  56.136 -52.575  1.00  0.00    -0.264 OA
BRANCH  11  14
HETATM   14  C   UNL     1     -41.225  55.626 -53.428  1.00  0.00     0.060 A 
HETATM   15  C   UNL     1     -40.920  55.442 -54.783  1.00  0.00     0.031 A 
HETATM   16  C   UNL     1     -40.379  54.236 -55.235  1.00  0.00     0.002 A 
HETATM   17  C   UNL     1     -40.140  53.197 -54.337  1.00  0.00     0.000 A 
HETATM   18  C   UNL     1     -40.454  53.361 -52.990  1.00  0.00     0.002 A 
HETATM   19  C   UNL     1     -41.004  54.566 -52.539  1.00  0.00     0.031 A 
ENDBRANCH  11  14
ENDBRANCH   3   6
ENDBRANCH   1   2
BRANCH   1  20
HETATM   20  C   UNL     1     -45.399  61.404 -51.928  1.00  0.00    -0.031 C 
HETATM   21  C   UNL     1     -46.740  62.097 -51.616  1.00  0.00     0.016 C 
HETATM   22  C   UNL     1     -44.533  61.478 -50.649  1.00  0.00     0.016 C 
BRANCH  20  23
HETATM   23  C   UNL     1     -44.655  62.089 -53.103  1.00  0.00     0.112 C 
BRANCH  23  24
HETATM   24  C   UNL     1     -45.146  61.750 -54.507  1.00  0.00     0.220 C 
HETATM   25  N   UNL     1     -44.314  61.042 -55.361  1.00  0.00    -0.349 N 
HETATM   26  C   UNL     1     -44.799  60.781 -56.724  1.00  0.00     0.145 C 
HETATM   27  C   UNL     1     -43.204  60.169 -54.947  1.00  0.00     0.145 C 
HETATM   28  C   UNL     1     -43.655  60.773 -57.755  1.00  0.00     0.143 C 
HETATM   29  N   UNL     1     -42.582  59.831 -57.354  1.00  0.00    -0.375 N 
HETATM   30  C   UNL     1     -42.074  60.096 -55.994  1.00  0.00     0.143 C 
HETATM   31  O   UNL     1     -46.247  62.166 -54.876  1.00  0.00    -0.273 OA
BRANCH  29  32
HETATM   32  C   UNL     1     -42.668  58.526 -57.851  1.00  0.00     0.069 A 
HETATM   33  C   UNL     1     -42.329  58.132 -59.160  1.00  0.00     0.142 A 
HETATM   34  F   UNL     1     -41.845  59.018 -60.045  1.00  0.00    -0.204 F 
HETATM   35  C   UNL     1     -42.451  56.810 -59.598  1.00  0.00     0.044 A 
HETATM   36  C   UNL     1     -42.939  55.831 -58.740  1.00  0.00     0.003 A 
HETATM   37  C   UNL     1     -43.310  56.184 -57.449  1.00  0.00     0.002 A 
HETATM   38  C   UNL     1     -43.179  57.511 -57.018  1.00  0.00     0.032 A 
ENDBRANCH  29  32
ENDBRANCH  23  24
ENDBRANCH  20  23
ENDBRANCH   1  20
TORSDOF 7
ENDMDL
MODEL 6
REMARK VINA RESULT:      -8.8      1.890      6.825
REMARK  7 active torsions:
REMARK  status: ('A' for Active; 'I' for Inactive)
REMARK    1  A    between atoms: N_5  and  C_6 
REMARK    2  A    between atoms: C_14  and  N_15 
REMARK       I    between atoms: N_15  and  C_16 
REMARK    3  A    between atoms: C_16  and  C_17 
REMARK    4  A    between atoms: C_17  and  C_18 
REMARK    5  A    between atoms: C_18  and  C_19 
REMARK    6  A    between atoms: C_19  and  C_20 
REMARK       I    between atoms: C_20  and  N_21 
REMARK    7  A    between atoms: N_24  and  C_25 
ROOT
HETATM    1  C   UNL     1     -44.050  59.148 -52.818  1.00  0.00     0.112 C 
ENDROOT
BRANCH   1   2
HETATM    2  C   UNL     1     -45.188  59.708 -53.628  1.00  0.00     0.223 C 
HETATM    3  N   UNL     1     -45.278  59.640 -54.973  1.00  0.00    -0.321 N 
HETATM    4  H   UNL     1     -46.153  60.098 -55.246  1.00  0.00     0.169 HD
HETATM    5  O   UNL     1     -46.116  60.281 -53.043  1.00  0.00    -0.273 OA
BRANCH   3   6
HETATM    6  C   UNL     1     -44.581  59.235 -56.078  1.00  0.00     0.129 C 
HETATM    7  C   UNL     1     -43.360  59.329 -56.637  1.00  0.00     0.057 C 
HETATM    8  C   UNL     1     -42.109  59.970 -56.132  1.00  0.00     0.072 C 
HETATM    9  N   UNL     1     -43.291  58.664 -57.883  1.00  0.00    -0.289 N 
HETATM   10  C   UNL     1     -42.494  59.164 -59.003  1.00  0.00     0.178 C 
HETATM   11  N   UNL     1     -44.603  58.198 -58.195  1.00  0.00    -0.217 N 
HETATM   12  C   UNL     1     -45.380  58.410 -57.057  1.00  0.00     0.295 C 
HETATM   13  O   UNL     1     -46.519  58.033 -56.807  1.00  0.00    -0.264 OA
BRANCH  11  14
HETATM   14  C   UNL     1     -44.738  57.029 -58.989  1.00  0.00     0.060 A 
HETATM   15  C   UNL     1     -45.780  56.941 -59.921  1.00  0.00     0.031 A 
HETATM   16  C   UNL     1     -45.964  55.782 -60.679  1.00  0.00     0.002 A 
HETATM   17  C   UNL     1     -45.109  54.695 -60.510  1.00  0.00     0.000 A 
HETATM   18  C   UNL     1     -44.079  54.763 -59.575  1.00  0.00     0.002 A 
HETATM   19  C   UNL     1     -43.900  55.920 -58.810  1.00  0.00     0.031 A 
ENDBRANCH  11  14
ENDBRANCH   3   6
ENDBRANCH   1   2
BRANCH   1  20
HETATM   20  C   UNL     1     -43.049  60.219 -52.283  1.00  0.00    -0.031 C 
HETATM   21  C   UNL     1     -43.204  61.465 -53.177  1.00  0.00     0.016 C 
HETATM   22  C   UNL     1     -43.444  60.630 -50.846  1.00  0.00     0.016 C 
BRANCH  20  23
HETATM   23  C   UNL     1     -41.595  59.679 -52.292  1.00  0.00     0.112 C 
BRANCH  23  24
HETATM   24  C   UNL     1     -41.303  58.501 -51.368  1.00  0.00     0.220 C 
HETATM   25  N   UNL     1     -41.526  57.211 -51.827  1.00  0.00    -0.349 N 
HETATM   26  C   UNL     1     -41.287  56.104 -50.890  1.00  0.00     0.145 C 
HETATM   27  C   UNL     1     -41.563  56.799 -53.240  1.00  0.00     0.145 C 
HETATM   28  C   UNL     1     -42.254  54.929 -51.124  1.00  0.00     0.143 C 
HETATM   29  N   UNL     1     -42.219  54.482 -52.538  1.00  0.00    -0.375 N 
HETATM   30  C   UNL     1     -42.478  55.582 -53.486  1.00  0.00     0.143 C 
HETATM   31  O   UNL     1     -40.937  58.721 -50.211  1.00  0.00    -0.273 OA
BRANCH  29  32
HETATM   32  C   UNL     1     -41.328  53.450 -52.853  1.00  0.00     0.069 A 
HETATM   33  C   UNL     1     -41.285  52.762 -54.081  1.00  0.00     0.142 A 
HETATM   34  F   UNL     1     -42.110  53.092 -55.088  1.00  0.00    -0.204 F 
HETATM   35  C   UNL     1     -40.375  51.729 -54.327  1.00  0.00     0.044 A 
HETATM   36  C   UNL     1     -39.483  51.332 -53.338  1.00  0.00     0.003 A 
HETATM   37  C   UNL     1     -39.512  51.967 -52.104  1.00  0.00     0.002 A 
HETATM   38  C   UNL     1     -40.424  53.005 -51.869  1.00  0.00     0.032 A 
ENDBRANCH  29  32
ENDBRANCH  23  24
ENDBRANCH  20  23
ENDBRANCH   1  20
TORSDOF 7
ENDMDL
MODEL 7
REMARK VINA RESULT:      -8.7      1.936      7.128
REMARK  7 active torsions:
REMARK  status: ('A' for Active; 'I' for Inactive)
REMARK    1  A    between atoms: N_5  and  C_6 
REMARK    2  A    between atoms: C_14  and  N_15 
REMARK       I    between atoms: N_15  and  C_16 
REMARK    3  A    between atoms: C_16  and  C_17 
REMARK    4  A    between atoms: C_17  and  C_18 
REMARK    5  A    between atoms: C_18  and  C_19 
REMARK    6  A    between atoms: C_19  and  C_20 
REMARK       I    between atoms: C_20  and  N_21 
REMARK    7  A    between atoms: N_24  and  C_25 
ROOT
HETATM    1  C   UNL     1     -44.325  59.360 -53.688  1.00  0.00     0.112 C 
ENDROOT
BRANCH   1   2
HETATM    2  C   UNL     1     -45.103  60.417 -54.425  1.00  0.00     0.223 C 
HETATM    3  N   UNL     1     -45.126  60.557 -55.767  1.00  0.00    -0.321 N 
HETATM    4  H   UNL     1     -45.736  61.351 -55.983  1.00  0.00     0.169 HD
HETATM    5  O   UNL     1     -45.773  61.231 -53.776  1.00  0.00    -0.273 OA
BRANCH   3   6
HETATM    6  C   UNL     1     -44.571  60.050 -56.911  1.00  0.00     0.129 C 
HETATM    7  C   UNL     1     -43.520  60.232 -57.732  1.00  0.00     0.057 C 
HETATM    8  C   UNL     1     -42.364  61.172 -57.634  1.00  0.00     0.072 C 
HETATM    9  N   UNL     1     -43.538  59.337 -58.827  1.00  0.00    -0.289 N 
HETATM   10  C   UNL     1     -43.082  59.715 -60.164  1.00  0.00     0.178 C 
HETATM   11  N   UNL     1     -44.756  58.596 -58.756  1.00  0.00    -0.217 N 
HETATM   12  C   UNL     1     -45.340  58.909 -57.530  1.00  0.00     0.295 C 
HETATM   13  O   UNL     1     -46.308  58.404 -56.974  1.00  0.00    -0.264 OA
BRANCH  11  14
HETATM   14  C   UNL     1     -44.780  57.278 -59.284  1.00  0.00     0.060 A 
HETATM   15  C   UNL     1     -45.766  56.923 -60.213  1.00  0.00     0.031 A 
HETATM   16  C   UNL     1     -45.842  55.619 -60.710  1.00  0.00     0.002 A 
HETATM   17  C   UNL     1     -44.934  54.654 -60.280  1.00  0.00     0.000 A 
HETATM   18  C   UNL     1     -43.958  54.990 -59.345  1.00  0.00     0.002 A 
HETATM   19  C   UNL     1     -43.887  56.293 -58.841  1.00  0.00     0.031 A 
ENDBRANCH  11  14
ENDBRANCH   3   6
ENDBRANCH   1   2
BRANCH   1  20
HETATM   20  C   UNL     1     -42.923  59.822 -53.186  1.00  0.00    -0.031 C 
HETATM   21  C   UNL     1     -41.934  59.601 -54.347  1.00  0.00     0.016 C 
HETATM   22  C   UNL     1     -42.950  61.339 -52.885  1.00  0.00     0.016 C 
BRANCH  20  23
HETATM   23  C   UNL     1     -42.501  59.045 -51.912  1.00  0.00     0.112 C 
BRANCH  23  24
HETATM   24  C   UNL     1     -43.104  57.655 -51.735  1.00  0.00     0.220 C 
HETATM   25  N   UNL     1     -42.529  56.579 -52.394  1.00  0.00    -0.349 N 
HETATM   26  C   UNL     1     -43.171  55.265 -52.244  1.00  0.00     0.145 C 
HETATM   27  C   UNL     1     -41.138  56.512 -52.873  1.00  0.00     0.145 C 
HETATM   28  C   UNL     1     -43.038  54.407 -53.516  1.00  0.00     0.143 C 
HETATM   29  N   UNL     1     -41.621  54.292 -53.937  1.00  0.00    -0.375 N 
HETATM   30  C   UNL     1     -40.972  55.606 -54.110  1.00  0.00     0.143 C 
HETATM   31  O   UNL     1     -44.129  57.526 -51.060  1.00  0.00    -0.273 OA
BRANCH  29  32
HETATM   32  C   UNL     1     -40.905  53.191 -53.454  1.00  0.00     0.069 A 
HETATM   33  C   UNL     1     -40.325  53.098 -52.174  1.00  0.00     0.142 A 
HETATM   34  F   UNL     1     -40.459  54.091 -51.280  1.00  0.00    -0.204 F 
HETATM   35  C   UNL     1     -39.610  51.970 -51.758  1.00  0.00     0.044 A 
HETATM   36  C   UNL     1     -39.431  50.897 -52.622  1.00  0.00     0.003 A 
HETATM   37  C   UNL     1     -39.965  50.961 -53.903  1.00  0.00     0.002 A 
HETATM   38  C   UNL     1     -40.684  52.092 -54.308  1.00  0.00     0.032 A 
ENDBRANCH  29  32
ENDBRANCH  23  24
ENDBRANCH  20  23
ENDBRANCH   1  20
TORSDOF 7
ENDMDL
MODEL 8
REMARK VINA RESULT:      -8.6      2.552      7.627
REMARK  7 active torsions:
REMARK  status: ('A' for Active; 'I' for Inactive)
REMARK    1  A    between atoms: N_5  and  C_6 
REMARK    2  A    between atoms: C_14  and  N_15 
REMARK       I    between atoms: N_15  and  C_16 
REMARK    3  A    between atoms: C_16  and  C_17 
REMARK    4  A    between atoms: C_17  and  C_18 
REMARK    5  A    between atoms: C_18  and  C_19 
REMARK    6  A    between atoms: C_19  and  C_20 
REMARK       I    between atoms: C_20  and  N_21 
REMARK    7  A    between atoms: N_24  and  C_25 
ROOT
HETATM    1  C   UNL     1     -43.131  60.637 -53.225  1.00  0.00     0.112 C 
ENDROOT
BRANCH   1   2
HETATM    2  C   UNL     1     -41.870  59.913 -53.610  1.00  0.00     0.223 C 
HETATM    3  N   UNL     1     -41.687  59.258 -54.777  1.00  0.00    -0.321 N 
HETATM    4  H   UNL     1     -40.741  58.867 -54.765  1.00  0.00     0.169 HD
HETATM    5  O   UNL     1     -40.920  59.895 -52.817  1.00  0.00    -0.273 OA
BRANCH   3   6
HETATM    6  C   UNL     1     -42.346  58.892 -55.919  1.00  0.00     0.129 C 
HETATM    7  C   UNL     1     -43.282  58.028 -56.355  1.00  0.00     0.057 C 
HETATM    8  C   UNL     1     -44.112  57.038 -55.606  1.00  0.00     0.072 C 
HETATM    9  N   UNL     1     -43.509  58.144 -57.746  1.00  0.00    -0.289 N 
HETATM   10  C   UNL     1     -43.809  56.994 -58.597  1.00  0.00     0.178 C 
HETATM   11  N   UNL     1     -42.565  59.085 -58.258  1.00  0.00    -0.217 N 
HETATM   12  C   UNL     1     -41.937  59.657 -57.153  1.00  0.00     0.295 C 
HETATM   13  O   UNL     1     -41.170  60.612 -57.098  1.00  0.00    -0.264 OA
BRANCH  11  14
HETATM   14  C   UNL     1     -42.920  59.850 -59.400  1.00  0.00     0.060 A 
HETATM   15  C   UNL     1     -44.103  60.599 -59.391  1.00  0.00     0.031 A 
HETATM   16  C   UNL     1     -44.500  61.320 -60.520  1.00  0.00     0.002 A 
HETATM   17  C   UNL     1     -43.719  61.296 -61.674  1.00  0.00     0.000 A 
HETATM   18  C   UNL     1     -42.548  60.543 -61.701  1.00  0.00     0.002 A 
HETATM   19  C   UNL     1     -42.155  59.814 -60.574  1.00  0.00     0.031 A 
ENDBRANCH  11  14
ENDBRANCH   3   6
ENDBRANCH   1   2
BRANCH   1  20
HETATM   20  C   UNL     1     -44.090  59.821 -52.303  1.00  0.00    -0.031 C 
HETATM   21  C   UNL     1     -44.906  60.843 -51.487  1.00  0.00     0.016 C 
HETATM   22  C   UNL     1     -45.088  59.019 -53.169  1.00  0.00     0.016 C 
BRANCH  20  23
HETATM   23  C   UNL     1     -43.296  58.853 -51.388  1.00  0.00     0.112 C 
BRANCH  23  24
HETATM   24  C   UNL     1     -43.762  57.401 -51.371  1.00  0.00     0.220 C 
HETATM   25  N   UNL     1     -43.025  56.447 -52.057  1.00  0.00    -0.349 N 
HETATM   26  C   UNL     1     -43.535  55.068 -52.065  1.00  0.00     0.145 C 
HETATM   27  C   UNL     1     -41.601  56.557 -52.412  1.00  0.00     0.145 C 
HETATM   28  C   UNL     1     -43.209  54.338 -53.381  1.00  0.00     0.143 C 
HETATM   29  N   UNL     1     -41.758  54.399 -53.681  1.00  0.00    -0.375 N 
HETATM   30  C   UNL     1     -41.240  55.781 -53.694  1.00  0.00     0.143 C 
HETATM   31  O   UNL     1     -44.819  57.115 -50.803  1.00  0.00    -0.273 OA
BRANCH  29  32
HETATM   32  C   UNL     1     -40.972  53.337 -53.220  1.00  0.00     0.069 A 
HETATM   33  C   UNL     1     -40.542  53.162 -51.891  1.00  0.00     0.142 A 
HETATM   34  F   UNL     1     -40.906  54.023 -50.927  1.00  0.00    -0.204 F 
HETATM   35  C   UNL     1     -39.745  52.082 -51.500  1.00  0.00     0.044 A 
HETATM   36  C   UNL     1     -39.330  51.142 -52.437  1.00  0.00     0.003 A 
HETATM   37  C   UNL     1     -39.711  51.294 -53.763  1.00  0.00     0.002 A 
HETATM   38  C   UNL     1     -40.514  52.376 -54.145  1.00  0.00     0.032 A 
ENDBRANCH  29  32
ENDBRANCH  23  24
ENDBRANCH  20  23
ENDBRANCH   1  20
TORSDOF 7
ENDMDL
MODEL 9
REMARK VINA RESULT:      -8.3      1.976      2.513
REMARK  7 active torsions:
REMARK  status: ('A' for Active; 'I' for Inactive)
REMARK    1  A    between atoms: N_5  and  C_6 
REMARK    2  A    between atoms: C_14  and  N_15 
REMARK       I    between atoms: N_15  and  C_16 
REMARK    3  A    between atoms: C_16  and  C_17 
REMARK    4  A    between atoms: C_17  and  C_18 
REMARK    5  A    between atoms: C_18  and  C_19 
REMARK    6  A    between atoms: C_19  and  C_20 
REMARK       I    between atoms: C_20  and  N_21 
REMARK    7  A    between atoms: N_24  and  C_25 
ROOT
HETATM    1  C   UNL     1     -42.306  60.031 -52.014  1.00  0.00     0.112 C 
ENDROOT
BRANCH   1   2
HETATM    2  C   UNL     1     -41.675  59.494 -50.759  1.00  0.00     0.223 C 
HETATM    3  N   UNL     1     -41.635  58.188 -50.419  1.00  0.00    -0.321 N 
HETATM    4  H   UNL     1     -41.145  58.119 -49.521  1.00  0.00     0.169 HD
HETATM    5  O   UNL     1     -41.154  60.285 -49.962  1.00  0.00    -0.273 OA
BRANCH   3   6
HETATM    6  C   UNL     1     -42.074  56.957 -50.824  1.00  0.00     0.129 C 
HETATM    7  C   UNL     1     -43.185  56.337 -51.264  1.00  0.00     0.057 C 
HETATM    8  C   UNL     1     -44.543  56.879 -51.570  1.00  0.00     0.072 C 
HETATM    9  N   UNL     1     -42.969  54.959 -51.497  1.00  0.00    -0.289 N 
HETATM   10  C   UNL     1     -43.988  53.943 -51.232  1.00  0.00     0.178 C 
HETATM   11  N   UNL     1     -41.642  54.654 -51.069  1.00  0.00    -0.217 N 
HETATM   12  C   UNL     1     -41.028  55.872 -50.784  1.00  0.00     0.295 C 
HETATM   13  O   UNL     1     -39.853  56.114 -50.531  1.00  0.00    -0.264 OA
BRANCH  11  14
HETATM   14  C   UNL     1     -40.948  53.595 -51.713  1.00  0.00     0.060 A 
HETATM   15  C   UNL     1     -40.985  53.492 -53.110  1.00  0.00     0.031 A 
HETATM   16  C   UNL     1     -40.352  52.431 -53.763  1.00  0.00     0.002 A 
HETATM   17  C   UNL     1     -39.678  51.459 -53.027  1.00  0.00     0.000 A 
HETATM   18  C   UNL     1     -39.648  51.542 -51.637  1.00  0.00     0.002 A 
HETATM   19  C   UNL     1     -40.288  52.598 -50.982  1.00  0.00     0.031 A 
ENDBRANCH  11  14
ENDBRANCH   3   6
ENDBRANCH   1   2
BRANCH   1  20
HETATM   20  C   UNL     1     -43.638  60.810 -51.786  1.00  0.00    -0.031 C 
HETATM   21  C   UNL     1     -44.175  60.388 -50.405  1.00  0.00     0.016 C 
HETATM   22  C   UNL     1     -43.350  62.328 -51.725  1.00  0.00     0.016 C 
BRANCH  20  23
HETATM   23  C   UNL     1     -44.659  60.517 -52.916  1.00  0.00     0.112 C 
BRANCH  23  24
HETATM   24  C   UNL     1     -44.208  60.838 -54.337  1.00  0.00     0.220 C 
HETATM   25  N   UNL     1     -43.748  59.811 -55.148  1.00  0.00    -0.349 N 
HETATM   26  C   UNL     1     -43.269  60.166 -56.493  1.00  0.00     0.145 C 
HETATM   27  C   UNL     1     -44.070  58.383 -54.989  1.00  0.00     0.145 C 
HETATM   28  C   UNL     1     -42.114  59.258 -56.955  1.00  0.00     0.143 C 
HETATM   29  N   UNL     1     -42.488  57.827 -56.855  1.00  0.00    -0.375 N 
HETATM   30  C   UNL     1     -42.952  57.455 -55.504  1.00  0.00     0.143 C 
HETATM   31  O   UNL     1     -44.200  62.012 -54.715  1.00  0.00    -0.273 OA
BRANCH  29  32
HETATM   32  C   UNL     1     -43.042  57.236 -57.997  1.00  0.00     0.069 A 
HETATM   33  C   UNL     1     -43.253  55.856 -58.176  1.00  0.00     0.142 A 
HETATM   34  F   UNL     1     -42.957  54.979 -57.203  1.00  0.00    -0.204 F 
HETATM   35  C   UNL     1     -43.800  55.330 -59.350  1.00  0.00     0.044 A 
HETATM   36  C   UNL     1     -44.139  56.172 -60.403  1.00  0.00     0.003 A 
HETATM   37  C   UNL     1     -43.921  57.538 -60.276  1.00  0.00     0.002 A 
HETATM   38  C   UNL     1     -43.378  58.055 -59.093  1.00  0.00     0.032 A 
ENDBRANCH  29  32
ENDBRANCH  23  24
ENDBRANCH  20  23
ENDBRANCH   1  20
TORSDOF 7
ENDMDL
MODEL 10
REMARK VINA RESULT:      -8.2      2.621      7.194
REMARK  7 active torsions:
REMARK  status: ('A' for Active; 'I' for Inactive)
REMARK    1  A    between atoms: N_5  and  C_6 
REMARK    2  A    between atoms: C_14  and  N_15 
REMARK       I    between atoms: N_15  and  C_16 
REMARK    3  A    between atoms: C_16  and  C_17 
REMARK    4  A    between atoms: C_17  and  C_18 
REMARK    5  A    between atoms: C_18  and  C_19 
REMARK    6  A    between atoms: C_19  and  C_20 
REMARK       I    between atoms: C_20  and  N_21 
REMARK    7  A    between atoms: N_24  and  C_25 
ROOT
HETATM    1  C   UNL     1     -45.432  60.387 -54.879  1.00  0.00     0.112 C 
ENDROOT
BRANCH   1   2
HETATM    2  C   UNL     1     -45.590  61.410 -55.971  1.00  0.00     0.223 C 
HETATM    3  N   UNL     1     -45.111  61.273 -57.226  1.00  0.00    -0.321 N 
HETATM    4  H   UNL     1     -45.369  62.117 -57.747  1.00  0.00     0.169 HD
HETATM    5  O   UNL     1     -46.192  62.463 -55.725  1.00  0.00    -0.273 OA
BRANCH   3   6
HETATM    6  C   UNL     1     -44.359  60.436 -58.004  1.00  0.00     0.129 C 
HETATM    7  C   UNL     1     -43.125  60.329 -58.533  1.00  0.00     0.057 C 
HETATM    8  C   UNL     1     -41.925  61.205 -58.383  1.00  0.00     0.072 C 
HETATM    9  N   UNL     1     -42.981  59.160 -59.317  1.00  0.00    -0.289 N 
HETATM   10  C   UNL     1     -42.173  59.119 -60.535  1.00  0.00     0.178 C 
HETATM   11  N   UNL     1     -44.258  58.525 -59.379  1.00  0.00    -0.217 N 
HETATM   12  C   UNL     1     -45.082  59.202 -58.481  1.00  0.00     0.295 C 
HETATM   13  O   UNL     1     -46.209  58.920 -58.090  1.00  0.00    -0.264 OA
BRANCH  11  14
HETATM   14  C   UNL     1     -44.308  57.114 -59.528  1.00  0.00     0.060 A 
HETATM   15  C   UNL     1     -45.093  56.552 -60.543  1.00  0.00     0.031 A 
HETATM   16  C   UNL     1     -45.198  55.165 -60.678  1.00  0.00     0.002 A 
HETATM   17  C   UNL     1     -44.522  54.324 -59.797  1.00  0.00     0.000 A 
HETATM   18  C   UNL     1     -43.751  54.870 -58.773  1.00  0.00     0.002 A 
HETATM   19  C   UNL     1     -43.653  56.259 -58.632  1.00  0.00     0.031 A 
ENDBRANCH  11  14
ENDBRANCH   3   6
ENDBRANCH   1   2
BRANCH   1  20
HETATM   20  C   UNL     1     -44.015  60.352 -54.226  1.00  0.00    -0.031 C 
HETATM   21  C   UNL     1     -43.442  61.779 -54.320  1.00  0.00     0.016 C 
HETATM   22  C   UNL     1     -44.142  60.003 -52.725  1.00  0.00     0.016 C 
BRANCH  20  23
HETATM   23  C   UNL     1     -43.101  59.315 -54.928  1.00  0.00     0.112 C 
BRANCH  23  24
HETATM   24  C   UNL     1     -41.908  58.808 -54.123  1.00  0.00     0.220 C 
HETATM   25  N   UNL     1     -41.929  57.515 -53.624  1.00  0.00    -0.349 N 
HETATM   26  C   UNL     1     -40.787  57.080 -52.807  1.00  0.00     0.145 C 
HETATM   27  C   UNL     1     -42.739  56.405 -54.154  1.00  0.00     0.145 C 
HETATM   28  C   UNL     1     -41.207  56.093 -51.703  1.00  0.00     0.143 C 
HETATM   29  N   UNL     1     -41.957  54.946 -52.269  1.00  0.00    -0.375 N 
HETATM   30  C   UNL     1     -43.118  55.370 -53.076  1.00  0.00     0.143 C 
HETATM   31  O   UNL     1     -40.976  59.579 -53.879  1.00  0.00    -0.273 OA
BRANCH  29  32
HETATM   32  C   UNL     1     -41.213  53.812 -52.615  1.00  0.00     0.069 A 
HETATM   33  C   UNL     1     -40.449  53.039 -51.720  1.00  0.00     0.142 A 
HETATM   34  F   UNL     1     -40.413  53.331 -50.410  1.00  0.00    -0.204 F 
HETATM   35  C   UNL     1     -39.716  51.922 -52.135  1.00  0.00     0.044 A 
HETATM   36  C   UNL     1     -39.706  51.550 -53.474  1.00  0.00     0.003 A 
HETATM   37  C   UNL     1     -40.425  52.303 -54.393  1.00  0.00     0.002 A 
HETATM   38  C   UNL     1     -41.161  53.416 -53.966  1.00  0.00     0.032 A 
ENDBRANCH  29  32
ENDBRANCH  23  24
ENDBRANCH  20  23
ENDBRANCH   1  20
TORSDOF 7
ENDMDL
