MODEL 1
REMARK VINA RESULT:      -8.6      0.000      0.000
REMARK  8 active torsions:
REMARK  status: ('A' for Active; 'I' for Inactive)
REMARK    1  A    between atoms: O_2  and  C_3 
REMARK    2  A    between atoms: C_3  and  C_4 
REMARK    3  A    between atoms: C_7  and  C_8 
REMARK    4  A    between atoms: C_8  and  O_9 
REMARK    5  A    between atoms: O_9  and  C_10 
REMARK    6  A    between atoms: C_11  and  C_12 
REMARK    7  A    between atoms: C_13  and  C_14 
REMARK    8  A    between atoms: C_13  and  C_22 
REMARK       I    between atoms: C_14  and  N_15 
ROOT
HETATM    1  C   UNL     1     -43.534  57.936 -56.691  1.00  0.00     0.035 C 
HETATM    2  C   UNL     1     -43.171  58.183 -57.967  1.00  0.00     0.079 C 
ENDROOT
BRANCH   1   3
HETATM    3  C   UNL     1     -43.500  58.839 -55.527  1.00  0.00    -0.002 A 
HETATM    4  C   UNL     1     -42.601  58.620 -54.475  1.00  0.00     0.079 A 
HETATM    5  C   UNL     1     -42.641  59.418 -53.325  1.00  0.00     0.037 A 
HETATM    6  C   UNL     1     -43.553  60.468 -53.237  1.00  0.00     0.003 A 
HETATM    7  C   UNL     1     -44.441  60.706 -54.283  1.00  0.00     0.001 A 
HETATM    8  C   UNL     1     -44.425  59.888 -55.416  1.00  0.00     0.014 A 
BRANCH   4   9
HETATM    9  O   UNL     1     -41.750  57.548 -54.548  1.00  0.00    -0.346 OA
BRANCH   9  10
HETATM   10  C   UNL     1     -41.503  56.946 -53.271  1.00  0.00     0.214 C 
BRANCH  10  11
HETATM   11  C   UNL     1     -41.070  55.503 -53.430  1.00  0.00    -0.034 A 
HETATM   12  C   UNL     1     -41.000  54.677 -52.299  1.00  0.00     0.010 A 
HETATM   13  C   UNL     1     -40.618  53.338 -52.416  1.00  0.00     0.018 A 
HETATM   14  C   UNL     1     -40.302  52.798 -53.669  1.00  0.00     0.039 A 
HETATM   15  C   UNL     1     -40.385  53.611 -54.804  1.00  0.00     0.018 A 
HETATM   16  C   UNL     1     -40.770  54.950 -54.684  1.00  0.00     0.010 A 
BRANCH  14  17
HETATM   17  C   UNL     1     -39.890  51.370 -53.740  1.00  0.00     0.292 C 
HETATM   18  O   UNL     1     -39.993  50.687 -54.746  1.00  0.00    -0.259 OA
BRANCH  17  19
HETATM   19  O   UNL     1     -39.404  50.951 -52.544  1.00  0.00    -0.323 OA
HETATM   20  C   UNL     1     -39.647  49.571 -52.269  1.00  0.00     0.213 C 
ENDBRANCH  17  19
ENDBRANCH  14  17
ENDBRANCH  10  11
ENDBRANCH   9  10
ENDBRANCH   4   9
ENDBRANCH   1   3
BRANCH   2  21
HETATM   21  C   UNL     1     -43.309  57.062 -58.965  1.00  0.00     0.257 C 
HETATM   22  N   UNL     1     -44.412  56.996 -59.795  1.00  0.00    -0.344 N 
HETATM   23  C   UNL     1     -44.547  55.861 -60.714  1.00  0.00     0.152 C 
HETATM   24  C   UNL     1     -45.596  57.865 -59.811  1.00  0.00     0.152 C 
HETATM   25  C   UNL     1     -45.818  55.075 -60.377  1.00  0.00     0.187 C 
HETATM   26  O   UNL     1     -46.977  55.928 -60.402  1.00  0.00    -0.388 OA
HETATM   27  C   UNL     1     -46.838  57.025 -59.479  1.00  0.00     0.187 C 
HETATM   28  O   UNL     1     -42.378  56.254 -59.062  1.00  0.00    -0.267 OA
ENDBRANCH   2  21
BRANCH   2  29
HETATM   29  C   UNL     1     -42.476  59.374 -58.350  1.00  0.00     0.144 A 
HETATM   30  N   UNL     1     -41.617  60.145 -57.704  1.00  0.00    -0.228 NA
HETATM   31  C   UNL     1     -41.176  61.078 -58.609  1.00  0.00     0.086 A 
HETATM   32  C   UNL     1     -41.799  60.911 -59.835  1.00  0.00     0.062 A 
HETATM   33  C   UNL     1     -40.226  62.098 -58.457  1.00  0.00     0.034 A 
HETATM   34  N   UNL     1     -42.628  59.839 -59.643  1.00  0.00    -0.338 N 
HETATM   35  C   UNL     1     -41.540  61.713 -60.948  1.00  0.00     0.032 A 
HETATM   36  H   UNL     1     -43.205  59.395 -60.348  1.00  0.00     0.167 HD
HETATM   37  C   UNL     1     -40.588  62.724 -60.781  1.00  0.00     0.002 A 
HETATM   38  C   UNL     1     -39.938  62.915 -59.559  1.00  0.00     0.002 A 
ENDBRANCH   2  29
TORSDOF 8
ENDMDL
MODEL 2
REMARK VINA RESULT:      -8.5      2.260      5.150
REMARK  8 active torsions:
REMARK  status: ('A' for Active; 'I' for Inactive)
REMARK    1  A    between atoms: O_2  and  C_3 
REMARK    2  A    between atoms: C_3  and  C_4 
REMARK    3  A    between atoms: C_7  and  C_8 
REMARK    4  A    between atoms: C_8  and  O_9 
REMARK    5  A    between atoms: O_9  and  C_10 
REMARK    6  A    between atoms: C_11  and  C_12 
REMARK    7  A    between atoms: C_13  and  C_14 
REMARK    8  A    between atoms: C_13  and  C_22 
REMARK       I    between atoms: C_14  and  N_15 
ROOT
HETATM    1  C   UNL     1     -43.501  58.419 -55.664  1.00  0.00     0.035 C 
HETATM    2  C   UNL     1     -42.847  59.563 -55.377  1.00  0.00     0.079 C 
ENDROOT
BRANCH   1   3
HETATM    3  C   UNL     1     -43.693  57.765 -56.971  1.00  0.00    -0.002 A 
HETATM    4  C   UNL     1     -43.087  56.534 -57.252  1.00  0.00     0.079 A 
HETATM    5  C   UNL     1     -43.187  55.964 -58.527  1.00  0.00     0.037 A 
HETATM    6  C   UNL     1     -43.929  56.603 -59.519  1.00  0.00     0.003 A 
HETATM    7  C   UNL     1     -44.549  57.820 -59.247  1.00  0.00     0.001 A 
HETATM    8  C   UNL     1     -44.421  58.405 -57.985  1.00  0.00     0.014 A 
BRANCH   4   9
HETATM    9  O   UNL     1     -42.311  55.945 -56.287  1.00  0.00    -0.346 OA
BRANCH   9  10
HETATM   10  C   UNL     1     -42.837  54.688 -55.841  1.00  0.00     0.214 C 
BRANCH  10  11
HETATM   11  C   UNL     1     -42.212  54.280 -54.523  1.00  0.00    -0.034 A 
HETATM   12  C   UNL     1     -42.955  54.411 -53.340  1.00  0.00     0.010 A 
HETATM   13  C   UNL     1     -42.411  54.029 -52.110  1.00  0.00     0.018 A 
HETATM   14  C   UNL     1     -41.114  53.505 -52.041  1.00  0.00     0.039 A 
HETATM   15  C   UNL     1     -40.373  53.358 -53.219  1.00  0.00     0.018 A 
HETATM   16  C   UNL     1     -40.920  53.738 -54.448  1.00  0.00     0.010 A 
BRANCH  14  17
HETATM   17  C   UNL     1     -40.575  53.124 -50.708  1.00  0.00     0.292 C 
HETATM   18  O   UNL     1     -40.452  51.969 -50.335  1.00  0.00    -0.259 OA
BRANCH  17  19
HETATM   19  O   UNL     1     -40.259  54.229 -49.985  1.00  0.00    -0.323 OA
HETATM   20  C   UNL     1     -40.454  54.079 -48.579  1.00  0.00     0.213 C 
ENDBRANCH  17  19
ENDBRANCH  14  17
ENDBRANCH  10  11
ENDBRANCH   9  10
ENDBRANCH   4   9
ENDBRANCH   1   3
BRANCH   2  21
HETATM   21  C   UNL     1     -42.808  60.007 -53.937  1.00  0.00     0.257 C 
HETATM   22  N   UNL     1     -41.798  59.572 -53.099  1.00  0.00    -0.344 N 
HETATM   23  C   UNL     1     -41.820  59.972 -51.688  1.00  0.00     0.152 C 
HETATM   24  C   UNL     1     -40.719  58.618 -53.386  1.00  0.00     0.152 C 
HETATM   25  C   UNL     1     -41.928  58.727 -50.802  1.00  0.00     0.187 C 
HETATM   26  O   UNL     1     -40.864  57.798 -51.082  1.00  0.00    -0.388 OA
HETATM   27  C   UNL     1     -40.869  57.399 -52.465  1.00  0.00     0.187 C 
HETATM   28  O   UNL     1     -43.660  60.817 -53.556  1.00  0.00    -0.267 OA
ENDBRANCH   2  21
BRANCH   2  29
HETATM   29  C   UNL     1     -42.386  60.461 -56.393  1.00  0.00     0.144 A 
HETATM   30  N   UNL     1     -41.367  60.398 -57.233  1.00  0.00    -0.228 NA
HETATM   31  C   UNL     1     -41.485  61.480 -58.069  1.00  0.00     0.086 A 
HETATM   32  C   UNL     1     -42.579  62.257 -57.720  1.00  0.00     0.062 A 
HETATM   33  C   UNL     1     -40.699  61.860 -59.166  1.00  0.00     0.034 A 
HETATM   34  N   UNL     1     -43.124  61.601 -56.649  1.00  0.00    -0.338 N 
HETATM   35  C   UNL     1     -42.951  63.417 -58.401  1.00  0.00     0.032 A 
HETATM   36  H   UNL     1     -43.976  61.855 -56.163  1.00  0.00     0.167 HD
HETATM   37  C   UNL     1     -42.156  63.781 -59.494  1.00  0.00     0.002 A 
HETATM   38  C   UNL     1     -41.050  63.016 -59.874  1.00  0.00     0.002 A 
ENDBRANCH   2  29
TORSDOF 8
ENDMDL
MODEL 3
REMARK VINA RESULT:      -8.4      2.555      4.605
REMARK  8 active torsions:
REMARK  status: ('A' for Active; 'I' for Inactive)
REMARK    1  A    between atoms: O_2  and  C_3 
REMARK    2  A    between atoms: C_3  and  C_4 
REMARK    3  A    between atoms: C_7  and  C_8 
REMARK    4  A    between atoms: C_8  and  O_9 
REMARK    5  A    between atoms: O_9  and  C_10 
REMARK    6  A    between atoms: C_11  and  C_12 
REMARK    7  A    between atoms: C_13  and  C_14 
REMARK    8  A    between atoms: C_13  and  C_22 
REMARK       I    between atoms: C_14  and  N_15 
ROOT
HETATM    1  C   UNL     1     -41.349  58.661 -54.369  1.00  0.00     0.035 C 
HETATM    2  C   UNL     1     -42.195  59.489 -55.017  1.00  0.00     0.079 C 
ENDROOT
BRANCH   1   3
HETATM    3  C   UNL     1     -41.147  58.495 -52.919  1.00  0.00    -0.002 A 
HETATM    4  C   UNL     1     -42.049  57.746 -52.151  1.00  0.00     0.079 A 
HETATM    5  C   UNL     1     -41.912  57.674 -50.759  1.00  0.00     0.037 A 
HETATM    6  C   UNL     1     -40.846  58.316 -50.130  1.00  0.00     0.003 A 
HETATM    7  C   UNL     1     -39.934  59.049 -50.885  1.00  0.00     0.001 A 
HETATM    8  C   UNL     1     -40.091  59.150 -52.269  1.00  0.00     0.014 A 
BRANCH   4   9
HETATM    9  O   UNL     1     -43.125  57.170 -52.774  1.00  0.00    -0.346 OA
BRANCH   9  10
HETATM   10  C   UNL     1     -43.571  55.974 -52.120  1.00  0.00     0.214 C 
BRANCH  10  11
HETATM   11  C   UNL     1     -42.568  54.854 -52.304  1.00  0.00    -0.034 A 
HETATM   12  C   UNL     1     -42.189  54.477 -53.600  1.00  0.00     0.010 A 
HETATM   13  C   UNL     1     -41.254  53.457 -53.801  1.00  0.00     0.018 A 
HETATM   14  C   UNL     1     -40.679  52.797 -52.708  1.00  0.00     0.039 A 
HETATM   15  C   UNL     1     -41.042  53.178 -51.412  1.00  0.00     0.018 A 
HETATM   16  C   UNL     1     -41.975  54.200 -51.213  1.00  0.00     0.010 A 
BRANCH  14  17
HETATM   17  C   UNL     1     -39.698  51.710 -52.974  1.00  0.00     0.292 C 
HETATM   18  O   UNL     1     -38.938  51.266 -52.130  1.00  0.00    -0.259 OA
BRANCH  17  19
HETATM   19  O   UNL     1     -39.770  51.306 -54.268  1.00  0.00    -0.323 OA
HETATM   20  C   UNL     1     -39.998  49.906 -54.428  1.00  0.00     0.213 C 
ENDBRANCH  17  19
ENDBRANCH  14  17
ENDBRANCH  10  11
ENDBRANCH   9  10
ENDBRANCH   4   9
ENDBRANCH   1   3
BRANCH   2  21
HETATM   21  C   UNL     1     -42.193  59.454 -56.524  1.00  0.00     0.257 C 
HETATM   22  N   UNL     1     -42.942  58.512 -57.203  1.00  0.00    -0.344 N 
HETATM   23  C   UNL     1     -42.873  58.464 -58.667  1.00  0.00     0.152 C 
HETATM   24  C   UNL     1     -43.740  57.408 -56.651  1.00  0.00     0.152 C 
HETATM   25  C   UNL     1     -42.325  57.105 -59.113  1.00  0.00     0.187 C 
HETATM   26  O   UNL     1     -43.114  56.027 -58.577  1.00  0.00    -0.388 OA
HETATM   27  C   UNL     1     -43.155  56.075 -57.138  1.00  0.00     0.187 C 
HETATM   28  O   UNL     1     -41.562  60.332 -57.123  1.00  0.00    -0.267 OA
ENDBRANCH   2  21
BRANCH   2  29
HETATM   29  C   UNL     1     -42.920  60.525 -54.346  1.00  0.00     0.144 A 
HETATM   30  N   UNL     1     -43.979  60.495 -53.555  1.00  0.00    -0.228 NA
HETATM   31  C   UNL     1     -44.161  61.777 -53.099  1.00  0.00     0.086 A 
HETATM   32  C   UNL     1     -43.219  62.634 -53.646  1.00  0.00     0.062 A 
HETATM   33  C   UNL     1     -45.107  62.285 -52.198  1.00  0.00     0.034 A 
HETATM   34  N   UNL     1     -42.456  61.823 -54.443  1.00  0.00    -0.338 N 
HETATM   35  C   UNL     1     -43.154  63.997 -53.355  1.00  0.00     0.032 A 
HETATM   36  H   UNL     1     -41.630  62.100 -54.962  1.00  0.00     0.167 HD
HETATM   37  C   UNL     1     -44.105  64.488 -52.452  1.00  0.00     0.002 A 
HETATM   38  C   UNL     1     -45.064  63.649 -51.880  1.00  0.00     0.002 A 
ENDBRANCH   2  29
TORSDOF 8
ENDMDL
MODEL 4
REMARK VINA RESULT:      -8.2      1.452      2.233
REMARK  8 active torsions:
REMARK  status: ('A' for Active; 'I' for Inactive)
REMARK    1  A    between atoms: O_2  and  C_3 
REMARK    2  A    between atoms: C_3  and  C_4 
REMARK    3  A    between atoms: C_7  and  C_8 
REMARK    4  A    between atoms: C_8  and  O_9 
REMARK    5  A    between atoms: O_9  and  C_10 
REMARK    6  A    between atoms: C_11  and  C_12 
REMARK    7  A    between atoms: C_13  and  C_14 
REMARK    8  A    between atoms: C_13  and  C_22 
REMARK       I    between atoms: C_14  and  N_15 
ROOT
HETATM    1  C   UNL     1     -43.828  58.664 -55.527  1.00  0.00     0.035 C 
HETATM    2  C   UNL     1     -43.885  59.234 -56.748  1.00  0.00     0.079 C 
ENDROOT
BRANCH   1   3
HETATM    3  C   UNL     1     -43.008  59.047 -54.363  1.00  0.00    -0.002 A 
HETATM    4  C   UNL     1     -42.025  58.182 -53.863  1.00  0.00     0.079 A 
HETATM    5  C   UNL     1     -41.319  58.503 -52.698  1.00  0.00     0.037 A 
HETATM    6  C   UNL     1     -41.562  59.711 -52.047  1.00  0.00     0.003 A 
HETATM    7  C   UNL     1     -42.525  60.586 -52.543  1.00  0.00     0.001 A 
HETATM    8  C   UNL     1     -43.254  60.250 -53.686  1.00  0.00     0.014 A 
BRANCH   4   9
HETATM    9  O   UNL     1     -41.838  56.971 -54.479  1.00  0.00    -0.346 OA
BRANCH   9  10
HETATM   10  C   UNL     1     -42.678  55.940 -53.943  1.00  0.00     0.214 C 
BRANCH  10  11
HETATM   11  C   UNL     1     -41.872  54.694 -53.637  1.00  0.00    -0.034 A 
HETATM   12  C   UNL     1     -41.514  53.832 -54.684  1.00  0.00     0.010 A 
HETATM   13  C   UNL     1     -40.759  52.683 -54.434  1.00  0.00     0.018 A 
HETATM   14  C   UNL     1     -40.343  52.377 -53.133  1.00  0.00     0.039 A 
HETATM   15  C   UNL     1     -40.684  53.240 -52.085  1.00  0.00     0.018 A 
HETATM   16  C   UNL     1     -41.437  54.390 -52.338  1.00  0.00     0.010 A 
BRANCH  14  17
HETATM   17  C   UNL     1     -39.551  51.136 -52.917  1.00  0.00     0.292 C 
HETATM   18  O   UNL     1     -39.304  50.331 -53.799  1.00  0.00    -0.259 OA
BRANCH  17  19
HETATM   19  O   UNL     1     -39.164  51.034 -51.620  1.00  0.00    -0.323 OA
HETATM   20  C   UNL     1     -39.528  49.801 -50.999  1.00  0.00     0.213 C 
ENDBRANCH  17  19
ENDBRANCH  14  17
ENDBRANCH  10  11
ENDBRANCH   9  10
ENDBRANCH   4   9
ENDBRANCH   1   3
BRANCH   2  21
HETATM   21  C   UNL     1     -44.821  58.629 -57.762  1.00  0.00     0.257 C 
HETATM   22  N   UNL     1     -44.541  57.398 -58.325  1.00  0.00    -0.344 N 
HETATM   23  C   UNL     1     -45.439  56.863 -59.354  1.00  0.00     0.152 C 
HETATM   24  C   UNL     1     -43.353  56.555 -58.136  1.00  0.00     0.152 C 
HETATM   25  C   UNL     1     -44.669  56.684 -60.666  1.00  0.00     0.187 C 
HETATM   26  O   UNL     1     -43.511  55.852 -60.478  1.00  0.00    -0.388 OA
HETATM   27  C   UNL     1     -42.629  56.401 -59.481  1.00  0.00     0.187 C 
HETATM   28  O   UNL     1     -45.869  59.233 -58.018  1.00  0.00    -0.267 OA
ENDBRANCH   2  21
BRANCH   2  29
HETATM   29  C   UNL     1     -42.952  60.235 -57.172  1.00  0.00     0.144 A 
HETATM   30  N   UNL     1     -41.771  60.151 -57.761  1.00  0.00    -0.228 NA
HETATM   31  C   UNL     1     -41.388  61.437 -58.048  1.00  0.00     0.086 A 
HETATM   32  C   UNL     1     -42.331  62.346 -57.596  1.00  0.00     0.062 A 
HETATM   33  C   UNL     1     -40.246  61.908 -58.711  1.00  0.00     0.034 A 
HETATM   34  N   UNL     1     -43.303  61.564 -57.032  1.00  0.00    -0.338 N 
HETATM   35  C   UNL     1     -42.211  63.728 -57.757  1.00  0.00     0.032 A 
HETATM   36  H   UNL     1     -44.181  61.888 -56.643  1.00  0.00     0.167 HD
HETATM   37  C   UNL     1     -41.067  64.181 -58.423  1.00  0.00     0.002 A 
HETATM   38  C   UNL     1     -40.100  63.289 -58.896  1.00  0.00     0.002 A 
ENDBRANCH   2  29
TORSDOF 8
ENDMDL
MODEL 5
REMARK VINA RESULT:      -8.0     17.455     21.263
REMARK  8 active torsions:
REMARK  status: ('A' for Active; 'I' for Inactive)
REMARK    1  A    between atoms: O_2  and  C_3 
REMARK    2  A    between atoms: C_3  and  C_4 
REMARK    3  A    between atoms: C_7  and  C_8 
REMARK    4  A    between atoms: C_8  and  O_9 
REMARK    5  A    between atoms: O_9  and  C_10 
REMARK    6  A    between atoms: C_11  and  C_12 
REMARK    7  A    between atoms: C_13  and  C_14 
REMARK    8  A    between atoms: C_13  and  C_22 
REMARK       I    between atoms: C_14  and  N_15 
ROOT
HETATM    1  C   UNL     1     -34.203  38.413 -52.934  1.00  0.00     0.035 C 
HETATM    2  C   UNL     1     -32.964  38.311 -52.410  1.00  0.00     0.079 C 
ENDROOT
BRANCH   1   3
HETATM    3  C   UNL     1     -35.465  38.773 -52.264  1.00  0.00    -0.002 A 
HETATM    4  C   UNL     1     -35.861  40.113 -52.154  1.00  0.00     0.079 A 
HETATM    5  C   UNL     1     -37.007  40.461 -51.430  1.00  0.00     0.037 A 
HETATM    6  C   UNL     1     -37.789  39.467 -50.844  1.00  0.00     0.003 A 
HETATM    7  C   UNL     1     -37.415  38.131 -50.959  1.00  0.00     0.001 A 
HETATM    8  C   UNL     1     -36.252  37.787 -51.653  1.00  0.00     0.014 A 
BRANCH   4   9
HETATM    9  O   UNL     1     -35.052  41.085 -52.684  1.00  0.00    -0.346 OA
BRANCH   9  10
HETATM   10  C   UNL     1     -35.786  42.220 -53.162  1.00  0.00     0.214 C 
BRANCH  10  11
HETATM   11  C   UNL     1     -36.110  42.071 -54.635  1.00  0.00    -0.034 A 
HETATM   12  C   UNL     1     -35.144  42.423 -55.589  1.00  0.00     0.010 A 
HETATM   13  C   UNL     1     -35.407  42.282 -56.955  1.00  0.00     0.018 A 
HETATM   14  C   UNL     1     -36.641  41.783 -57.391  1.00  0.00     0.039 A 
HETATM   15  C   UNL     1     -37.603  41.415 -56.444  1.00  0.00     0.018 A 
HETATM   16  C   UNL     1     -37.336  41.554 -55.078  1.00  0.00     0.010 A 
BRANCH  14  17
HETATM   17  C   UNL     1     -36.878  41.663 -58.855  1.00  0.00     0.292 C 
HETATM   18  O   UNL     1     -37.234  42.593 -59.560  1.00  0.00    -0.259 OA
BRANCH  17  19
HETATM   19  O   UNL     1     -36.654  40.391 -59.274  1.00  0.00    -0.323 OA
HETATM   20  C   UNL     1     -37.313  40.057 -60.496  1.00  0.00     0.213 C 
ENDBRANCH  17  19
ENDBRANCH  14  17
ENDBRANCH  10  11
ENDBRANCH   9  10
ENDBRANCH   4   9
ENDBRANCH   1   3
BRANCH   2  21
HETATM   21  C   UNL     1     -31.841  37.918 -53.334  1.00  0.00     0.257 C 
HETATM   22  N   UNL     1     -31.415  38.783 -54.325  1.00  0.00    -0.344 N 
HETATM   23  C   UNL     1     -30.361  38.347 -55.247  1.00  0.00     0.152 C 
HETATM   24  C   UNL     1     -31.970  40.090 -54.697  1.00  0.00     0.152 C 
HETATM   25  C   UNL     1     -30.904  38.333 -56.679  1.00  0.00     0.187 C 
HETATM   26  O   UNL     1     -31.441  39.618 -57.043  1.00  0.00    -0.388 OA
HETATM   27  C   UNL     1     -32.488  40.021 -56.141  1.00  0.00     0.187 C 
HETATM   28  O   UNL     1     -31.275  36.837 -53.133  1.00  0.00    -0.267 OA
ENDBRANCH   2  21
BRANCH   2  29
HETATM   29  C   UNL     1     -32.722  38.352 -50.999  1.00  0.00     0.144 A 
HETATM   30  N   UNL     1     -32.931  37.467 -50.039  1.00  0.00    -0.228 NA
HETATM   31  C   UNL     1     -32.388  37.997 -48.896  1.00  0.00     0.086 A 
HETATM   32  C   UNL     1     -31.862  39.257 -49.137  1.00  0.00     0.062 A 
HETATM   33  C   UNL     1     -32.293  37.452 -47.608  1.00  0.00     0.034 A 
HETATM   34  N   UNL     1     -32.099  39.466 -50.469  1.00  0.00    -0.338 N 
HETATM   35  C   UNL     1     -31.237  40.033 -48.160  1.00  0.00     0.032 A 
HETATM   36  H   UNL     1     -31.799  40.268 -51.011  1.00  0.00     0.167 HD
HETATM   37  C   UNL     1     -31.148  39.472 -46.880  1.00  0.00     0.002 A 
HETATM   38  C   UNL     1     -31.664  38.203 -46.606  1.00  0.00     0.002 A 
ENDBRANCH   2  29
TORSDOF 8
ENDMDL
MODEL 6
REMARK VINA RESULT:      -7.9      2.810      5.757
REMARK  8 active torsions:
REMARK  status: ('A' for Active; 'I' for Inactive)
REMARK    1  A    between atoms: O_2  and  C_3 
REMARK    2  A    between atoms: C_3  and  C_4 
REMARK    3  A    between atoms: C_7  and  C_8 
REMARK    4  A    between atoms: C_8  and  O_9 
REMARK    5  A    between atoms: O_9  and  C_10 
REMARK    6  A    between atoms: C_11  and  C_12 
REMARK    7  A    between atoms: C_13  and  C_14 
REMARK    8  A    between atoms: C_13  and  C_22 
REMARK       I    between atoms: C_14  and  N_15 
ROOT
HETATM    1  C   UNL     1     -42.439  58.698 -56.360  1.00  0.00     0.035 C 
HETATM    2  C   UNL     1     -43.310  59.634 -55.931  1.00  0.00     0.079 C 
ENDROOT
BRANCH   1   3
HETATM    3  C   UNL     1     -42.475  57.898 -57.597  1.00  0.00    -0.002 A 
HETATM    4  C   UNL     1     -42.934  56.574 -57.581  1.00  0.00     0.079 A 
HETATM    5  C   UNL     1     -42.871  55.783 -58.734  1.00  0.00     0.037 A 
HETATM    6  C   UNL     1     -42.388  56.324 -59.924  1.00  0.00     0.003 A 
HETATM    7  C   UNL     1     -41.943  57.643 -59.957  1.00  0.00     0.001 A 
HETATM    8  C   UNL     1     -41.973  58.422 -58.797  1.00  0.00     0.014 A 
BRANCH   4   9
HETATM    9  O   UNL     1     -43.351  56.036 -56.391  1.00  0.00    -0.346 OA
BRANCH   9  10
HETATM   10  C   UNL     1     -43.096  54.628 -56.297  1.00  0.00     0.214 C 
BRANCH  10  11
HETATM   11  C   UNL     1     -42.356  54.299 -55.017  1.00  0.00    -0.034 A 
HETATM   12  C   UNL     1     -43.035  54.376 -53.791  1.00  0.00     0.010 A 
HETATM   13  C   UNL     1     -42.383  54.064 -52.595  1.00  0.00     0.018 A 
HETATM   14  C   UNL     1     -41.041  53.665 -52.602  1.00  0.00     0.039 A 
HETATM   15  C   UNL     1     -40.362  53.570 -53.822  1.00  0.00     0.018 A 
HETATM   16  C   UNL     1     -41.017  53.881 -55.018  1.00  0.00     0.010 A 
BRANCH  14  17
HETATM   17  C   UNL     1     -40.388  53.354 -51.301  1.00  0.00     0.292 C 
HETATM   18  O   UNL     1     -39.997  52.241 -50.991  1.00  0.00    -0.259 OA
BRANCH  17  19
HETATM   19  O   UNL     1     -40.306  54.467 -50.529  1.00  0.00    -0.323 OA
HETATM   20  C   UNL     1     -40.087  54.200 -49.144  1.00  0.00     0.213 C 
ENDBRANCH  17  19
ENDBRANCH  14  17
ENDBRANCH  10  11
ENDBRANCH   9  10
ENDBRANCH   4   9
ENDBRANCH   1   3
BRANCH   2  21
HETATM   21  C   UNL     1     -43.027  60.304 -54.611  1.00  0.00     0.257 C 
HETATM   22  N   UNL     1     -42.978  59.561 -53.445  1.00  0.00    -0.344 N 
HETATM   23  C   UNL     1     -42.762  60.249 -52.169  1.00  0.00     0.152 C 
HETATM   24  C   UNL     1     -43.252  58.130 -53.262  1.00  0.00     0.152 C 
HETATM   25  C   UNL     1     -43.968  60.026 -51.252  1.00  0.00     0.187 C 
HETATM   26  O   UNL     1     -44.228  58.622 -51.069  1.00  0.00    -0.388 OA
HETATM   27  C   UNL     1     -44.460  57.965 -52.329  1.00  0.00     0.187 C 
HETATM   28  O   UNL     1     -42.775  61.514 -54.616  1.00  0.00    -0.267 OA
ENDBRANCH   2  21
BRANCH   2  29
HETATM   29  C   UNL     1     -44.576  59.853 -56.563  1.00  0.00     0.144 A 
HETATM   30  N   UNL     1     -45.510  59.018 -56.987  1.00  0.00    -0.228 NA
HETATM   31  C   UNL     1     -46.567  59.792 -57.396  1.00  0.00     0.086 A 
HETATM   32  C   UNL     1     -46.273  61.140 -57.261  1.00  0.00     0.062 A 
HETATM   33  C   UNL     1     -47.825  59.412 -57.884  1.00  0.00     0.034 A 
HETATM   34  N   UNL     1     -45.004  61.154 -56.748  1.00  0.00    -0.338 N 
HETATM   35  C   UNL     1     -47.165  62.161 -57.592  1.00  0.00     0.032 A 
HETATM   36  H   UNL     1     -44.481  61.975 -56.468  1.00  0.00     0.167 HD
HETATM   37  C   UNL     1     -48.417  61.764 -58.076  1.00  0.00     0.002 A 
HETATM   38  C   UNL     1     -48.746  60.413 -58.218  1.00  0.00     0.002 A 
ENDBRANCH   2  29
TORSDOF 8
ENDMDL
MODEL 7
REMARK VINA RESULT:      -7.8      1.847      4.736
REMARK  8 active torsions:
REMARK  status: ('A' for Active; 'I' for Inactive)
REMARK    1  A    between atoms: O_2  and  C_3 
REMARK    2  A    between atoms: C_3  and  C_4 
REMARK    3  A    between atoms: C_7  and  C_8 
REMARK    4  A    between atoms: C_8  and  O_9 
REMARK    5  A    between atoms: O_9  and  C_10 
REMARK    6  A    between atoms: C_11  and  C_12 
REMARK    7  A    between atoms: C_13  and  C_14 
REMARK    8  A    between atoms: C_13  and  C_22 
REMARK       I    between atoms: C_14  and  N_15 
ROOT
HETATM    1  C   UNL     1     -44.488  58.735 -56.282  1.00  0.00     0.035 C 
HETATM    2  C   UNL     1     -43.995  59.991 -56.305  1.00  0.00     0.079 C 
ENDROOT
BRANCH   1   3
HETATM    3  C   UNL     1     -44.171  57.601 -57.168  1.00  0.00    -0.002 A 
HETATM    4  C   UNL     1     -43.414  56.517 -56.702  1.00  0.00     0.079 A 
HETATM    5  C   UNL     1     -43.028  55.490 -57.572  1.00  0.00     0.037 A 
HETATM    6  C   UNL     1     -43.433  55.519 -58.905  1.00  0.00     0.003 A 
HETATM    7  C   UNL     1     -44.199  56.582 -59.376  1.00  0.00     0.001 A 
HETATM    8  C   UNL     1     -44.554  57.624 -58.516  1.00  0.00     0.014 A 
BRANCH   4   9
HETATM    9  O   UNL     1     -42.972  56.531 -55.404  1.00  0.00    -0.346 OA
BRANCH   9  10
HETATM   10  C   UNL     1     -41.548  56.410 -55.300  1.00  0.00     0.214 C 
BRANCH  10  11
HETATM   11  C   UNL     1     -41.164  55.082 -54.680  1.00  0.00    -0.034 A 
HETATM   12  C   UNL     1     -40.202  54.281 -55.313  1.00  0.00     0.010 A 
HETATM   13  C   UNL     1     -39.816  53.058 -54.757  1.00  0.00     0.018 A 
HETATM   14  C   UNL     1     -40.383  52.615 -53.556  1.00  0.00     0.039 A 
HETATM   15  C   UNL     1     -41.332  53.416 -52.912  1.00  0.00     0.018 A 
HETATM   16  C   UNL     1     -41.714  54.640 -53.468  1.00  0.00     0.010 A 
BRANCH  14  17
HETATM   17  C   UNL     1     -39.948  51.300 -53.011  1.00  0.00     0.292 C 
HETATM   18  O   UNL     1     -40.040  50.251 -53.626  1.00  0.00    -0.259 OA
BRANCH  17  19
HETATM   19  O   UNL     1     -39.456  51.442 -51.754  1.00  0.00    -0.323 OA
HETATM   20  C   UNL     1     -39.463  50.237 -50.988  1.00  0.00     0.213 C 
ENDBRANCH  17  19
ENDBRANCH  14  17
ENDBRANCH  10  11
ENDBRANCH   9  10
ENDBRANCH   4   9
ENDBRANCH   1   3
BRANCH   2  21
HETATM   21  C   UNL     1     -44.502  60.962 -55.270  1.00  0.00     0.257 C 
HETATM   22  N   UNL     1     -43.853  61.094 -54.056  1.00  0.00    -0.344 N 
HETATM   23  C   UNL     1     -44.405  62.002 -53.047  1.00  0.00     0.152 C 
HETATM   24  C   UNL     1     -42.708  60.329 -53.545  1.00  0.00     0.152 C 
HETATM   25  C   UNL     1     -44.782  61.209 -51.791  1.00  0.00     0.187 C 
HETATM   26  O   UNL     1     -43.655  60.468 -51.289  1.00  0.00    -0.388 OA
HETATM   27  C   UNL     1     -43.138  59.565 -52.285  1.00  0.00     0.187 C 
HETATM   28  O   UNL     1     -45.465  61.678 -55.568  1.00  0.00    -0.267 OA
ENDBRANCH   2  21
BRANCH   2  29
HETATM   29  C   UNL     1     -43.190  60.481 -57.383  1.00  0.00     0.144 A 
HETATM   30  N   UNL     1     -43.407  60.559 -58.685  1.00  0.00    -0.228 NA
HETATM   31  C   UNL     1     -42.337  61.235 -59.217  1.00  0.00     0.086 A 
HETATM   32  C   UNL     1     -41.414  61.552 -58.233  1.00  0.00     0.062 A 
HETATM   33  C   UNL     1     -42.090  61.629 -60.539  1.00  0.00     0.034 A 
HETATM   34  N   UNL     1     -41.967  61.052 -57.085  1.00  0.00    -0.338 N 
HETATM   35  C   UNL     1     -40.229  62.247 -58.481  1.00  0.00     0.032 A 
HETATM   36  H   UNL     1     -41.591  61.148 -56.149  1.00  0.00     0.167 HD
HETATM   37  C   UNL     1     -39.999  62.635 -59.806  1.00  0.00     0.002 A 
HETATM   38  C   UNL     1     -40.913  62.335 -60.820  1.00  0.00     0.002 A 
ENDBRANCH   2  29
TORSDOF 8
ENDMDL
MODEL 8
REMARK VINA RESULT:      -7.5     17.648     20.520
REMARK  8 active torsions:
REMARK  status: ('A' for Active; 'I' for Inactive)
REMARK    1  A    between atoms: O_2  and  C_3 
REMARK    2  A    between atoms: C_3  and  C_4 
REMARK    3  A    between atoms: C_7  and  C_8 
REMARK    4  A    between atoms: C_8  and  O_9 
REMARK    5  A    between atoms: O_9  and  C_10 
REMARK    6  A    between atoms: C_11  and  C_12 
REMARK    7  A    between atoms: C_13  and  C_14 
REMARK    8  A    between atoms: C_13  and  C_22 
REMARK       I    between atoms: C_14  and  N_15 
ROOT
HETATM    1  C   UNL     1     -34.362  40.170 -53.312  1.00  0.00     0.035 C 
HETATM    2  C   UNL     1     -34.016  39.972 -54.601  1.00  0.00     0.079 C 
ENDROOT
BRANCH   1   3
HETATM    3  C   UNL     1     -35.707  40.237 -52.714  1.00  0.00    -0.002 A 
HETATM    4  C   UNL     1     -36.098  39.324 -51.726  1.00  0.00     0.079 A 
HETATM    5  C   UNL     1     -37.408  39.324 -51.233  1.00  0.00     0.037 A 
HETATM    6  C   UNL     1     -38.326  40.266 -51.695  1.00  0.00     0.003 A 
HETATM    7  C   UNL     1     -37.944  41.188 -52.666  1.00  0.00     0.001 A 
HETATM    8  C   UNL     1     -36.647  41.166 -53.183  1.00  0.00     0.014 A 
BRANCH   4   9
HETATM    9  O   UNL     1     -35.204  38.365 -51.323  1.00  0.00    -0.346 OA
BRANCH   9  10
HETATM   10  C   UNL     1     -35.297  38.072 -49.923  1.00  0.00     0.214 C 
BRANCH  10  11
HETATM   11  C   UNL     1     -34.048  38.523 -49.193  1.00  0.00    -0.034 A 
HETATM   12  C   UNL     1     -33.699  37.906 -47.983  1.00  0.00     0.010 A 
HETATM   13  C   UNL     1     -32.545  38.290 -47.294  1.00  0.00     0.018 A 
HETATM   14  C   UNL     1     -31.716  39.296 -47.806  1.00  0.00     0.039 A 
HETATM   15  C   UNL     1     -32.050  39.904 -49.021  1.00  0.00     0.018 A 
HETATM   16  C   UNL     1     -33.204  39.517 -49.709  1.00  0.00     0.010 A 
BRANCH  14  17
HETATM   17  C   UNL     1     -30.504  39.677 -47.031  1.00  0.00     0.292 C 
HETATM   18  O   UNL     1     -30.529  39.992 -45.852  1.00  0.00    -0.259 OA
BRANCH  17  19
HETATM   19  O   UNL     1     -29.399  39.633 -47.817  1.00  0.00    -0.323 OA
HETATM   20  C   UNL     1     -28.169  39.649 -47.092  1.00  0.00     0.213 C 
ENDBRANCH  17  19
ENDBRANCH  14  17
ENDBRANCH  10  11
ENDBRANCH   9  10
ENDBRANCH   4   9
ENDBRANCH   1   3
BRANCH   2  21
HETATM   21  C   UNL     1     -32.547  39.952 -54.939  1.00  0.00     0.257 C 
HETATM   22  N   UNL     1     -32.075  39.147 -55.959  1.00  0.00    -0.344 N 
HETATM   23  C   UNL     1     -30.634  39.102 -56.223  1.00  0.00     0.152 C 
HETATM   24  C   UNL     1     -32.818  38.180 -56.778  1.00  0.00     0.152 C 
HETATM   25  C   UNL     1     -30.114  37.677 -56.009  1.00  0.00     0.187 C 
HETATM   26  O   UNL     1     -30.840  36.734 -56.820  1.00  0.00    -0.388 OA
HETATM   27  C   UNL     1     -32.250  36.774 -56.532  1.00  0.00     0.187 C 
HETATM   28  O   UNL     1     -31.800  40.723 -54.326  1.00  0.00    -0.267 OA
ENDBRANCH   2  21
BRANCH   2  29
HETATM   29  C   UNL     1     -34.973  39.996 -55.666  1.00  0.00     0.144 A 
HETATM   30  N   UNL     1     -35.935  39.157 -56.010  1.00  0.00    -0.228 NA
HETATM   31  C   UNL     1     -36.622  39.753 -57.038  1.00  0.00     0.086 A 
HETATM   32  C   UNL     1     -36.054  40.973 -57.369  1.00  0.00     0.062 A 
HETATM   33  C   UNL     1     -37.758  39.316 -57.734  1.00  0.00     0.034 A 
HETATM   34  N   UNL     1     -35.004  41.098 -56.499  1.00  0.00    -0.338 N 
HETATM   35  C   UNL     1     -36.547  41.807 -58.374  1.00  0.00     0.032 A 
HETATM   36  H   UNL     1     -34.390  41.900 -56.414  1.00  0.00     0.167 HD
HETATM   37  C   UNL     1     -37.682  41.357 -59.058  1.00  0.00     0.002 A 
HETATM   38  C   UNL     1     -38.281  40.134 -58.744  1.00  0.00     0.002 A 
ENDBRANCH   2  29
TORSDOF 8
ENDMDL
MODEL 9
REMARK VINA RESULT:      -7.5      3.510      6.416
REMARK  8 active torsions:
REMARK  status: ('A' for Active; 'I' for Inactive)
REMARK    1  A    between atoms: O_2  and  C_3 
REMARK    2  A    between atoms: C_3  and  C_4 
REMARK    3  A    between atoms: C_7  and  C_8 
REMARK    4  A    between atoms: C_8  and  O_9 
REMARK    5  A    between atoms: O_9  and  C_10 
REMARK    6  A    between atoms: C_11  and  C_12 
REMARK    7  A    between atoms: C_13  and  C_14 
REMARK    8  A    between atoms: C_13  and  C_22 
REMARK       I    between atoms: C_14  and  N_15 
ROOT
HETATM    1  C   UNL     1     -43.902  60.120 -51.045  1.00  0.00     0.035 C 
HETATM    2  C   UNL     1     -44.576  60.594 -52.113  1.00  0.00     0.079 C 
ENDROOT
BRANCH   1   3
HETATM    3  C   UNL     1     -42.534  59.576 -50.979  1.00  0.00    -0.002 A 
HETATM    4  C   UNL     1     -42.265  58.264 -51.392  1.00  0.00     0.079 A 
HETATM    5  C   UNL     1     -40.987  57.715 -51.233  1.00  0.00     0.037 A 
HETATM    6  C   UNL     1     -39.958  58.488 -50.699  1.00  0.00     0.003 A 
HETATM    7  C   UNL     1     -40.209  59.798 -50.300  1.00  0.00     0.001 A 
HETATM    8  C   UNL     1     -41.493  60.335 -50.426  1.00  0.00     0.014 A 
BRANCH   4   9
HETATM    9  O   UNL     1     -43.298  57.495 -51.860  1.00  0.00    -0.346 OA
BRANCH   9  10
HETATM   10  C   UNL     1     -43.536  56.333 -51.055  1.00  0.00     0.214 C 
BRANCH  10  11
HETATM   11  C   UNL     1     -42.631  55.192 -51.474  1.00  0.00    -0.034 A 
HETATM   12  C   UNL     1     -42.543  54.847 -52.830  1.00  0.00     0.010 A 
HETATM   13  C   UNL     1     -41.705  53.810 -53.249  1.00  0.00     0.018 A 
HETATM   14  C   UNL     1     -40.936  53.101 -52.319  1.00  0.00     0.039 A 
HETATM   15  C   UNL     1     -41.007  53.450 -50.965  1.00  0.00     0.018 A 
HETATM   16  C   UNL     1     -41.844  54.489 -50.549  1.00  0.00     0.010 A 
BRANCH  14  17
HETATM   17  C   UNL     1     -40.068  51.997 -52.812  1.00  0.00     0.292 C 
HETATM   18  O   UNL     1     -39.109  51.566 -52.195  1.00  0.00    -0.259 OA
BRANCH  17  19
HETATM   19  O   UNL     1     -40.490  51.563 -54.027  1.00  0.00    -0.323 OA
HETATM   20  C   UNL     1     -40.006  50.268 -54.383  1.00  0.00     0.213 C 
ENDBRANCH  17  19
ENDBRANCH  14  17
ENDBRANCH  10  11
ENDBRANCH   9  10
ENDBRANCH   4   9
ENDBRANCH   1   3
BRANCH   2  21
HETATM   21  C   UNL     1     -45.980  61.094 -51.892  1.00  0.00     0.257 C 
HETATM   22  N   UNL     1     -46.219  62.439 -51.681  1.00  0.00    -0.344 N 
HETATM   23  C   UNL     1     -47.588  62.887 -51.409  1.00  0.00     0.152 C 
HETATM   24  C   UNL     1     -45.244  63.531 -51.553  1.00  0.00     0.152 C 
HETATM   25  C   UNL     1     -47.653  63.530 -50.020  1.00  0.00     0.187 C 
HETATM   26  O   UNL     1     -46.702  64.604 -49.902  1.00  0.00    -0.388 OA
HETATM   27  C   UNL     1     -45.361  64.144 -50.150  1.00  0.00     0.187 C 
HETATM   28  O   UNL     1     -46.906  60.279 -51.975  1.00  0.00    -0.267 OA
ENDBRANCH   2  21
BRANCH   2  29
HETATM   29  C   UNL     1     -44.095  60.442 -53.453  1.00  0.00     0.144 A 
HETATM   30  N   UNL     1     -43.028  60.920 -54.070  1.00  0.00    -0.228 NA
HETATM   31  C   UNL     1     -43.006  60.342 -55.315  1.00  0.00     0.086 A 
HETATM   32  C   UNL     1     -44.103  59.514 -55.494  1.00  0.00     0.062 A 
HETATM   33  C   UNL     1     -42.067  60.465 -56.348  1.00  0.00     0.034 A 
HETATM   34  N   UNL     1     -44.785  59.605 -54.310  1.00  0.00    -0.338 N 
HETATM   35  C   UNL     1     -44.339  58.786 -56.661  1.00  0.00     0.032 A 
HETATM   36  H   UNL     1     -45.619  59.087 -54.058  1.00  0.00     0.167 HD
HETATM   37  C   UNL     1     -43.391  58.919 -57.682  1.00  0.00     0.002 A 
HETATM   38  C   UNL     1     -42.271  59.742 -57.530  1.00  0.00     0.002 A 
ENDBRANCH   2  29
TORSDOF 8
ENDMDL
MODEL 10
REMARK VINA RESULT:      -7.4      3.644      7.745
REMARK  8 active torsions:
REMARK  status: ('A' for Active; 'I' for Inactive)
REMARK    1  A    between atoms: O_2  and  C_3 
REMARK    2  A    between atoms: C_3  and  C_4 
REMARK    3  A    between atoms: C_7  and  C_8 
REMARK    4  A    between atoms: C_8  and  O_9 
REMARK    5  A    between atoms: O_9  and  C_10 
REMARK    6  A    between atoms: C_11  and  C_12 
REMARK    7  A    between atoms: C_13  and  C_14 
REMARK    8  A    between atoms: C_13  and  C_22 
REMARK       I    between atoms: C_14  and  N_15 
ROOT
HETATM    1  C   UNL     1     -41.760  58.759 -54.959  1.00  0.00     0.035 C 
HETATM    2  C   UNL     1     -42.205  57.514 -55.225  1.00  0.00     0.079 C 
ENDROOT
BRANCH   1   3
HETATM    3  C   UNL     1     -42.126  60.031 -55.606  1.00  0.00    -0.002 A 
HETATM    4  C   UNL     1     -42.950  60.957 -54.953  1.00  0.00     0.079 A 
HETATM    5  C   UNL     1     -43.380  62.117 -55.608  1.00  0.00     0.037 A 
HETATM    6  C   UNL     1     -42.954  62.380 -56.909  1.00  0.00     0.003 A 
HETATM    7  C   UNL     1     -42.122  61.475 -57.563  1.00  0.00     0.001 A 
HETATM    8  C   UNL     1     -41.721  60.301 -56.921  1.00  0.00     0.014 A 
BRANCH   4   9
HETATM    9  O   UNL     1     -43.411  60.659 -53.696  1.00  0.00    -0.346 OA
BRANCH   9  10
HETATM   10  C   UNL     1     -44.252  61.685 -53.154  1.00  0.00     0.214 C 
BRANCH  10  11
HETATM   11  C   UNL     1     -44.580  61.401 -51.702  1.00  0.00    -0.034 A 
HETATM   12  C   UNL     1     -44.093  62.262 -50.707  1.00  0.00     0.010 A 
HETATM   13  C   UNL     1     -44.391  62.035 -49.360  1.00  0.00     0.018 A 
HETATM   14  C   UNL     1     -45.184  60.945 -48.984  1.00  0.00     0.039 A 
HETATM   15  C   UNL     1     -45.686  60.091 -49.973  1.00  0.00     0.018 A 
HETATM   16  C   UNL     1     -45.389  60.321 -51.319  1.00  0.00     0.010 A 
BRANCH  14  17
HETATM   17  C   UNL     1     -45.463  60.739 -47.537  1.00  0.00     0.292 C 
HETATM   18  O   UNL     1     -46.241  59.901 -47.112  1.00  0.00    -0.259 OA
BRANCH  17  19
HETATM   19  O   UNL     1     -44.748  61.611 -46.782  1.00  0.00    -0.323 OA
HETATM   20  C   UNL     1     -45.497  62.223 -45.732  1.00  0.00     0.213 C 
ENDBRANCH  17  19
ENDBRANCH  14  17
ENDBRANCH  10  11
ENDBRANCH   9  10
ENDBRANCH   4   9
ENDBRANCH   1   3
BRANCH   2  21
HETATM   21  C   UNL     1     -41.654  56.380 -54.399  1.00  0.00     0.257 C 
HETATM   22  N   UNL     1     -42.294  55.982 -53.240  1.00  0.00    -0.344 N 
HETATM   23  C   UNL     1     -41.701  54.917 -52.426  1.00  0.00     0.152 C 
HETATM   24  C   UNL     1     -43.472  56.579 -52.596  1.00  0.00     0.152 C 
HETATM   25  C   UNL     1     -41.358  55.462 -51.036  1.00  0.00     0.187 C 
HETATM   26  O   UNL     1     -42.517  56.039 -50.406  1.00  0.00    -0.388 OA
HETATM   27  C   UNL     1     -43.075  57.097 -51.206  1.00  0.00     0.187 C 
HETATM   28  O   UNL     1     -40.660  55.781 -54.826  1.00  0.00    -0.267 OA
ENDBRANCH   2  21
BRANCH   2  29
HETATM   29  C   UNL     1     -42.999  57.212 -56.377  1.00  0.00     0.144 A 
HETATM   30  N   UNL     1     -44.181  57.650 -56.777  1.00  0.00    -0.228 NA
HETATM   31  C   UNL     1     -44.394  57.112 -58.022  1.00  0.00     0.086 A 
HETATM   32  C   UNL     1     -43.340  56.291 -58.392  1.00  0.00     0.062 A 
HETATM   33  C   UNL     1     -45.464  57.294 -58.909  1.00  0.00     0.034 A 
HETATM   34  N   UNL     1     -42.479  56.357 -57.330  1.00  0.00    -0.338 N 
HETATM   35  C   UNL     1     -43.280  55.615 -59.612  1.00  0.00     0.032 A 
HETATM   36  H   UNL     1     -41.567  55.920 -57.272  1.00  0.00     0.167 HD
HETATM   37  C   UNL     1     -44.355  55.809 -60.487  1.00  0.00     0.002 A 
HETATM   38  C   UNL     1     -45.429  56.636 -60.146  1.00  0.00     0.002 A 
ENDBRANCH   2  29
TORSDOF 8
ENDMDL
