MODEL 1
REMARK VINA RESULT:      -8.5      0.000      0.000
REMARK  4 active torsions:
REMARK  status: ('A' for Active; 'I' for Inactive)
REMARK    1  A    between atoms: C_7  and  C_8 
REMARK    2  A    between atoms: C_8  and  N_9 
REMARK    3  A    between atoms: N_9  and  C_10 
REMARK    4  A    between atoms: N_16  and  C_17 
ROOT
HETATM    1  C   UNL     1     -42.125  57.029 -50.908  1.00  0.00     0.141 A 
HETATM    2  N   UNL     1     -43.429  56.679 -51.040  1.00  0.00    -0.224 NA
HETATM    3  C   UNL     1     -44.142  57.204 -52.057  1.00  0.00     0.237 A 
HETATM    4  N   UNL     1     -43.732  58.075 -52.985  1.00  0.00    -0.221 NA
HETATM    5  C   UNL     1     -42.442  58.432 -52.822  1.00  0.00     0.186 A 
HETATM    6  C   UNL     1     -41.604  57.955 -51.824  1.00  0.00     0.077 A 
HETATM    7  N   UNL     1     -41.685  59.318 -53.584  1.00  0.00    -0.041 N 
HETATM    8  N   UNL     1     -40.398  59.415 -53.104  1.00  0.00    -0.162 NA
HETATM    9  C   UNL     1     -40.378  58.602 -52.049  1.00  0.00     0.159 A 
ENDROOT
BRANCH   1  10
HETATM   10  N   UNL     1     -41.359  56.505 -49.876  1.00  0.00    -0.367 N 
HETATM   11  H   UNL     1     -40.394  56.807 -49.868  1.00  0.00     0.161 HD
BRANCH  10  12
HETATM   12  C   UNL     1     -41.541  55.101 -49.518  1.00  0.00     0.199 C 
BRANCH  12  13
HETATM   13  C   UNL     1     -41.081  54.114 -50.542  1.00  0.00     0.123 A 
HETATM   14  N   UNL     1     -41.096  54.416 -51.880  1.00  0.00    -0.341 N 
HETATM   15  C   UNL     1     -40.608  53.341 -52.574  1.00  0.00     0.063 A 
HETATM   16  H   UNL     1     -41.434  55.292 -52.259  1.00  0.00     0.167 HD
HETATM   17  C   UNL     1     -40.322  52.399 -51.591  1.00  0.00     0.091 A 
HETATM   18  C   UNL     1     -40.405  53.120 -53.936  1.00  0.00     0.032 A 
HETATM   19  C   UNL     1     -39.805  51.141 -51.958  1.00  0.00    -0.031 A 
HETATM   20  N   UNL     1     -40.614  52.897 -50.340  1.00  0.00    -0.231 NA
HETATM   21  C   UNL     1     -39.484  50.065 -50.962  1.00  0.00     0.050 C 
HETATM   22  C   UNL     1     -39.595  50.905 -53.332  1.00  0.00     0.009 A 
HETATM   23  C   UNL     1     -39.887  51.874 -54.296  1.00  0.00     0.003 A 
ENDBRANCH  12  13
ENDBRANCH  10  12
ENDBRANCH   1  10
BRANCH   7  24
HETATM   24  C   UNL     1     -42.109  60.071 -54.735  1.00  0.00     0.750 A 
HETATM   25  N   UNL     1     -41.734  59.655 -55.964  1.00  0.00    -0.073 NA
HETATM   26  C   UNL     1     -42.155  60.387 -57.014  1.00  0.00     0.138 A 
HETATM   27  C   UNL     1     -42.930  61.514 -56.890  1.00  0.00     0.040 A 
HETATM   28  C   UNL     1     -43.264  61.864 -55.607  1.00  0.00     0.138 A 
HETATM   29  N   UNL     1     -42.873  61.170 -54.523  1.00  0.00    -0.073 NA
ENDBRANCH   7  24
TORSDOF 4
ENDMDL
MODEL 2
REMARK VINA RESULT:      -8.5      2.743      7.773
REMARK  4 active torsions:
REMARK  status: ('A' for Active; 'I' for Inactive)
REMARK    1  A    between atoms: C_7  and  C_8 
REMARK    2  A    between atoms: C_8  and  N_9 
REMARK    3  A    between atoms: N_9  and  C_10 
REMARK    4  A    between atoms: N_16  and  C_17 
ROOT
HETATM    1  C   UNL     1     -42.631  56.382 -52.764  1.00  0.00     0.141 A 
HETATM    2  N   UNL     1     -43.383  55.978 -51.710  1.00  0.00    -0.224 NA
HETATM    3  C   UNL     1     -43.217  54.726 -51.235  1.00  0.00     0.237 A 
HETATM    4  N   UNL     1     -42.391  53.778 -51.690  1.00  0.00    -0.221 NA
HETATM    5  C   UNL     1     -41.671  54.189 -52.754  1.00  0.00     0.186 A 
HETATM    6  C   UNL     1     -41.745  55.450 -53.326  1.00  0.00     0.077 A 
HETATM    7  N   UNL     1     -40.728  53.475 -53.490  1.00  0.00    -0.041 N 
HETATM    8  N   UNL     1     -40.202  54.245 -54.505  1.00  0.00    -0.162 NA
HETATM    9  C   UNL     1     -40.832  55.413 -54.392  1.00  0.00     0.159 A 
ENDROOT
BRANCH   1  10
HETATM   10  N   UNL     1     -42.772  57.664 -53.276  1.00  0.00    -0.367 N 
HETATM   11  H   UNL     1     -42.638  58.407 -52.602  1.00  0.00     0.161 HD
BRANCH  10  12
HETATM   12  C   UNL     1     -43.851  57.918 -54.228  1.00  0.00     0.199 C 
BRANCH  12  13
HETATM   13  C   UNL     1     -43.505  57.690 -55.664  1.00  0.00     0.123 A 
HETATM   14  N   UNL     1     -43.672  56.460 -56.250  1.00  0.00    -0.341 N 
HETATM   15  C   UNL     1     -43.293  56.550 -57.562  1.00  0.00     0.063 A 
HETATM   16  H   UNL     1     -44.005  55.640 -55.759  1.00  0.00     0.167 HD
HETATM   17  C   UNL     1     -42.888  57.873 -57.713  1.00  0.00     0.091 A 
HETATM   18  C   UNL     1     -43.267  55.612 -58.595  1.00  0.00     0.032 A 
HETATM   19  C   UNL     1     -42.414  58.320 -58.963  1.00  0.00    -0.031 A 
HETATM   20  N   UNL     1     -43.033  58.564 -56.531  1.00  0.00    -0.231 NA
HETATM   21  C   UNL     1     -41.946  59.724 -59.206  1.00  0.00     0.050 C 
HETATM   22  C   UNL     1     -42.384  57.382 -60.016  1.00  0.00     0.009 A 
HETATM   23  C   UNL     1     -42.802  56.061 -59.834  1.00  0.00     0.003 A 
ENDBRANCH  12  13
ENDBRANCH  10  12
ENDBRANCH   1  10
BRANCH   7  24
HETATM   24  C   UNL     1     -40.299  52.117 -53.285  1.00  0.00     0.750 A 
HETATM   25  N   UNL     1     -39.795  51.763 -52.083  1.00  0.00    -0.073 NA
HETATM   26  C   UNL     1     -39.408  50.482 -51.934  1.00  0.00     0.138 A 
HETATM   27  C   UNL     1     -39.500  49.541 -52.930  1.00  0.00     0.040 A 
HETATM   28  C   UNL     1     -40.023  49.987 -54.118  1.00  0.00     0.138 A 
HETATM   29  N   UNL     1     -40.426  51.254 -54.322  1.00  0.00    -0.073 NA
ENDBRANCH   7  24
TORSDOF 4
ENDMDL
MODEL 3
REMARK VINA RESULT:      -8.4      2.830      7.716
REMARK  4 active torsions:
REMARK  status: ('A' for Active; 'I' for Inactive)
REMARK    1  A    between atoms: C_7  and  C_8 
REMARK    2  A    between atoms: C_8  and  N_9 
REMARK    3  A    between atoms: N_9  and  C_10 
REMARK    4  A    between atoms: N_16  and  C_17 
ROOT
HETATM    1  C   UNL     1     -42.378  56.498 -52.951  1.00  0.00     0.141 A 
HETATM    2  N   UNL     1     -43.131  56.163 -51.873  1.00  0.00    -0.224 NA
HETATM    3  C   UNL     1     -43.013  54.921 -51.360  1.00  0.00     0.237 A 
HETATM    4  N   UNL     1     -42.239  53.921 -51.796  1.00  0.00    -0.221 NA
HETATM    5  C   UNL     1     -41.519  54.265 -52.883  1.00  0.00     0.186 A 
HETATM    6  C   UNL     1     -41.545  55.509 -53.495  1.00  0.00     0.077 A 
HETATM    7  N   UNL     1     -40.622  53.485 -53.609  1.00  0.00    -0.041 N 
HETATM    8  N   UNL     1     -40.078  54.197 -54.656  1.00  0.00    -0.162 NA
HETATM    9  C   UNL     1     -40.652  55.395 -54.573  1.00  0.00     0.159 A 
ENDROOT
BRANCH   1  10
HETATM   10  N   UNL     1     -42.470  57.768 -53.502  1.00  0.00    -0.367 N 
HETATM   11  H   UNL     1     -42.265  58.524 -52.862  1.00  0.00     0.161 HD
BRANCH  10  12
HETATM   12  C   UNL     1     -43.573  58.052 -54.417  1.00  0.00     0.199 C 
BRANCH  12  13
HETATM   13  C   UNL     1     -43.280  57.824 -55.865  1.00  0.00     0.123 A 
HETATM   14  N   UNL     1     -42.566  58.737 -56.599  1.00  0.00    -0.341 N 
HETATM   15  C   UNL     1     -42.438  58.262 -57.877  1.00  0.00     0.063 A 
HETATM   16  H   UNL     1     -42.222  59.614 -56.230  1.00  0.00     0.167 HD
HETATM   17  C   UNL     1     -43.115  57.046 -57.861  1.00  0.00     0.091 A 
HETATM   18  C   UNL     1     -41.811  58.781 -59.010  1.00  0.00     0.032 A 
HETATM   19  C   UNL     1     -43.197  56.277 -59.038  1.00  0.00    -0.031 A 
HETATM   20  N   UNL     1     -43.623  56.789 -56.606  1.00  0.00    -0.231 NA
HETATM   21  C   UNL     1     -43.918  54.963 -59.109  1.00  0.00     0.050 C 
HETATM   22  C   UNL     1     -42.566  56.789 -60.191  1.00  0.00     0.009 A 
HETATM   23  C   UNL     1     -41.889  58.012 -60.173  1.00  0.00     0.003 A 
ENDBRANCH  12  13
ENDBRANCH  10  12
ENDBRANCH   1  10
BRANCH   7  24
HETATM   24  C   UNL     1     -40.251  52.116 -53.367  1.00  0.00     0.750 A 
HETATM   25  N   UNL     1     -39.761  51.775 -52.155  1.00  0.00    -0.073 NA
HETATM   26  C   UNL     1     -39.429  50.483 -51.970  1.00  0.00     0.138 A 
HETATM   27  C   UNL     1     -39.563  49.519 -52.940  1.00  0.00     0.040 A 
HETATM   28  C   UNL     1     -40.068  49.953 -54.139  1.00  0.00     0.138 A 
HETATM   29  N   UNL     1     -40.416  51.230 -54.378  1.00  0.00    -0.073 NA
ENDBRANCH   7  24
TORSDOF 4
ENDMDL
MODEL 4
REMARK VINA RESULT:      -8.4      2.865      4.085
REMARK  4 active torsions:
REMARK  status: ('A' for Active; 'I' for Inactive)
REMARK    1  A    between atoms: C_7  and  C_8 
REMARK    2  A    between atoms: C_8  and  N_9 
REMARK    3  A    between atoms: N_9  and  C_10 
REMARK    4  A    between atoms: N_16  and  C_17 
ROOT
HETATM    1  C   UNL     1     -42.019  57.396 -51.945  1.00  0.00     0.141 A 
HETATM    2  N   UNL     1     -41.057  58.349 -52.036  1.00  0.00    -0.224 NA
HETATM    3  C   UNL     1     -41.352  59.608 -51.654  1.00  0.00     0.237 A 
HETATM    4  N   UNL     1     -42.518  60.077 -51.198  1.00  0.00    -0.221 NA
HETATM    5  C   UNL     1     -43.469  59.122 -51.139  1.00  0.00     0.186 A 
HETATM    6  C   UNL     1     -43.286  57.794 -51.492  1.00  0.00     0.077 A 
HETATM    7  N   UNL     1     -44.794  59.244 -50.727  1.00  0.00    -0.041 N 
HETATM    8  N   UNL     1     -45.453  58.036 -50.806  1.00  0.00    -0.162 NA
HETATM    9  C   UNL     1     -44.536  57.191 -51.274  1.00  0.00     0.159 A 
ENDROOT
BRANCH   1  10
HETATM   10  N   UNL     1     -41.749  56.089 -52.324  1.00  0.00    -0.367 N 
HETATM   11  H   UNL     1     -42.492  55.634 -52.837  1.00  0.00     0.161 HD
BRANCH  10  12
HETATM   12  C   UNL     1     -41.069  55.215 -51.371  1.00  0.00     0.199 C 
BRANCH  12  13
HETATM   13  C   UNL     1     -40.707  53.860 -51.889  1.00  0.00     0.123 A 
HETATM   14  N   UNL     1     -40.702  53.591 -53.235  1.00  0.00    -0.341 N 
HETATM   15  C   UNL     1     -40.319  52.288 -53.415  1.00  0.00     0.063 A 
HETATM   16  H   UNL     1     -40.962  54.261 -53.947  1.00  0.00     0.167 HD
HETATM   17  C   UNL     1     -40.114  51.809 -52.125  1.00  0.00     0.091 A 
HETATM   18  C   UNL     1     -40.146  51.514 -54.563  1.00  0.00     0.032 A 
HETATM   19  C   UNL     1     -39.717  50.471 -51.932  1.00  0.00    -0.031 A 
HETATM   20  N   UNL     1     -40.352  52.797 -51.195  1.00  0.00    -0.231 NA
HETATM   21  C   UNL     1     -39.488  49.872 -50.576  1.00  0.00     0.050 C 
HETATM   22  C   UNL     1     -39.537  49.677 -53.084  1.00  0.00     0.009 A 
HETATM   23  C   UNL     1     -39.745  50.190 -54.368  1.00  0.00     0.003 A 
ENDBRANCH  12  13
ENDBRANCH  10  12
ENDBRANCH   1  10
BRANCH   7  24
HETATM   24  C   UNL     1     -45.466  60.430 -50.265  1.00  0.00     0.750 A 
HETATM   25  N   UNL     1     -45.592  60.635 -48.936  1.00  0.00    -0.073 NA
HETATM   26  C   UNL     1     -46.225  61.758 -48.547  1.00  0.00     0.138 A 
HETATM   27  C   UNL     1     -46.737  62.683 -49.424  1.00  0.00     0.040 A 
HETATM   28  C   UNL     1     -46.564  62.395 -50.754  1.00  0.00     0.138 A 
HETATM   29  N   UNL     1     -45.940  61.289 -51.199  1.00  0.00    -0.073 NA
ENDBRANCH   7  24
TORSDOF 4
ENDMDL
MODEL 5
REMARK VINA RESULT:      -8.3      1.118      2.455
REMARK  4 active torsions:
REMARK  status: ('A' for Active; 'I' for Inactive)
REMARK    1  A    between atoms: C_7  and  C_8 
REMARK    2  A    between atoms: C_8  and  N_9 
REMARK    3  A    between atoms: N_9  and  C_10 
REMARK    4  A    between atoms: N_16  and  C_17 
ROOT
HETATM    1  C   UNL     1     -41.696  57.704 -51.380  1.00  0.00     0.141 A 
HETATM    2  N   UNL     1     -40.480  58.284 -51.218  1.00  0.00    -0.224 NA
HETATM    3  C   UNL     1     -39.980  59.034 -52.222  1.00  0.00     0.237 A 
HETATM    4  N   UNL     1     -40.528  59.280 -53.416  1.00  0.00    -0.221 NA
HETATM    5  C   UNL     1     -41.723  58.674 -53.568  1.00  0.00     0.186 A 
HETATM    6  C   UNL     1     -42.346  57.889 -52.610  1.00  0.00     0.077 A 
HETATM    7  N   UNL     1     -42.571  58.697 -54.673  1.00  0.00    -0.041 N 
HETATM    8  N   UNL     1     -43.709  57.955 -54.443  1.00  0.00    -0.162 NA
HETATM    9  C   UNL     1     -43.546  57.476 -53.211  1.00  0.00     0.159 A 
ENDROOT
BRANCH   1  10
HETATM   10  N   UNL     1     -42.244  56.930 -50.367  1.00  0.00    -0.367 N 
HETATM   11  H   UNL     1     -42.719  57.453 -49.644  1.00  0.00     0.161 HD
BRANCH  10  12
HETATM   12  C   UNL     1     -41.474  55.794 -49.865  1.00  0.00     0.199 C 
BRANCH  12  13
HETATM   13  C   UNL     1     -41.141  54.748 -50.880  1.00  0.00     0.123 A 
HETATM   14  N   UNL     1     -40.239  53.751 -50.604  1.00  0.00    -0.341 N 
HETATM   15  C   UNL     1     -40.145  52.935 -51.700  1.00  0.00     0.063 A 
HETATM   16  H   UNL     1     -39.732  53.671 -49.732  1.00  0.00     0.167 HD
HETATM   17  C   UNL     1     -41.015  53.503 -52.626  1.00  0.00     0.091 A 
HETATM   18  C   UNL     1     -39.392  51.789 -51.952  1.00  0.00     0.032 A 
HETATM   19  C   UNL     1     -41.161  52.917 -53.899  1.00  0.00    -0.031 A 
HETATM   20  N   UNL     1     -41.627  54.619 -52.098  1.00  0.00    -0.231 NA
HETATM   21  C   UNL     1     -42.066  53.473 -54.958  1.00  0.00     0.050 C 
HETATM   22  C   UNL     1     -40.406  51.756 -54.166  1.00  0.00     0.009 A 
HETATM   23  C   UNL     1     -39.544  51.206 -53.213  1.00  0.00     0.003 A 
ENDBRANCH  12  13
ENDBRANCH  10  12
ENDBRANCH   1  10
BRANCH   7  24
HETATM   24  C   UNL     1     -42.366  59.378 -55.924  1.00  0.00     0.750 A 
HETATM   25  N   UNL     1     -42.086  58.650 -57.027  1.00  0.00    -0.073 NA
HETATM   26  C   UNL     1     -41.903  59.327 -58.177  1.00  0.00     0.138 A 
HETATM   27  C   UNL     1     -41.988  60.695 -58.274  1.00  0.00     0.040 A 
HETATM   28  C   UNL     1     -42.276  61.353 -57.106  1.00  0.00     0.138 A 
HETATM   29  N   UNL     1     -42.468  60.729 -55.930  1.00  0.00    -0.073 NA
ENDBRANCH   7  24
TORSDOF 4
ENDMDL
MODEL 6
REMARK VINA RESULT:      -8.2      2.822      4.554
REMARK  4 active torsions:
REMARK  status: ('A' for Active; 'I' for Inactive)
REMARK    1  A    between atoms: C_7  and  C_8 
REMARK    2  A    between atoms: C_8  and  N_9 
REMARK    3  A    between atoms: N_9  and  C_10 
REMARK    4  A    between atoms: N_16  and  C_17 
ROOT
HETATM    1  C   UNL     1     -42.991  56.572 -56.850  1.00  0.00     0.141 A 
HETATM    2  N   UNL     1     -43.107  55.978 -58.064  1.00  0.00    -0.224 NA
HETATM    3  C   UNL     1     -42.740  56.668 -59.162  1.00  0.00     0.237 A 
HETATM    4  N   UNL     1     -42.275  57.920 -59.229  1.00  0.00    -0.221 NA
HETATM    5  C   UNL     1     -42.191  58.504 -58.016  1.00  0.00     0.186 A 
HETATM    6  C   UNL     1     -42.528  57.896 -56.816  1.00  0.00     0.077 A 
HETATM    7  N   UNL     1     -41.764  59.792 -57.703  1.00  0.00    -0.041 N 
HETATM    8  N   UNL     1     -41.817  60.017 -56.344  1.00  0.00    -0.162 NA
HETATM    9  C   UNL     1     -42.285  58.877 -55.840  1.00  0.00     0.159 A 
ENDROOT
BRANCH   1  10
HETATM   10  N   UNL     1     -43.355  55.890 -55.697  1.00  0.00    -0.367 N 
HETATM   11  H   UNL     1     -43.065  56.331 -54.834  1.00  0.00     0.161 HD
BRANCH  10  12
HETATM   12  C   UNL     1     -43.239  54.434 -55.684  1.00  0.00     0.199 C 
BRANCH  12  13
HETATM   13  C   UNL     1     -42.291  53.875 -54.673  1.00  0.00     0.123 A 
HETATM   14  N   UNL     1     -42.072  54.509 -53.476  1.00  0.00    -0.341 N 
HETATM   15  C   UNL     1     -41.177  53.769 -52.750  1.00  0.00     0.063 A 
HETATM   16  H   UNL     1     -42.502  55.387 -53.213  1.00  0.00     0.167 HD
HETATM   17  C   UNL     1     -40.876  52.689 -53.575  1.00  0.00     0.091 A 
HETATM   18  C   UNL     1     -40.621  53.951 -51.484  1.00  0.00     0.032 A 
HETATM   19  C   UNL     1     -39.957  51.713 -53.140  1.00  0.00    -0.031 A 
HETATM   20  N   UNL     1     -41.579  52.769 -54.757  1.00  0.00    -0.231 NA
HETATM   21  C   UNL     1     -39.567  50.528 -53.973  1.00  0.00     0.050 C 
HETATM   22  C   UNL     1     -39.388  51.885 -51.861  1.00  0.00     0.009 A 
HETATM   23  C   UNL     1     -39.716  52.978 -51.054  1.00  0.00     0.003 A 
ENDBRANCH  12  13
ENDBRANCH  10  12
ENDBRANCH   1  10
BRANCH   7  24
HETATM   24  C   UNL     1     -41.310  60.813 -58.610  1.00  0.00     0.750 A 
HETATM   25  N   UNL     1     -40.345  61.667 -58.204  1.00  0.00    -0.073 NA
HETATM   26  C   UNL     1     -39.948  62.605 -59.084  1.00  0.00     0.138 A 
HETATM   27  C   UNL     1     -40.471  62.729 -60.349  1.00  0.00     0.040 A 
HETATM   28  C   UNL     1     -41.445  61.820 -60.677  1.00  0.00     0.138 A 
HETATM   29  N   UNL     1     -41.879  60.863 -59.838  1.00  0.00    -0.073 NA
ENDBRANCH   7  24
TORSDOF 4
ENDMDL
MODEL 7
REMARK VINA RESULT:      -8.0      2.862      3.525
REMARK  4 active torsions:
REMARK  status: ('A' for Active; 'I' for Inactive)
REMARK    1  A    between atoms: C_7  and  C_8 
REMARK    2  A    between atoms: C_8  and  N_9 
REMARK    3  A    between atoms: N_9  and  C_10 
REMARK    4  A    between atoms: N_16  and  C_17 
ROOT
HETATM    1  C   UNL     1     -42.273  57.082 -52.323  1.00  0.00     0.141 A 
HETATM    2  N   UNL     1     -43.552  56.944 -52.754  1.00  0.00    -0.224 NA
HETATM    3  C   UNL     1     -44.442  57.916 -52.464  1.00  0.00     0.237 A 
HETATM    4  N   UNL     1     -44.238  59.036 -51.763  1.00  0.00    -0.221 NA
HETATM    5  C   UNL     1     -42.968  59.142 -51.321  1.00  0.00     0.186 A 
HETATM    6  C   UNL     1     -41.962  58.218 -51.562  1.00  0.00     0.077 A 
HETATM    7  N   UNL     1     -42.398  60.159 -50.559  1.00  0.00    -0.041 N 
HETATM    8  N   UNL     1     -41.066  59.909 -50.312  1.00  0.00    -0.162 NA
HETATM    9  C   UNL     1     -40.833  58.743 -50.911  1.00  0.00     0.159 A 
ENDROOT
BRANCH   1  10
HETATM   10  N   UNL     1     -41.329  56.105 -52.607  1.00  0.00    -0.367 N 
HETATM   11  H   UNL     1     -41.422  55.677 -53.518  1.00  0.00     0.161 HD
BRANCH  10  12
HETATM   12  C   UNL     1     -40.959  55.168 -51.549  1.00  0.00     0.199 C 
BRANCH  12  13
HETATM   13  C   UNL     1     -40.612  53.788 -52.008  1.00  0.00     0.123 A 
HETATM   14  N   UNL     1     -40.576  53.469 -53.342  1.00  0.00    -0.341 N 
HETATM   15  C   UNL     1     -40.217  52.153 -53.465  1.00  0.00     0.063 A 
HETATM   16  H   UNL     1     -40.801  54.118 -54.086  1.00  0.00     0.167 HD
HETATM   17  C   UNL     1     -40.058  51.717 -52.153  1.00  0.00     0.091 A 
HETATM   18  C   UNL     1     -40.029  51.334 -54.578  1.00  0.00     0.032 A 
HETATM   19  C   UNL     1     -39.696  50.379 -51.901  1.00  0.00    -0.031 A 
HETATM   20  N   UNL     1     -40.300  52.744 -51.266  1.00  0.00    -0.231 NA
HETATM   21  C   UNL     1     -39.519  49.826 -50.517  1.00  0.00     0.050 C 
HETATM   22  C   UNL     1     -39.502  49.540 -53.018  1.00  0.00     0.009 A 
HETATM   23  C   UNL     1     -39.663  50.010 -54.324  1.00  0.00     0.003 A 
ENDBRANCH  12  13
ENDBRANCH  10  12
ENDBRANCH   1  10
BRANCH   7  24
HETATM   24  C   UNL     1     -43.040  61.345 -50.056  1.00  0.00     0.750 A 
HETATM   25  N   UNL     1     -42.570  62.554 -50.435  1.00  0.00    -0.073 NA
HETATM   26  C   UNL     1     -43.200  63.637 -49.943  1.00  0.00     0.138 A 
HETATM   27  C   UNL     1     -44.276  63.568 -49.092  1.00  0.00     0.040 A 
HETATM   28  C   UNL     1     -44.686  62.302 -48.760  1.00  0.00     0.138 A 
HETATM   29  N   UNL     1     -44.094  61.186 -49.221  1.00  0.00    -0.073 NA
ENDBRANCH   7  24
TORSDOF 4
ENDMDL
MODEL 8
REMARK VINA RESULT:      -8.0      3.837      5.626
REMARK  4 active torsions:
REMARK  status: ('A' for Active; 'I' for Inactive)
REMARK    1  A    between atoms: C_7  and  C_8 
REMARK    2  A    between atoms: C_8  and  N_9 
REMARK    3  A    between atoms: N_9  and  C_10 
REMARK    4  A    between atoms: N_16  and  C_17 
ROOT
HETATM    1  C   UNL     1     -43.367  59.576 -52.473  1.00  0.00     0.141 A 
HETATM    2  N   UNL     1     -42.631  60.715 -52.488  1.00  0.00    -0.224 NA
HETATM    3  C   UNL     1     -42.850  61.643 -51.534  1.00  0.00     0.237 A 
HETATM    4  N   UNL     1     -43.746  61.606 -50.542  1.00  0.00    -0.221 NA
HETATM    5  C   UNL     1     -44.486  60.478 -50.559  1.00  0.00     0.186 A 
HETATM    6  C   UNL     1     -44.349  59.450 -51.478  1.00  0.00     0.077 A 
HETATM    7  N   UNL     1     -45.511  60.103 -49.694  1.00  0.00    -0.041 N 
HETATM    8  N   UNL     1     -46.024  58.870 -50.035  1.00  0.00    -0.162 NA
HETATM    9  C   UNL     1     -45.322  58.507 -51.107  1.00  0.00     0.159 A 
ENDROOT
BRANCH   1  10
HETATM   10  N   UNL     1     -43.165  58.597 -53.436  1.00  0.00    -0.367 N 
HETATM   11  H   UNL     1     -43.768  57.790 -53.353  1.00  0.00     0.161 HD
BRANCH  10  12
HETATM   12  C   UNL     1     -41.794  58.274 -53.822  1.00  0.00     0.199 C 
BRANCH  12  13
HETATM   13  C   UNL     1     -41.413  56.834 -53.690  1.00  0.00     0.123 A 
HETATM   14  N   UNL     1     -41.070  56.085 -54.788  1.00  0.00    -0.341 N 
HETATM   15  C   UNL     1     -40.756  54.820 -54.368  1.00  0.00     0.063 A 
HETATM   16  H   UNL     1     -41.076  56.436 -55.737  1.00  0.00     0.167 HD
HETATM   17  C   UNL     1     -40.943  54.859 -52.990  1.00  0.00     0.091 A 
HETATM   18  C   UNL     1     -40.343  53.681 -55.059  1.00  0.00     0.032 A 
HETATM   19  C   UNL     1     -40.718  53.699 -52.222  1.00  0.00    -0.031 A 
HETATM   20  N   UNL     1     -41.343  56.114 -52.588  1.00  0.00    -0.231 NA
HETATM   21  C   UNL     1     -40.909  53.653 -50.734  1.00  0.00     0.050 C 
HETATM   22  C   UNL     1     -40.299  52.540 -52.908  1.00  0.00     0.009 A 
HETATM   23  C   UNL     1     -40.115  52.535 -54.293  1.00  0.00     0.003 A 
ENDBRANCH  12  13
ENDBRANCH  10  12
ENDBRANCH   1  10
BRANCH   7  24
HETATM   24  C   UNL     1     -46.027  60.839 -48.570  1.00  0.00     0.750 A 
HETATM   25  N   UNL     1     -45.918  60.307 -47.333  1.00  0.00    -0.073 NA
HETATM   26  C   UNL     1     -46.412  61.030 -46.310  1.00  0.00     0.138 A 
HETATM   27  C   UNL     1     -47.009  62.257 -46.467  1.00  0.00     0.040 A 
HETATM   28  C   UNL     1     -47.078  62.721 -47.756  1.00  0.00     0.138 A 
HETATM   29  N   UNL     1     -46.601  62.042 -48.815  1.00  0.00    -0.073 NA
ENDBRANCH   7  24
TORSDOF 4
ENDMDL
MODEL 9
REMARK VINA RESULT:      -7.9      3.640      5.239
REMARK  4 active torsions:
REMARK  status: ('A' for Active; 'I' for Inactive)
REMARK    1  A    between atoms: C_7  and  C_8 
REMARK    2  A    between atoms: C_8  and  N_9 
REMARK    3  A    between atoms: N_9  and  C_10 
REMARK    4  A    between atoms: N_16  and  C_17 
ROOT
HETATM    1  C   UNL     1     -43.012  56.201 -56.836  1.00  0.00     0.141 A 
HETATM    2  N   UNL     1     -42.719  57.198 -55.963  1.00  0.00    -0.224 NA
HETATM    3  C   UNL     1     -42.615  58.459 -56.430  1.00  0.00     0.237 A 
HETATM    4  N   UNL     1     -42.748  58.883 -57.691  1.00  0.00    -0.221 NA
HETATM    5  C   UNL     1     -43.013  57.875 -58.547  1.00  0.00     0.186 A 
HETATM    6  C   UNL     1     -43.153  56.542 -58.189  1.00  0.00     0.077 A 
HETATM    7  N   UNL     1     -43.202  57.937 -59.926  1.00  0.00    -0.041 N 
HETATM    8  N   UNL     1     -43.459  56.689 -60.450  1.00  0.00    -0.162 NA
HETATM    9  C   UNL     1     -43.413  55.874 -59.397  1.00  0.00     0.159 A 
ENDROOT
BRANCH   1  10
HETATM   10  N   UNL     1     -43.131  54.892 -56.391  1.00  0.00    -0.367 N 
HETATM   11  H   UNL     1     -43.585  54.263 -57.039  1.00  0.00     0.161 HD
BRANCH  10  12
HETATM   12  C   UNL     1     -43.492  54.662 -54.994  1.00  0.00     0.199 C 
BRANCH  12  13
HETATM   13  C   UNL     1     -42.463  53.954 -54.174  1.00  0.00     0.123 A 
HETATM   14  N   UNL     1     -42.180  54.349 -52.890  1.00  0.00    -0.341 N 
HETATM   15  C   UNL     1     -41.218  53.517 -52.382  1.00  0.00     0.063 A 
HETATM   16  H   UNL     1     -42.615  55.140 -52.433  1.00  0.00     0.167 HD
HETATM   17  C   UNL     1     -40.944  52.633 -53.422  1.00  0.00     0.091 A 
HETATM   18  C   UNL     1     -40.582  53.469 -51.142  1.00  0.00     0.032 A 
HETATM   19  C   UNL     1     -39.972  51.628 -53.247  1.00  0.00    -0.031 A 
HETATM   20  N   UNL     1     -41.729  52.915 -54.519  1.00  0.00    -0.231 NA
HETATM   21  C   UNL     1     -39.608  50.646 -54.320  1.00  0.00     0.050 C 
HETATM   22  C   UNL     1     -39.322  51.568 -51.996  1.00  0.00     0.009 A 
HETATM   23  C   UNL     1     -39.624  52.467 -50.970  1.00  0.00     0.003 A 
ENDBRANCH  12  13
ENDBRANCH  10  12
ENDBRANCH   1  10
BRANCH   7  24
HETATM   24  C   UNL     1     -43.154  59.103 -60.768  1.00  0.00     0.750 A 
HETATM   25  N   UNL     1     -41.952  59.623 -61.098  1.00  0.00    -0.073 NA
HETATM   26  C   UNL     1     -41.953  60.713 -61.889  1.00  0.00     0.138 A 
HETATM   27  C   UNL     1     -43.099  61.305 -62.364  1.00  0.00     0.040 A 
HETATM   28  C   UNL     1     -44.274  60.712 -61.979  1.00  0.00     0.138 A 
HETATM   29  N   UNL     1     -44.332  59.623 -61.191  1.00  0.00    -0.073 NA
ENDBRANCH   7  24
TORSDOF 4
ENDMDL
MODEL 10
REMARK VINA RESULT:      -7.9      3.053      7.985
REMARK  4 active torsions:
REMARK  status: ('A' for Active; 'I' for Inactive)
REMARK    1  A    between atoms: C_7  and  C_8 
REMARK    2  A    between atoms: C_8  and  N_9 
REMARK    3  A    between atoms: N_9  and  C_10 
REMARK    4  A    between atoms: N_16  and  C_17 
ROOT
HETATM    1  C   UNL     1     -41.463  56.754 -53.289  1.00  0.00     0.141 A 
HETATM    2  N   UNL     1     -41.814  56.774 -51.979  1.00  0.00    -0.224 NA
HETATM    3  C   UNL     1     -41.648  55.655 -51.245  1.00  0.00     0.237 A 
HETATM    4  N   UNL     1     -41.184  54.468 -51.650  1.00  0.00    -0.221 NA
HETATM    5  C   UNL     1     -40.866  54.459 -52.960  1.00  0.00     0.186 A 
HETATM    6  C   UNL     1     -40.982  55.545 -53.815  1.00  0.00     0.077 A 
HETATM    7  N   UNL     1     -40.368  53.406 -53.724  1.00  0.00    -0.041 N 
HETATM    8  N   UNL     1     -40.163  53.791 -55.030  1.00  0.00    -0.162 NA
HETATM    9  C   UNL     1     -40.546  55.066 -55.061  1.00  0.00     0.159 A 
ENDROOT
BRANCH   1  10
HETATM   10  N   UNL     1     -41.616  57.888 -54.074  1.00  0.00    -0.367 N 
HETATM   11  H   UNL     1     -40.896  58.589 -53.951  1.00  0.00     0.161 HD
BRANCH  10  12
HETATM   12  C   UNL     1     -42.957  58.442 -54.243  1.00  0.00     0.199 C 
BRANCH  12  13
HETATM   13  C   UNL     1     -43.638  58.092 -55.526  1.00  0.00     0.123 A 
HETATM   14  N   UNL     1     -44.924  58.497 -55.783  1.00  0.00    -0.341 N 
HETATM   15  C   UNL     1     -45.278  58.051 -57.029  1.00  0.00     0.063 A 
HETATM   16  H   UNL     1     -45.493  59.021 -55.132  1.00  0.00     0.167 HD
HETATM   17  C   UNL     1     -44.156  57.361 -57.479  1.00  0.00     0.091 A 
HETATM   18  C   UNL     1     -46.451  58.184 -57.772  1.00  0.00     0.032 A 
HETATM   19  C   UNL     1     -44.176  56.747 -58.747  1.00  0.00    -0.031 A 
HETATM   20  N   UNL     1     -43.150  57.404 -56.539  1.00  0.00    -0.231 NA
HETATM   21  C   UNL     1     -43.015  55.974 -59.300  1.00  0.00     0.050 C 
HETATM   22  C   UNL     1     -45.356  56.875 -59.509  1.00  0.00     0.009 A 
HETATM   23  C   UNL     1     -46.465  57.579 -59.031  1.00  0.00     0.003 A 
ENDBRANCH  12  13
ENDBRANCH  10  12
ENDBRANCH   1  10
BRANCH   7  24
HETATM   24  C   UNL     1     -40.076  52.066 -53.288  1.00  0.00     0.750 A 
HETATM   25  N   UNL     1     -40.149  51.056 -54.182  1.00  0.00    -0.073 NA
HETATM   26  C   UNL     1     -39.866  49.818 -53.733  1.00  0.00     0.138 A 
HETATM   27  C   UNL     1     -39.516  49.544 -52.433  1.00  0.00     0.040 A 
HETATM   28  C   UNL     1     -39.467  50.628 -51.594  1.00  0.00     0.138 A 
HETATM   29  N   UNL     1     -39.739  51.885 -51.988  1.00  0.00    -0.073 NA
ENDBRANCH   7  24
TORSDOF 4
ENDMDL
