MODEL 1
REMARK VINA RESULT:      -7.9      0.000      0.000
REMARK  8 active torsions:
REMARK  status: ('A' for Active; 'I' for Inactive)
REMARK    1  A    between atoms: C_3  and  N_4 
REMARK       I    between atoms: N_4  and  C_5 
REMARK    2  A    between atoms: C_5  and  C_6 
REMARK    3  A    between atoms: C_7  and  C_8 
REMARK    4  A    between atoms: C_17  and  C_18 
REMARK    5  A    between atoms: C_20  and  O_21 
REMARK    6  A    between atoms: C_23  and  O_24 
REMARK    7  A    between atoms: O_24  and  C_25 
REMARK    8  A    between atoms: C_25  and  C_26 
REMARK       I    between atoms: C_26  and  N_27 
ROOT
HETATM    1  C   UNL     1     -42.527  57.948 -51.672  1.00  0.00     0.062 C 
HETATM    2  C   UNL     1     -43.771  58.459 -52.355  1.00  0.00     0.176 C 
HETATM    3  N   UNL     1     -43.995  59.843 -51.967  1.00  0.00    -0.277 N 
HETATM    4  C   UNL     1     -43.000  60.584 -51.414  1.00  0.00     0.177 C 
HETATM    5  S   UNL     1     -43.471  62.251 -51.247  1.00  0.00    -0.046 SA
HETATM    6  C   UNL     1     -45.003  61.960 -51.997  1.00  0.00     0.077 C 
HETATM    7  C   UNL     1     -45.825  62.946 -52.383  1.00  0.00     0.036 C 
HETATM    8  C   UNL     1     -45.179  60.493 -52.226  1.00  0.00     0.267 C 
HETATM    9  O   UNL     1     -46.225  59.959 -52.558  1.00  0.00    -0.266 OA
HETATM   10  N   UNL     1     -41.853  60.144 -51.025  1.00  0.00    -0.228 NA
HETATM   11  C   UNL     1     -41.628  58.786 -51.114  1.00  0.00     0.047 C 
HETATM   12  C   UNL     1     -40.290  58.360 -50.565  1.00  0.00     0.071 C 
ENDROOT
BRANCH   7  13
HETATM   13  C   UNL     1     -47.030  62.748 -53.191  1.00  0.00    -0.032 A 
HETATM   14  C   UNL     1     -48.249  62.480 -52.546  1.00  0.00     0.051 A 
HETATM   15  C   UNL     1     -49.425  62.326 -53.286  1.00  0.00     0.102 A 
HETATM   16  C   UNL     1     -49.366  62.436 -54.685  1.00  0.00     0.102 A 
HETATM   17  C   UNL     1     -48.155  62.707 -55.330  1.00  0.00     0.040 A 
HETATM   18  C   UNL     1     -46.986  62.853 -54.583  1.00  0.00     0.014 A 
BRANCH  15  19
HETATM   19  O   UNL     1     -50.662  62.059 -52.755  1.00  0.00    -0.353 OA
HETATM   20  C   UNL     1     -51.276  63.086 -51.989  1.00  0.00     0.210 C 
ENDBRANCH  15  19
BRANCH  16  21
HETATM   21  O   UNL     1     -50.546  62.350 -55.376  1.00  0.00    -0.339 OA
BRANCH  21  22
HETATM   22  C   UNL     1     -50.584  61.279 -56.319  1.00  0.00     0.278 C 
BRANCH  22  23
HETATM   23  C   UNL     1     -51.832  60.437 -56.070  1.00  0.00     0.239 C 
HETATM   24  N   UNL     1     -52.256  60.389 -54.772  1.00  0.00    -0.368 N 
HETATM   25  H   UNL     1     -51.882  61.059 -54.107  1.00  0.00     0.159 HD
HETATM   26  H   UNL     1     -53.124  59.915 -54.565  1.00  0.00     0.159 HD
HETATM   27  O   UNL     1     -52.399  59.795 -56.949  1.00  0.00    -0.271 OA
ENDBRANCH  22  23
ENDBRANCH  21  22
ENDBRANCH  16  21
ENDBRANCH   7  13
BRANCH   2  28
HETATM   28  C   UNL     1     -43.706  58.429 -53.877  1.00  0.00     0.011 A 
HETATM   29  S   UNL     1     -44.853  57.507 -54.764  1.00  0.00    -0.104 SA
HETATM   30  C   UNL     1     -44.176  57.980 -56.259  1.00  0.00     0.050 A 
HETATM   31  C   UNL     1     -43.094  58.813 -56.097  1.00  0.00     0.008 A 
HETATM   32  C   UNL     1     -42.819  59.072 -54.724  1.00  0.00     0.017 A 
ENDBRANCH   2  28
BRANCH   1  33
HETATM   33  C   UNL     1     -42.366  56.468 -51.699  1.00  0.00     0.256 C 
HETATM   34  N   UNL     1     -41.404  56.042 -52.592  1.00  0.00    -0.323 N 
HETATM   35  H   UNL     1     -40.963  56.753 -53.160  1.00  0.00     0.169 HD
HETATM   36  O   UNL     1     -43.030  55.778 -50.937  1.00  0.00    -0.267 OA
BRANCH  34  37
HETATM   37  C   UNL     1     -40.977  54.712 -52.831  1.00  0.00     0.041 A 
HETATM   38  C   UNL     1     -41.005  54.212 -54.152  1.00  0.00    -0.035 A 
HETATM   39  C   UNL     1     -41.513  55.024 -55.314  1.00  0.00     0.050 C 
HETATM   40  C   UNL     1     -40.574  52.896 -54.402  1.00  0.00     0.009 A 
HETATM   41  C   UNL     1     -40.115  52.084 -53.368  1.00  0.00     0.001 A 
HETATM   42  C   UNL     1     -40.085  52.577 -52.070  1.00  0.00     0.002 A 
HETATM   43  C   UNL     1     -40.514  53.880 -51.804  1.00  0.00     0.030 A 
ENDBRANCH  34  37
ENDBRANCH   1  33
TORSDOF 8
ENDMDL
MODEL 2
REMARK VINA RESULT:      -7.6      4.958     10.166
REMARK  8 active torsions:
REMARK  status: ('A' for Active; 'I' for Inactive)
REMARK    1  A    between atoms: C_3  and  N_4 
REMARK       I    between atoms: N_4  and  C_5 
REMARK    2  A    between atoms: C_5  and  C_6 
REMARK    3  A    between atoms: C_7  and  C_8 
REMARK    4  A    between atoms: C_17  and  C_18 
REMARK    5  A    between atoms: C_20  and  O_21 
REMARK    6  A    between atoms: C_23  and  O_24 
REMARK    7  A    between atoms: O_24  and  C_25 
REMARK    8  A    between atoms: C_25  and  C_26 
REMARK       I    between atoms: C_26  and  N_27 
ROOT
HETATM    1  C   UNL     1     -43.593  60.060 -58.567  1.00  0.00     0.062 C 
HETATM    2  C   UNL     1     -43.051  58.820 -57.902  1.00  0.00     0.176 C 
HETATM    3  N   UNL     1     -43.556  58.749 -56.539  1.00  0.00    -0.277 N 
HETATM    4  C   UNL     1     -44.631  59.484 -56.152  1.00  0.00     0.177 C 
HETATM    5  S   UNL     1     -45.149  59.050 -54.549  1.00  0.00    -0.046 SA
HETATM    6  C   UNL     1     -43.945  57.814 -54.424  1.00  0.00     0.077 C 
HETATM    7  C   UNL     1     -43.934  56.903 -53.440  1.00  0.00     0.036 C 
HETATM    8  C   UNL     1     -43.039  57.875 -55.612  1.00  0.00     0.267 C 
HETATM    9  O   UNL     1     -41.987  57.265 -55.719  1.00  0.00    -0.266 OA
HETATM   10  N   UNL     1     -45.205  60.408 -56.842  1.00  0.00    -0.228 NA
HETATM   11  C   UNL     1     -44.645  60.736 -58.059  1.00  0.00     0.047 C 
HETATM   12  C   UNL     1     -45.341  61.879 -58.754  1.00  0.00     0.071 C 
ENDROOT
BRANCH   7  13
HETATM   13  C   UNL     1     -43.055  55.733 -53.409  1.00  0.00    -0.032 A 
HETATM   14  C   UNL     1     -42.087  55.631 -52.397  1.00  0.00     0.051 A 
HETATM   15  C   UNL     1     -41.260  54.507 -52.315  1.00  0.00     0.102 A 
HETATM   16  C   UNL     1     -41.408  53.484 -53.266  1.00  0.00     0.102 A 
HETATM   17  C   UNL     1     -42.374  53.580 -54.273  1.00  0.00     0.040 A 
HETATM   18  C   UNL     1     -43.191  54.709 -54.349  1.00  0.00     0.014 A 
BRANCH  15  19
HETATM   19  O   UNL     1     -40.283  54.313 -51.371  1.00  0.00    -0.353 OA
HETATM   20  C   UNL     1     -40.707  54.078 -50.035  1.00  0.00     0.210 C 
ENDBRANCH  15  19
BRANCH  16  21
HETATM   21  O   UNL     1     -40.632  52.365 -53.117  1.00  0.00    -0.339 OA
BRANCH  21  22
HETATM   22  C   UNL     1     -40.377  51.675 -54.341  1.00  0.00     0.278 C 
BRANCH  22  23
HETATM   23  C   UNL     1     -39.919  50.254 -54.028  1.00  0.00     0.239 C 
HETATM   24  N   UNL     1     -39.598  50.017 -52.720  1.00  0.00    -0.368 N 
HETATM   25  H   UNL     1     -39.882  50.690 -52.014  1.00  0.00     0.159 HD
HETATM   26  H   UNL     1     -39.369  49.073 -52.443  1.00  0.00     0.159 HD
HETATM   27  O   UNL     1     -39.785  49.384 -54.883  1.00  0.00    -0.271 OA
ENDBRANCH  22  23
ENDBRANCH  21  22
ENDBRANCH  16  21
ENDBRANCH   7  13
BRANCH   2  28
HETATM   28  C   UNL     1     -43.445  57.518 -58.589  1.00  0.00     0.011 A 
HETATM   29  S   UNL     1     -45.093  57.221 -58.975  1.00  0.00    -0.104 SA
HETATM   30  C   UNL     1     -44.725  55.711 -59.681  1.00  0.00     0.050 A 
HETATM   31  C   UNL     1     -43.381  55.424 -59.620  1.00  0.00     0.008 A 
HETATM   32  C   UNL     1     -42.641  56.465 -58.988  1.00  0.00     0.017 A 
ENDBRANCH   2  28
BRANCH   1  33
HETATM   33  C   UNL     1     -42.900  60.443 -59.828  1.00  0.00     0.256 C 
HETATM   34  N   UNL     1     -42.091  61.552 -59.689  1.00  0.00    -0.323 N 
HETATM   35  H   UNL     1     -42.099  62.010 -58.787  1.00  0.00     0.169 HD
HETATM   36  O   UNL     1     -43.054  59.757 -60.829  1.00  0.00    -0.267 OA
BRANCH  34  37
HETATM   37  C   UNL     1     -41.266  62.147 -60.674  1.00  0.00     0.041 A 
HETATM   38  C   UNL     1     -40.052  62.751 -60.276  1.00  0.00    -0.035 A 
HETATM   39  C   UNL     1     -39.620  62.825 -58.836  1.00  0.00     0.050 C 
HETATM   40  C   UNL     1     -39.221  63.337 -61.248  1.00  0.00     0.009 A 
HETATM   41  C   UNL     1     -39.573  63.324 -62.595  1.00  0.00     0.001 A 
HETATM   42  C   UNL     1     -40.764  62.728 -62.987  1.00  0.00     0.002 A 
HETATM   43  C   UNL     1     -41.605  62.146 -62.034  1.00  0.00     0.030 A 
ENDBRANCH  34  37
ENDBRANCH   1  33
TORSDOF 8
ENDMDL
MODEL 3
REMARK VINA RESULT:      -7.6      1.104      1.761
REMARK  8 active torsions:
REMARK  status: ('A' for Active; 'I' for Inactive)
REMARK    1  A    between atoms: C_3  and  N_4 
REMARK       I    between atoms: N_4  and  C_5 
REMARK    2  A    between atoms: C_5  and  C_6 
REMARK    3  A    between atoms: C_7  and  C_8 
REMARK    4  A    between atoms: C_17  and  C_18 
REMARK    5  A    between atoms: C_20  and  O_21 
REMARK    6  A    between atoms: C_23  and  O_24 
REMARK    7  A    between atoms: O_24  and  C_25 
REMARK    8  A    between atoms: C_25  and  C_26 
REMARK       I    between atoms: C_26  and  N_27 
ROOT
HETATM    1  C   UNL     1     -42.913  58.171 -51.518  1.00  0.00     0.062 C 
HETATM    2  C   UNL     1     -44.194  58.753 -52.064  1.00  0.00     0.176 C 
HETATM    3  N   UNL     1     -44.339  60.120 -51.587  1.00  0.00    -0.277 N 
HETATM    4  C   UNL     1     -43.278  60.802 -51.082  1.00  0.00     0.177 C 
HETATM    5  S   UNL     1     -43.680  62.469 -50.788  1.00  0.00    -0.046 SA
HETATM    6  C   UNL     1     -45.277  62.262 -51.419  1.00  0.00     0.077 C 
HETATM    7  C   UNL     1     -46.097  63.291 -51.680  1.00  0.00     0.036 C 
HETATM    8  C   UNL     1     -45.519  60.815 -51.708  1.00  0.00     0.267 C 
HETATM    9  O   UNL     1     -46.606  60.330 -51.978  1.00  0.00    -0.266 OA
HETATM   10  N   UNL     1     -42.117  60.309 -50.817  1.00  0.00    -0.228 NA
HETATM   11  C   UNL     1     -41.944  58.953 -50.996  1.00  0.00     0.047 C 
HETATM   12  C   UNL     1     -40.580  58.460 -50.587  1.00  0.00     0.071 C 
ENDROOT
BRANCH   7  13
HETATM   13  C   UNL     1     -47.371  63.171 -52.391  1.00  0.00    -0.032 A 
HETATM   14  C   UNL     1     -47.362  62.937 -53.776  1.00  0.00     0.051 A 
HETATM   15  C   UNL     1     -48.561  62.777 -54.477  1.00  0.00     0.102 A 
HETATM   16  C   UNL     1     -49.774  62.860 -53.775  1.00  0.00     0.102 A 
HETATM   17  C   UNL     1     -49.787  63.087 -52.395  1.00  0.00     0.040 A 
HETATM   18  C   UNL     1     -48.585  63.251 -51.705  1.00  0.00     0.014 A 
BRANCH  15  19
HETATM   19  O   UNL     1     -48.661  62.551 -55.827  1.00  0.00    -0.353 OA
HETATM   20  C   UNL     1     -47.530  61.987 -56.477  1.00  0.00     0.210 C 
ENDBRANCH  15  19
BRANCH  16  21
HETATM   21  O   UNL     1     -50.928  62.628 -54.477  1.00  0.00    -0.339 OA
BRANCH  21  22
HETATM   22  C   UNL     1     -51.688  61.523 -53.986  1.00  0.00     0.278 C 
BRANCH  22  23
HETATM   23  C   UNL     1     -52.111  60.647 -55.160  1.00  0.00     0.239 C 
HETATM   24  N   UNL     1     -51.129  60.371 -56.070  1.00  0.00    -0.368 N 
HETATM   25  H   UNL     1     -50.162  60.559 -55.822  1.00  0.00     0.159 HD
HETATM   26  H   UNL     1     -51.334  59.728 -56.821  1.00  0.00     0.159 HD
HETATM   27  O   UNL     1     -53.261  60.251 -55.327  1.00  0.00    -0.271 OA
ENDBRANCH  22  23
ENDBRANCH  21  22
ENDBRANCH  16  21
ENDBRANCH   7  13
BRANCH   2  28
HETATM   28  C   UNL     1     -44.257  58.806 -53.585  1.00  0.00     0.011 A 
HETATM   29  S   UNL     1     -43.097  59.728 -54.457  1.00  0.00    -0.104 SA
HETATM   30  C   UNL     1     -43.778  59.286 -55.960  1.00  0.00     0.050 A 
HETATM   31  C   UNL     1     -44.870  58.464 -55.812  1.00  0.00     0.008 A 
HETATM   32  C   UNL     1     -45.151  58.188 -54.443  1.00  0.00     0.017 A 
ENDBRANCH   2  28
BRANCH   1  33
HETATM   33  C   UNL     1     -42.803  56.691 -51.636  1.00  0.00     0.256 C 
HETATM   34  N   UNL     1     -41.873  56.289 -52.573  1.00  0.00    -0.323 N 
HETATM   35  H   UNL     1     -41.418  57.018 -53.105  1.00  0.00     0.169 HD
HETATM   36  O   UNL     1     -43.476  55.979 -50.904  1.00  0.00    -0.267 OA
BRANCH  34  37
HETATM   37  C   UNL     1     -41.495  54.963 -52.899  1.00  0.00     0.041 A 
HETATM   38  C   UNL     1     -41.956  54.399 -54.109  1.00  0.00    -0.035 A 
HETATM   39  C   UNL     1     -42.870  55.138 -55.049  1.00  0.00     0.050 C 
HETATM   40  C   UNL     1     -41.579  53.086 -54.447  1.00  0.00     0.009 A 
HETATM   41  C   UNL     1     -40.755  52.339 -53.611  1.00  0.00     0.001 A 
HETATM   42  C   UNL     1     -40.300  52.894 -52.422  1.00  0.00     0.002 A 
HETATM   43  C   UNL     1     -40.669  54.195 -52.068  1.00  0.00     0.030 A 
ENDBRANCH  34  37
ENDBRANCH   1  33
TORSDOF 8
ENDMDL
MODEL 4
REMARK VINA RESULT:      -7.5      4.818      9.868
REMARK  8 active torsions:
REMARK  status: ('A' for Active; 'I' for Inactive)
REMARK    1  A    between atoms: C_3  and  N_4 
REMARK       I    between atoms: N_4  and  C_5 
REMARK    2  A    between atoms: C_5  and  C_6 
REMARK    3  A    between atoms: C_7  and  C_8 
REMARK    4  A    between atoms: C_17  and  C_18 
REMARK    5  A    between atoms: C_20  and  O_21 
REMARK    6  A    between atoms: C_23  and  O_24 
REMARK    7  A    between atoms: O_24  and  C_25 
REMARK    8  A    between atoms: C_25  and  C_26 
REMARK       I    between atoms: C_26  and  N_27 
ROOT
HETATM    1  C   UNL     1     -42.634  60.869 -56.515  1.00  0.00     0.062 C 
HETATM    2  C   UNL     1     -42.217  59.479 -56.100  1.00  0.00     0.176 C 
HETATM    3  N   UNL     1     -42.657  59.236 -54.735  1.00  0.00    -0.277 N 
HETATM    4  C   UNL     1     -43.611  60.012 -54.158  1.00  0.00     0.177 C 
HETATM    5  S   UNL     1     -44.096  59.374 -52.614  1.00  0.00    -0.046 SA
HETATM    6  C   UNL     1     -43.052  58.005 -52.779  1.00  0.00     0.077 C 
HETATM    7  C   UNL     1     -43.104  56.945 -51.959  1.00  0.00     0.036 C 
HETATM    8  C   UNL     1     -42.206  58.164 -54.002  1.00  0.00     0.267 C 
HETATM    9  O   UNL     1     -41.246  57.464 -54.282  1.00  0.00    -0.266 OA
HETATM   10  N   UNL     1     -44.099  61.101 -54.645  1.00  0.00    -0.228 NA
HETATM   11  C   UNL     1     -43.566  61.565 -55.829  1.00  0.00     0.047 C 
HETATM   12  C   UNL     1     -44.148  62.881 -56.278  1.00  0.00     0.071 C 
ENDROOT
BRANCH   7  13
HETATM   13  C   UNL     1     -42.378  55.693 -52.182  1.00  0.00    -0.032 A 
HETATM   14  C   UNL     1     -41.318  55.355 -51.324  1.00  0.00     0.051 A 
HETATM   15  C   UNL     1     -40.632  54.148 -51.485  1.00  0.00     0.102 A 
HETATM   16  C   UNL     1     -41.014  53.283 -52.523  1.00  0.00     0.102 A 
HETATM   17  C   UNL     1     -42.071  53.613 -53.376  1.00  0.00     0.040 A 
HETATM   18  C   UNL     1     -42.747  54.824 -53.210  1.00  0.00     0.014 A 
BRANCH  15  19
HETATM   19  O   UNL     1     -39.582  53.728 -50.707  1.00  0.00    -0.353 OA
HETATM   20  C   UNL     1     -39.525  54.216 -49.373  1.00  0.00     0.210 C 
ENDBRANCH  15  19
BRANCH  16  21
HETATM   21  O   UNL     1     -40.369  52.077 -52.610  1.00  0.00    -0.339 OA
BRANCH  21  22
HETATM   22  C   UNL     1     -40.180  51.621 -53.950  1.00  0.00     0.278 C 
BRANCH  22  23
HETATM   23  C   UNL     1     -39.876  50.127 -53.932  1.00  0.00     0.239 C 
HETATM   24  N   UNL     1     -39.663  49.587 -52.694  1.00  0.00    -0.368 N 
HETATM   25  H   UNL     1     -39.928  50.123 -51.872  1.00  0.00     0.159 HD
HETATM   26  H   UNL     1     -39.540  48.588 -52.618  1.00  0.00     0.159 HD
HETATM   27  O   UNL     1     -39.768  49.447 -54.948  1.00  0.00    -0.271 OA
ENDBRANCH  22  23
ENDBRANCH  21  22
ENDBRANCH  16  21
ENDBRANCH   7  13
BRANCH   2  28
HETATM   28  C   UNL     1     -42.805  58.368 -56.960  1.00  0.00     0.011 A 
HETATM   29  S   UNL     1     -44.503  58.295 -57.218  1.00  0.00    -0.104 SA
HETATM   30  C   UNL     1     -44.360  56.915 -58.213  1.00  0.00     0.050 A 
HETATM   31  C   UNL     1     -43.054  56.504 -58.345  1.00  0.00     0.008 A 
HETATM   32  C   UNL     1     -42.155  57.339 -57.620  1.00  0.00     0.017 A 
ENDBRANCH   2  28
BRANCH   1  33
HETATM   33  C   UNL     1     -41.964  61.379 -57.743  1.00  0.00     0.256 C 
HETATM   34  N   UNL     1     -42.798  61.416 -58.841  1.00  0.00    -0.323 N 
HETATM   35  H   UNL     1     -43.732  61.051 -58.716  1.00  0.00     0.169 HD
HETATM   36  O   UNL     1     -40.800  61.749 -57.681  1.00  0.00    -0.267 OA
BRANCH  34  37
HETATM   37  C   UNL     1     -42.490  61.884 -60.143  1.00  0.00     0.041 A 
HETATM   38  C   UNL     1     -42.126  60.950 -61.137  1.00  0.00    -0.035 A 
HETATM   39  C   UNL     1     -42.011  59.475 -60.858  1.00  0.00     0.050 C 
HETATM   40  C   UNL     1     -41.827  61.403 -62.435  1.00  0.00     0.009 A 
HETATM   41  C   UNL     1     -41.892  62.756 -62.754  1.00  0.00     0.001 A 
HETATM   42  C   UNL     1     -42.252  63.675 -61.777  1.00  0.00     0.002 A 
HETATM   43  C   UNL     1     -42.547  63.243 -60.481  1.00  0.00     0.030 A 
ENDBRANCH  34  37
ENDBRANCH   1  33
TORSDOF 8
ENDMDL
MODEL 5
REMARK VINA RESULT:      -7.2      4.410      8.161
REMARK  8 active torsions:
REMARK  status: ('A' for Active; 'I' for Inactive)
REMARK    1  A    between atoms: C_3  and  N_4 
REMARK       I    between atoms: N_4  and  C_5 
REMARK    2  A    between atoms: C_5  and  C_6 
REMARK    3  A    between atoms: C_7  and  C_8 
REMARK    4  A    between atoms: C_17  and  C_18 
REMARK    5  A    between atoms: C_20  and  O_21 
REMARK    6  A    between atoms: C_23  and  O_24 
REMARK    7  A    between atoms: O_24  and  C_25 
REMARK    8  A    between atoms: C_25  and  C_26 
REMARK       I    between atoms: C_26  and  N_27 
ROOT
HETATM    1  C   UNL     1     -44.226  57.211 -58.365  1.00  0.00     0.062 C 
HETATM    2  C   UNL     1     -44.478  58.007 -57.108  1.00  0.00     0.176 C 
HETATM    3  N   UNL     1     -43.999  57.251 -55.961  1.00  0.00    -0.277 N 
HETATM    4  C   UNL     1     -43.134  56.216 -56.116  1.00  0.00     0.177 C 
HETATM    5  S   UNL     1     -42.563  55.633 -54.579  1.00  0.00    -0.046 SA
HETATM    6  C   UNL     1     -43.447  56.845 -53.718  1.00  0.00     0.077 C 
HETATM    7  C   UNL     1     -43.266  57.090 -52.412  1.00  0.00     0.036 C 
HETATM    8  C   UNL     1     -44.318  57.602 -54.670  1.00  0.00     0.267 C 
HETATM    9  O   UNL     1     -45.195  58.384 -54.341  1.00  0.00    -0.266 OA
HETATM   10  N   UNL     1     -42.778  55.688 -57.236  1.00  0.00    -0.228 NA
HETATM   11  C   UNL     1     -43.372  56.166 -58.384  1.00  0.00     0.047 C 
HETATM   12  C   UNL     1     -42.948  55.435 -59.633  1.00  0.00     0.071 C 
ENDROOT
BRANCH   7  13
HETATM   13  C   UNL     1     -43.848  58.228 -51.698  1.00  0.00    -0.032 A 
HETATM   14  C   UNL     1     -43.206  59.476 -51.761  1.00  0.00     0.051 A 
HETATM   15  C   UNL     1     -43.757  60.591 -51.124  1.00  0.00     0.102 A 
HETATM   16  C   UNL     1     -44.959  60.443 -50.414  1.00  0.00     0.102 A 
HETATM   17  C   UNL     1     -45.604  59.203 -50.353  1.00  0.00     0.040 A 
HETATM   18  C   UNL     1     -45.043  58.094 -50.987  1.00  0.00     0.014 A 
BRANCH  15  19
HETATM   19  O   UNL     1     -43.208  61.849 -51.122  1.00  0.00    -0.353 OA
HETATM   20  C   UNL     1     -43.290  62.597 -52.328  1.00  0.00     0.210 C 
ENDBRANCH  15  19
BRANCH  16  21
HETATM   21  O   UNL     1     -45.510  61.569 -49.861  1.00  0.00    -0.339 OA
BRANCH  21  22
HETATM   22  C   UNL     1     -44.990  61.889 -48.570  1.00  0.00     0.278 C 
BRANCH  22  23
HETATM   23  C   UNL     1     -45.907  61.303 -47.502  1.00  0.00     0.239 C 
HETATM   24  N   UNL     1     -45.359  60.311 -46.738  1.00  0.00    -0.368 N 
HETATM   25  H   UNL     1     -44.352  60.175 -46.758  1.00  0.00     0.159 HD
HETATM   26  H   UNL     1     -45.894  59.947 -45.963  1.00  0.00     0.159 HD
HETATM   27  O   UNL     1     -47.078  61.642 -47.358  1.00  0.00    -0.271 OA
ENDBRANCH  22  23
ENDBRANCH  21  22
ENDBRANCH  16  21
ENDBRANCH   7  13
BRANCH   2  28
HETATM   28  C   UNL     1     -43.776  59.359 -57.072  1.00  0.00     0.011 A 
HETATM   29  S   UNL     1     -44.703  60.799 -56.924  1.00  0.00    -0.104 SA
HETATM   30  C   UNL     1     -43.304  61.779 -56.930  1.00  0.00     0.050 A 
HETATM   31  C   UNL     1     -42.152  61.037 -57.052  1.00  0.00     0.008 A 
HETATM   32  C   UNL     1     -42.423  59.640 -57.137  1.00  0.00     0.017 A 
ENDBRANCH   2  28
BRANCH   1  33
HETATM   33  C   UNL     1     -44.963  57.696 -59.565  1.00  0.00     0.256 C 
HETATM   34  N   UNL     1     -46.282  57.290 -59.593  1.00  0.00    -0.323 N 
HETATM   35  H   UNL     1     -46.585  56.677 -58.849  1.00  0.00     0.169 HD
HETATM   36  O   UNL     1     -44.390  58.416 -60.371  1.00  0.00    -0.267 OA
BRANCH  34  37
HETATM   37  C   UNL     1     -47.262  57.610 -60.564  1.00  0.00     0.041 A 
HETATM   38  C   UNL     1     -47.807  58.913 -60.581  1.00  0.00    -0.035 A 
HETATM   39  C   UNL     1     -47.418  59.966 -59.577  1.00  0.00     0.050 C 
HETATM   40  C   UNL     1     -48.775  59.245 -61.547  1.00  0.00     0.009 A 
HETATM   41  C   UNL     1     -49.196  58.311 -62.489  1.00  0.00     0.001 A 
HETATM   42  C   UNL     1     -48.658  57.031 -62.475  1.00  0.00     0.002 A 
HETATM   43  C   UNL     1     -47.700  56.683 -61.519  1.00  0.00     0.030 A 
ENDBRANCH  34  37
ENDBRANCH   1  33
TORSDOF 8
ENDMDL
MODEL 6
REMARK VINA RESULT:      -7.1      3.383      4.819
REMARK  8 active torsions:
REMARK  status: ('A' for Active; 'I' for Inactive)
REMARK    1  A    between atoms: C_3  and  N_4 
REMARK       I    between atoms: N_4  and  C_5 
REMARK    2  A    between atoms: C_5  and  C_6 
REMARK    3  A    between atoms: C_7  and  C_8 
REMARK    4  A    between atoms: C_17  and  C_18 
REMARK    5  A    between atoms: C_20  and  O_21 
REMARK    6  A    between atoms: C_23  and  O_24 
REMARK    7  A    between atoms: O_24  and  C_25 
REMARK    8  A    between atoms: C_25  and  C_26 
REMARK       I    between atoms: C_26  and  N_27 
ROOT
HETATM    1  C   UNL     1     -43.582  55.890 -52.203  1.00  0.00     0.062 C 
HETATM    2  C   UNL     1     -43.432  57.191 -52.952  1.00  0.00     0.176 C 
HETATM    3  N   UNL     1     -44.416  58.142 -52.457  1.00  0.00    -0.277 N 
HETATM    4  C   UNL     1     -45.040  57.948 -51.267  1.00  0.00     0.177 C 
HETATM    5  S   UNL     1     -45.998  59.331 -50.822  1.00  0.00    -0.046 SA
HETATM    6  C   UNL     1     -45.495  60.211 -52.224  1.00  0.00     0.077 C 
HETATM    7  C   UNL     1     -45.736  61.520 -52.389  1.00  0.00     0.036 C 
HETATM    8  C   UNL     1     -44.690  59.319 -53.114  1.00  0.00     0.267 C 
HETATM    9  O   UNL     1     -44.359  59.588 -54.258  1.00  0.00    -0.266 OA
HETATM   10  N   UNL     1     -44.979  56.884 -50.544  1.00  0.00    -0.228 NA
HETATM   11  C   UNL     1     -44.270  55.812 -51.045  1.00  0.00     0.047 C 
HETATM   12  C   UNL     1     -44.320  54.590 -50.163  1.00  0.00     0.071 C 
ENDROOT
BRANCH   7  13
HETATM   13  C   UNL     1     -45.161  62.336 -53.461  1.00  0.00    -0.032 A 
HETATM   14  C   UNL     1     -45.886  62.510 -54.651  1.00  0.00     0.051 A 
HETATM   15  C   UNL     1     -45.383  63.315 -55.677  1.00  0.00     0.102 A 
HETATM   16  C   UNL     1     -44.140  63.943 -55.501  1.00  0.00     0.102 A 
HETATM   17  C   UNL     1     -43.417  63.776 -54.315  1.00  0.00     0.040 A 
HETATM   18  C   UNL     1     -43.925  62.965 -53.299  1.00  0.00     0.014 A 
BRANCH  15  19
HETATM   19  O   UNL     1     -46.008  63.546 -56.877  1.00  0.00    -0.353 OA
HETATM   20  C   UNL     1     -46.581  62.425 -57.538  1.00  0.00     0.210 C 
ENDBRANCH  15  19
BRANCH  16  21
HETATM   21  O   UNL     1     -43.708  64.782 -56.494  1.00  0.00    -0.339 OA
BRANCH  21  22
HETATM   22  C   UNL     1     -42.471  64.384 -57.086  1.00  0.00     0.278 C 
BRANCH  22  23
HETATM   23  C   UNL     1     -42.729  63.242 -58.063  1.00  0.00     0.239 C 
HETATM   24  N   UNL     1     -43.553  63.542 -59.111  1.00  0.00    -0.368 N 
HETATM   25  H   UNL     1     -43.761  64.516 -59.310  1.00  0.00     0.159 HD
HETATM   26  H   UNL     1     -43.690  62.847 -59.831  1.00  0.00     0.159 HD
HETATM   27  O   UNL     1     -42.284  62.108 -57.909  1.00  0.00    -0.271 OA
ENDBRANCH  22  23
ENDBRANCH  21  22
ENDBRANCH  16  21
ENDBRANCH   7  13
BRANCH   2  28
HETATM   28  C   UNL     1     -42.066  57.847 -52.799  1.00  0.00     0.011 A 
HETATM   29  S   UNL     1     -41.550  58.397 -51.254  1.00  0.00    -0.104 SA
HETATM   30  C   UNL     1     -40.049  58.928 -51.870  1.00  0.00     0.050 A 
HETATM   31  C   UNL     1     -39.936  58.705 -53.223  1.00  0.00     0.008 A 
HETATM   32  C   UNL     1     -41.099  58.084 -53.761  1.00  0.00     0.017 A 
ENDBRANCH   2  28
BRANCH   1  33
HETATM   33  C   UNL     1     -42.886  54.731 -52.827  1.00  0.00     0.256 C 
HETATM   34  N   UNL     1     -41.723  54.379 -52.173  1.00  0.00    -0.323 N 
HETATM   35  H   UNL     1     -41.443  54.963 -51.396  1.00  0.00     0.169 HD
HETATM   36  O   UNL     1     -43.390  54.177 -53.794  1.00  0.00    -0.267 OA
BRANCH  34  37
HETATM   37  C   UNL     1     -40.852  53.304 -52.479  1.00  0.00     0.041 A 
HETATM   38  C   UNL     1     -40.225  52.609 -51.421  1.00  0.00    -0.035 A 
HETATM   39  C   UNL     1     -40.413  52.994 -49.977  1.00  0.00     0.050 C 
HETATM   40  C   UNL     1     -39.366  51.534 -51.713  1.00  0.00     0.009 A 
HETATM   41  C   UNL     1     -39.131  51.142 -53.028  1.00  0.00     0.001 A 
HETATM   42  C   UNL     1     -39.750  51.823 -54.068  1.00  0.00     0.002 A 
HETATM   43  C   UNL     1     -40.601  52.897 -53.796  1.00  0.00     0.030 A 
ENDBRANCH  34  37
ENDBRANCH   1  33
TORSDOF 8
ENDMDL
MODEL 7
REMARK VINA RESULT:      -7.1      5.034      7.825
REMARK  8 active torsions:
REMARK  status: ('A' for Active; 'I' for Inactive)
REMARK    1  A    between atoms: C_3  and  N_4 
REMARK       I    between atoms: N_4  and  C_5 
REMARK    2  A    between atoms: C_5  and  C_6 
REMARK    3  A    between atoms: C_7  and  C_8 
REMARK    4  A    between atoms: C_17  and  C_18 
REMARK    5  A    between atoms: C_20  and  O_21 
REMARK    6  A    between atoms: C_23  and  O_24 
REMARK    7  A    between atoms: O_24  and  C_25 
REMARK    8  A    between atoms: C_25  and  C_26 
REMARK       I    between atoms: C_26  and  N_27 
ROOT
HETATM    1  C   UNL     1     -42.134  55.858 -55.683  1.00  0.00     0.062 C 
HETATM    2  C   UNL     1     -41.950  57.251 -56.234  1.00  0.00     0.176 C 
HETATM    3  N   UNL     1     -42.445  57.292 -57.602  1.00  0.00    -0.277 N 
HETATM    4  C   UNL     1     -43.271  56.325 -58.077  1.00  0.00     0.177 C 
HETATM    5  S   UNL     1     -43.876  56.730 -59.658  1.00  0.00    -0.046 SA
HETATM    6  C   UNL     1     -43.061  58.256 -59.649  1.00  0.00     0.077 C 
HETATM    7  C   UNL     1     -43.294  59.212 -60.560  1.00  0.00     0.036 C 
HETATM    8  C   UNL     1     -42.182  58.348 -58.443  1.00  0.00     0.267 C 
HETATM    9  O   UNL     1     -41.341  59.213 -58.256  1.00  0.00    -0.266 OA
HETATM   10  N   UNL     1     -43.572  55.224 -57.479  1.00  0.00    -0.228 NA
HETATM   11  C   UNL     1     -42.954  54.963 -56.274  1.00  0.00     0.047 C 
HETATM   12  C   UNL     1     -43.312  53.620 -55.691  1.00  0.00     0.071 C 
ENDROOT
BRANCH   7  13
HETATM   13  C   UNL     1     -42.773  60.578 -60.473  1.00  0.00    -0.032 A 
HETATM   14  C   UNL     1     -43.361  61.478 -59.569  1.00  0.00     0.051 A 
HETATM   15  C   UNL     1     -42.861  62.776 -59.433  1.00  0.00     0.102 A 
HETATM   16  C   UNL     1     -41.767  63.168 -60.221  1.00  0.00     0.102 A 
HETATM   17  C   UNL     1     -41.176  62.274 -61.119  1.00  0.00     0.040 A 
HETATM   18  C   UNL     1     -41.686  60.981 -61.251  1.00  0.00     0.014 A 
BRANCH  15  19
HETATM   19  O   UNL     1     -43.364  63.731 -58.585  1.00  0.00    -0.353 OA
HETATM   20  C   UNL     1     -43.533  63.365 -57.222  1.00  0.00     0.210 C 
ENDBRANCH  15  19
BRANCH  16  21
HETATM   21  O   UNL     1     -41.256  64.423 -60.014  1.00  0.00    -0.339 OA
BRANCH  21  22
HETATM   22  C   UNL     1     -40.223  64.782 -60.932  1.00  0.00     0.278 C 
BRANCH  22  23
HETATM   23  C   UNL     1     -38.881  64.759 -60.209  1.00  0.00     0.239 C 
HETATM   24  N   UNL     1     -37.779  64.719 -61.018  1.00  0.00    -0.368 N 
HETATM   25  H   UNL     1     -37.888  64.928 -62.007  1.00  0.00     0.159 HD
HETATM   26  H   UNL     1     -36.866  64.786 -60.594  1.00  0.00     0.159 HD
HETATM   27  O   UNL     1     -38.773  64.721 -58.987  1.00  0.00    -0.271 OA
ENDBRANCH  22  23
ENDBRANCH  21  22
ENDBRANCH  16  21
ENDBRANCH   7  13
BRANCH   2  28
HETATM   28  C   UNL     1     -42.695  58.332 -55.461  1.00  0.00     0.011 A 
HETATM   29  S   UNL     1     -41.812  59.564 -54.650  1.00  0.00    -0.104 SA
HETATM   30  C   UNL     1     -43.242  60.322 -54.104  1.00  0.00     0.050 A 
HETATM   31  C   UNL     1     -44.372  59.655 -54.517  1.00  0.00     0.008 A 
HETATM   32  C   UNL     1     -44.059  58.505 -55.297  1.00  0.00     0.017 A 
ENDBRANCH   2  28
BRANCH   1  33
HETATM   33  C   UNL     1     -41.372  55.579 -54.435  1.00  0.00     0.256 C 
HETATM   34  N   UNL     1     -42.174  55.505 -53.314  1.00  0.00    -0.323 N 
HETATM   35  H   UNL     1     -43.157  55.701 -53.444  1.00  0.00     0.169 HD
HETATM   36  O   UNL     1     -40.164  55.400 -54.497  1.00  0.00    -0.267 OA
BRANCH  34  37
HETATM   37  C   UNL     1     -41.775  55.214 -51.986  1.00  0.00     0.041 A 
HETATM   38  C   UNL     1     -41.799  56.247 -51.023  1.00  0.00    -0.035 A 
HETATM   39  C   UNL     1     -42.192  57.660 -51.362  1.00  0.00     0.050 C 
HETATM   40  C   UNL     1     -41.414  55.966 -49.699  1.00  0.00     0.009 A 
HETATM   41  C   UNL     1     -41.016  54.685 -49.325  1.00  0.00     0.001 A 
HETATM   42  C   UNL     1     -40.995  53.669 -50.271  1.00  0.00     0.002 A 
HETATM   43  C   UNL     1     -41.369  53.932 -51.592  1.00  0.00     0.030 A 
ENDBRANCH  34  37
ENDBRANCH   1  33
TORSDOF 8
ENDMDL
MODEL 8
REMARK VINA RESULT:      -7.0      1.404      1.892
REMARK  8 active torsions:
REMARK  status: ('A' for Active; 'I' for Inactive)
REMARK    1  A    between atoms: C_3  and  N_4 
REMARK       I    between atoms: N_4  and  C_5 
REMARK    2  A    between atoms: C_5  and  C_6 
REMARK    3  A    between atoms: C_7  and  C_8 
REMARK    4  A    between atoms: C_17  and  C_18 
REMARK    5  A    between atoms: C_20  and  O_21 
REMARK    6  A    between atoms: C_23  and  O_24 
REMARK    7  A    between atoms: O_24  and  C_25 
REMARK    8  A    between atoms: C_25  and  C_26 
REMARK       I    between atoms: C_26  and  N_27 
ROOT
HETATM    1  C   UNL     1     -42.260  59.203 -52.015  1.00  0.00     0.062 C 
HETATM    2  C   UNL     1     -43.559  59.535 -52.708  1.00  0.00     0.176 C 
HETATM    3  N   UNL     1     -44.264  60.549 -51.939  1.00  0.00    -0.277 N 
HETATM    4  C   UNL     1     -43.618  61.296 -51.006  1.00  0.00     0.177 C 
HETATM    5  S   UNL     1     -44.639  62.566 -50.395  1.00  0.00    -0.046 SA
HETATM    6  C   UNL     1     -45.929  62.130 -51.461  1.00  0.00     0.077 C 
HETATM    7  C   UNL     1     -47.013  62.898 -51.647  1.00  0.00     0.036 C 
HETATM    8  C   UNL     1     -45.580  60.866 -52.181  1.00  0.00     0.267 C 
HETATM    9  O   UNL     1     -46.359  60.207 -52.851  1.00  0.00    -0.266 OA
HETATM   10  N   UNL     1     -42.417  61.105 -50.581  1.00  0.00    -0.228 NA
HETATM   11  C   UNL     1     -41.738  60.005 -51.064  1.00  0.00     0.047 C 
HETATM   12  C   UNL     1     -40.372  59.824 -50.452  1.00  0.00     0.071 C 
ENDROOT
BRANCH   7  13
HETATM   13  C   UNL     1     -48.025  62.661 -52.678  1.00  0.00    -0.032 A 
HETATM   14  C   UNL     1     -49.295  62.197 -52.296  1.00  0.00     0.051 A 
HETATM   15  C   UNL     1     -50.295  62.000 -53.252  1.00  0.00     0.102 A 
HETATM   16  C   UNL     1     -50.009  62.266 -54.600  1.00  0.00     0.102 A 
HETATM   17  C   UNL     1     -48.747  62.733 -54.984  1.00  0.00     0.040 A 
HETATM   18  C   UNL     1     -47.753  62.921 -54.023  1.00  0.00     0.014 A 
BRANCH  15  19
HETATM   19  O   UNL     1     -51.563  61.547 -52.984  1.00  0.00    -0.353 OA
HETATM   20  C   UNL     1     -52.424  62.415 -52.260  1.00  0.00     0.210 C 
ENDBRANCH  15  19
BRANCH  16  21
HETATM   21  O   UNL     1     -51.031  62.131 -55.503  1.00  0.00    -0.339 OA
BRANCH  21  22
HETATM   22  C   UNL     1     -50.912  60.980 -56.339  1.00  0.00     0.278 C 
BRANCH  22  23
HETATM   23  C   UNL     1     -52.259  60.268 -56.403  1.00  0.00     0.239 C 
HETATM   24  N   UNL     1     -53.078  60.462 -55.326  1.00  0.00    -0.368 N 
HETATM   25  H   UNL     1     -52.862  61.211 -54.674  1.00  0.00     0.159 HD
HETATM   26  H   UNL     1     -54.013  60.082 -55.355  1.00  0.00     0.159 HD
HETATM   27  O   UNL     1     -52.585  59.522 -57.322  1.00  0.00    -0.271 OA
ENDBRANCH  22  23
ENDBRANCH  21  22
ENDBRANCH  16  21
ENDBRANCH   7  13
BRANCH   2  28
HETATM   28  C   UNL     1     -43.393  60.085 -54.119  1.00  0.00     0.011 A 
HETATM   29  S   UNL     1     -43.936  59.164 -55.464  1.00  0.00    -0.104 SA
HETATM   30  C   UNL     1     -43.457  60.373 -56.570  1.00  0.00     0.050 A 
HETATM   31  C   UNL     1     -42.886  61.455 -55.941  1.00  0.00     0.008 A 
HETATM   32  C   UNL     1     -42.845  61.289 -54.526  1.00  0.00     0.017 A 
ENDBRANCH   2  28
BRANCH   1  33
HETATM   33  C   UNL     1     -41.604  57.954 -52.492  1.00  0.00     0.256 C 
HETATM   34  N   UNL     1     -41.860  56.864 -51.685  1.00  0.00    -0.323 N 
HETATM   35  H   UNL     1     -42.402  57.034 -50.848  1.00  0.00     0.169 HD
HETATM   36  O   UNL     1     -40.959  57.974 -53.530  1.00  0.00    -0.267 OA
BRANCH  34  37
HETATM   37  C   UNL     1     -41.426  55.529 -51.876  1.00  0.00     0.041 A 
HETATM   38  C   UNL     1     -41.070  54.757 -50.748  1.00  0.00    -0.035 A 
HETATM   39  C   UNL     1     -41.092  55.313 -49.349  1.00  0.00     0.050 C 
HETATM   40  C   UNL     1     -40.647  53.427 -50.926  1.00  0.00     0.009 A 
HETATM   41  C   UNL     1     -40.581  52.860 -52.195  1.00  0.00     0.001 A 
HETATM   42  C   UNL     1     -40.934  53.618 -53.305  1.00  0.00     0.002 A 
HETATM   43  C   UNL     1     -41.351  54.942 -53.146  1.00  0.00     0.030 A 
ENDBRANCH  34  37
ENDBRANCH   1  33
TORSDOF 8
ENDMDL
MODEL 9
REMARK VINA RESULT:      -7.0      4.191      5.679
REMARK  8 active torsions:
REMARK  status: ('A' for Active; 'I' for Inactive)
REMARK    1  A    between atoms: C_3  and  N_4 
REMARK       I    between atoms: N_4  and  C_5 
REMARK    2  A    between atoms: C_5  and  C_6 
REMARK    3  A    between atoms: C_7  and  C_8 
REMARK    4  A    between atoms: C_17  and  C_18 
REMARK    5  A    between atoms: C_20  and  O_21 
REMARK    6  A    between atoms: C_23  and  O_24 
REMARK    7  A    between atoms: O_24  and  C_25 
REMARK    8  A    between atoms: C_25  and  C_26 
REMARK       I    between atoms: C_26  and  N_27 
ROOT
HETATM    1  C   UNL     1     -42.377  55.598 -51.516  1.00  0.00     0.062 C 
HETATM    2  C   UNL     1     -42.941  55.726 -52.910  1.00  0.00     0.176 C 
HETATM    3  N   UNL     1     -43.348  57.104 -53.135  1.00  0.00    -0.277 N 
HETATM    4  C   UNL     1     -42.898  58.107 -52.338  1.00  0.00     0.177 C 
HETATM    5  S   UNL     1     -43.365  59.665 -52.956  1.00  0.00    -0.046 SA
HETATM    6  C   UNL     1     -44.118  58.960 -54.344  1.00  0.00     0.077 C 
HETATM    7  C   UNL     1     -44.528  59.682 -55.397  1.00  0.00     0.036 C 
HETATM    8  C   UNL     1     -44.124  57.471 -54.210  1.00  0.00     0.267 C 
HETATM    9  O   UNL     1     -44.749  56.708 -54.929  1.00  0.00    -0.266 OA
HETATM   10  N   UNL     1     -42.231  57.964 -51.244  1.00  0.00    -0.228 NA
HETATM   11  C   UNL     1     -42.005  56.679 -50.799  1.00  0.00     0.047 C 
HETATM   12  C   UNL     1     -41.285  56.617 -49.476  1.00  0.00     0.071 C 
ENDROOT
BRANCH   7  13
HETATM   13  C   UNL     1     -44.987  59.108 -56.663  1.00  0.00    -0.032 A 
HETATM   14  C   UNL     1     -44.055  58.884 -57.690  1.00  0.00     0.051 A 
HETATM   15  C   UNL     1     -44.453  58.300 -58.896  1.00  0.00     0.102 A 
HETATM   16  C   UNL     1     -45.802  57.947 -59.066  1.00  0.00     0.102 A 
HETATM   17  C   UNL     1     -46.732  58.164 -58.045  1.00  0.00     0.040 A 
HETATM   18  C   UNL     1     -46.325  58.753 -56.847  1.00  0.00     0.014 A 
BRANCH  15  19
HETATM   19  O   UNL     1     -43.625  58.043 -59.960  1.00  0.00    -0.353 OA
HETATM   20  C   UNL     1     -43.085  59.163 -60.648  1.00  0.00     0.210 C 
ENDBRANCH  15  19
BRANCH  16  21
HETATM   21  O   UNL     1     -46.147  57.311 -60.231  1.00  0.00    -0.339 OA
BRANCH  21  22
HETATM   22  C   UNL     1     -46.499  55.939 -60.054  1.00  0.00     0.278 C 
BRANCH  22  23
HETATM   23  C   UNL     1     -45.337  55.062 -60.510  1.00  0.00     0.239 C 
HETATM   24  N   UNL     1     -44.641  54.444 -59.509  1.00  0.00    -0.368 N 
HETATM   25  H   UNL     1     -45.045  54.412 -58.577  1.00  0.00     0.159 HD
HETATM   26  H   UNL     1     -43.916  53.788 -59.760  1.00  0.00     0.159 HD
HETATM   27  O   UNL     1     -44.997  54.950 -61.684  1.00  0.00    -0.271 OA
ENDBRANCH  22  23
ENDBRANCH  21  22
ENDBRANCH  16  21
ENDBRANCH   7  13
BRANCH   2  28
HETATM   28  C   UNL     1     -41.957  55.368 -54.017  1.00  0.00     0.011 A 
HETATM   29  S   UNL     1     -42.449  54.329 -55.295  1.00  0.00    -0.104 SA
HETATM   30  C   UNL     1     -40.927  54.440 -56.060  1.00  0.00     0.050 A 
HETATM   31  C   UNL     1     -40.052  55.239 -55.362  1.00  0.00     0.008 A 
HETATM   32  C   UNL     1     -40.644  55.774 -54.181  1.00  0.00     0.017 A 
ENDBRANCH   2  28
BRANCH   1  33
HETATM   33  C   UNL     1     -42.240  54.198 -51.028  1.00  0.00     0.256 C 
HETATM   34  N   UNL     1     -41.064  53.596 -51.428  1.00  0.00    -0.323 N 
HETATM   35  H   UNL     1     -40.464  54.131 -52.041  1.00  0.00     0.169 HD
HETATM   36  O   UNL     1     -43.110  53.725 -50.310  1.00  0.00    -0.267 OA
BRANCH  34  37
HETATM   37  C   UNL     1     -40.608  52.295 -51.103  1.00  0.00     0.041 A 
HETATM   38  C   UNL     1     -40.016  51.505 -52.114  1.00  0.00    -0.035 A 
HETATM   39  C   UNL     1     -39.891  51.976 -53.538  1.00  0.00     0.050 C 
HETATM   40  C   UNL     1     -39.551  50.215 -51.800  1.00  0.00     0.009 A 
HETATM   41  C   UNL     1     -39.658  49.710 -50.507  1.00  0.00     0.001 A 
HETATM   42  C   UNL     1     -40.237  50.487 -49.512  1.00  0.00     0.002 A 
HETATM   43  C   UNL     1     -40.710  51.768 -49.809  1.00  0.00     0.030 A 
ENDBRANCH  34  37
ENDBRANCH   1  33
TORSDOF 8
ENDMDL
MODEL 10
REMARK VINA RESULT:      -7.0      2.721     10.103
REMARK  8 active torsions:
REMARK  status: ('A' for Active; 'I' for Inactive)
REMARK    1  A    between atoms: C_3  and  N_4 
REMARK       I    between atoms: N_4  and  C_5 
REMARK    2  A    between atoms: C_5  and  C_6 
REMARK    3  A    between atoms: C_7  and  C_8 
REMARK    4  A    between atoms: C_17  and  C_18 
REMARK    5  A    between atoms: C_20  and  O_21 
REMARK    6  A    between atoms: C_23  and  O_24 
REMARK    7  A    between atoms: O_24  and  C_25 
REMARK    8  A    between atoms: C_25  and  C_26 
REMARK       I    between atoms: C_26  and  N_27 
ROOT
HETATM    1  C   UNL     1     -47.008  62.118 -54.803  1.00  0.00     0.062 C 
HETATM    2  C   UNL     1     -46.182  61.258 -53.878  1.00  0.00     0.176 C 
HETATM    3  N   UNL     1     -45.355  60.362 -54.672  1.00  0.00    -0.277 N 
HETATM    4  C   UNL     1     -45.129  60.601 -55.990  1.00  0.00     0.177 C 
HETATM    5  S   UNL     1     -43.944  59.504 -56.637  1.00  0.00    -0.046 SA
HETATM    6  C   UNL     1     -43.698  58.758 -55.095  1.00  0.00     0.077 C 
HETATM    7  C   UNL     1     -42.691  57.908 -54.849  1.00  0.00     0.036 C 
HETATM    8  C   UNL     1     -44.691  59.295 -54.114  1.00  0.00     0.267 C 
HETATM    9  O   UNL     1     -44.896  58.831 -53.004  1.00  0.00    -0.266 OA
HETATM   10  N   UNL     1     -45.714  61.495 -56.709  1.00  0.00    -0.228 NA
HETATM   11  C   UNL     1     -46.710  62.241 -56.114  1.00  0.00     0.047 C 
HETATM   12  C   UNL     1     -47.385  63.206 -57.055  1.00  0.00     0.071 C 
ENDROOT
BRANCH   7  13
HETATM   13  C   UNL     1     -42.336  57.412 -53.518  1.00  0.00    -0.032 A 
HETATM   14  C   UNL     1     -41.506  58.192 -52.696  1.00  0.00     0.051 A 
HETATM   15  C   UNL     1     -41.182  57.767 -51.405  1.00  0.00     0.102 A 
HETATM   16  C   UNL     1     -41.694  56.544 -50.944  1.00  0.00     0.102 A 
HETATM   17  C   UNL     1     -42.526  55.766 -51.757  1.00  0.00     0.040 A 
HETATM   18  C   UNL     1     -42.839  56.197 -53.047  1.00  0.00     0.014 A 
BRANCH  15  19
HETATM   19  O   UNL     1     -40.377  58.450 -50.528  1.00  0.00    -0.353 OA
HETATM   20  C   UNL     1     -40.738  59.791 -50.224  1.00  0.00     0.210 C 
ENDBRANCH  15  19
BRANCH  16  21
HETATM   21  O   UNL     1     -41.417  56.189 -49.650  1.00  0.00    -0.339 OA
BRANCH  21  22
HETATM   22  C   UNL     1     -41.544  54.789 -49.398  1.00  0.00     0.278 C 
BRANCH  22  23
HETATM   23  C   UNL     1     -40.240  54.267 -48.804  1.00  0.00     0.239 C 
HETATM   24  N   UNL     1     -40.306  53.874 -47.497  1.00  0.00    -0.368 N 
HETATM   25  H   UNL     1     -41.218  53.737 -47.071  1.00  0.00     0.159 HD
HETATM   26  H   UNL     1     -39.493  53.444 -47.081  1.00  0.00     0.159 HD
HETATM   27  O   UNL     1     -39.178  54.246 -49.421  1.00  0.00    -0.271 OA
ENDBRANCH  22  23
ENDBRANCH  21  22
ENDBRANCH  16  21
ENDBRANCH   7  13
BRANCH   2  28
HETATM   28  C   UNL     1     -45.243  62.040 -52.969  1.00  0.00     0.011 A 
HETATM   29  S   UNL     1     -45.444  61.963 -51.264  1.00  0.00    -0.104 SA
HETATM   30  C   UNL     1     -44.108  62.993 -50.994  1.00  0.00     0.050 A 
HETATM   31  C   UNL     1     -43.522  63.400 -52.169  1.00  0.00     0.008 A 
HETATM   32  C   UNL     1     -44.176  62.854 -53.311  1.00  0.00     0.017 A 
ENDBRANCH   2  28
BRANCH   1  33
HETATM   33  C   UNL     1     -48.138  62.831 -54.145  1.00  0.00     0.256 C 
HETATM   34  N   UNL     1     -49.257  62.040 -53.979  1.00  0.00    -0.323 N 
HETATM   35  H   UNL     1     -49.214  61.106 -54.362  1.00  0.00     0.169 HD
HETATM   36  O   UNL     1     -47.985  63.988 -53.778  1.00  0.00    -0.267 OA
BRANCH  34  37
HETATM   37  C   UNL     1     -50.478  62.394 -53.355  1.00  0.00     0.041 A 
HETATM   38  C   UNL     1     -51.682  62.260 -54.082  1.00  0.00    -0.035 A 
HETATM   39  C   UNL     1     -51.714  61.795 -55.514  1.00  0.00     0.050 C 
HETATM   40  C   UNL     1     -52.901  62.601 -53.469  1.00  0.00     0.009 A 
HETATM   41  C   UNL     1     -52.939  63.060 -52.155  1.00  0.00     0.001 A 
HETATM   42  C   UNL     1     -51.756  63.189 -51.439  1.00  0.00     0.002 A 
HETATM   43  C   UNL     1     -50.536  62.861 -52.035  1.00  0.00     0.030 A 
ENDBRANCH  34  37
ENDBRANCH   1  33
TORSDOF 8
ENDMDL
