MODEL 1
REMARK VINA RESULT:      -8.1      0.000      0.000
REMARK  4 active torsions:
REMARK  status: ('A' for Active; 'I' for Inactive)
REMARK    1  A    between atoms: C_2  and  C_3 
REMARK    2  A    between atoms: C_4  and  C_5 
REMARK       I    between atoms: C_5  and  N_6 
REMARK    3  A    between atoms: N_6  and  C_7 
REMARK    4  A    between atoms: C_14  and  C_15 
REMARK       I    between atoms: C_15  and  N_16 
ROOT
HETATM    1  C   UNL     1     -42.534  56.668 -57.894  1.00  0.00     0.035 A 
HETATM    2  C   UNL     1     -42.113  57.997 -57.744  1.00  0.00     0.046 A 
HETATM    3  C   UNL     1     -42.273  58.905 -58.814  1.00  0.00     0.030 A 
HETATM    4  C   UNL     1     -42.853  58.456 -59.994  1.00  0.00     0.063 A 
HETATM    5  N   UNL     1     -42.868  59.539 -60.826  1.00  0.00    -0.277 N 
HETATM    6  H   UNL     1     -43.220  59.578 -61.777  1.00  0.00     0.189 HD
HETATM    7  N   UNL     1     -42.348  60.658 -60.295  1.00  0.00    -0.168 NA
HETATM    8  C   UNL     1     -41.976  60.282 -59.050  1.00  0.00     0.156 A 
HETATM    9  C   UNL     1     -43.291  57.144 -60.177  1.00  0.00     0.034 A 
HETATM   10  C   UNL     1     -43.117  56.262 -59.103  1.00  0.00     0.032 A 
ENDROOT
BRANCH   1  11
HETATM   11  N   UNL     1     -42.394  55.679 -56.894  1.00  0.00    -0.324 N 
HETATM   12  C   UNL     1     -43.007  55.644 -55.658  1.00  0.00     0.245 C 
HETATM   13  O   UNL     1     -43.827  56.434 -55.214  1.00  0.00    -0.268 OA
HETATM   14  H   UNL     1     -41.751  54.931 -57.113  1.00  0.00     0.169 HD
BRANCH  12  15
HETATM   15  C   UNL     1     -42.541  54.486 -54.841  1.00  0.00     0.075 C 
HETATM   16  C   UNL     1     -41.276  54.457 -54.392  1.00  0.00     0.017 C 
BRANCH  16  17
HETATM   17  C   UNL     1     -40.702  53.363 -53.599  1.00  0.00    -0.036 A 
HETATM   18  C   UNL     1     -40.572  53.435 -52.204  1.00  0.00     0.013 A 
HETATM   19  C   UNL     1     -40.061  52.352 -51.481  1.00  0.00     0.024 A 
HETATM   20  C   UNL     1     -39.689  51.187 -52.147  1.00  0.00     0.034 A 
HETATM   21  C   UNL     1     -39.825  51.094 -53.529  1.00  0.00     0.024 A 
HETATM   22 CL   UNL     1     -39.067  49.855 -51.254  1.00  0.00    -0.084 Cl
HETATM   23  C   UNL     1     -40.336  52.177 -54.251  1.00  0.00     0.013 A 
ENDBRANCH  16  17
ENDBRANCH  12  15
ENDBRANCH   1  11
BRANCH   8  24
HETATM   24  C   UNL     1     -41.348  61.237 -58.126  1.00  0.00     0.270 C 
HETATM   25  N   UNL     1     -42.105  61.527 -57.024  1.00  0.00    -0.365 N 
HETATM   26  H   UNL     1     -43.011  61.084 -56.927  1.00  0.00     0.159 HD
HETATM   27  H   UNL     1     -41.756  62.176 -56.336  1.00  0.00     0.159 HD
HETATM   28  O   UNL     1     -40.246  61.749 -58.290  1.00  0.00    -0.266 OA
ENDBRANCH   8  24
TORSDOF 4
ENDMDL
MODEL 2
REMARK VINA RESULT:      -7.9      2.346      2.588
REMARK  4 active torsions:
REMARK  status: ('A' for Active; 'I' for Inactive)
REMARK    1  A    between atoms: C_2  and  C_3 
REMARK    2  A    between atoms: C_4  and  C_5 
REMARK       I    between atoms: C_5  and  N_6 
REMARK    3  A    between atoms: N_6  and  C_7 
REMARK    4  A    between atoms: C_14  and  C_15 
REMARK       I    between atoms: C_15  and  N_16 
ROOT
HETATM    1  C   UNL     1     -43.549  56.265 -58.009  1.00  0.00     0.035 A 
HETATM    2  C   UNL     1     -44.498  57.282 -57.833  1.00  0.00     0.046 A 
HETATM    3  C   UNL     1     -44.848  58.108 -58.924  1.00  0.00     0.030 A 
HETATM    4  C   UNL     1     -44.242  57.886 -60.154  1.00  0.00     0.063 A 
HETATM    5  N   UNL     1     -44.770  58.826 -60.993  1.00  0.00    -0.277 N 
HETATM    6  H   UNL     1     -44.555  58.963 -61.975  1.00  0.00     0.189 HD
HETATM    7  N   UNL     1     -45.668  59.644 -60.420  1.00  0.00    -0.168 NA
HETATM    8  C   UNL     1     -45.728  59.212 -59.139  1.00  0.00     0.156 A 
HETATM    9  C   UNL     1     -43.300  56.880 -60.369  1.00  0.00     0.034 A 
HETATM   10  C   UNL     1     -42.967  56.078 -59.271  1.00  0.00     0.032 A 
ENDROOT
BRANCH   1  11
HETATM   11  N   UNL     1     -43.113  55.406 -56.976  1.00  0.00    -0.324 N 
HETATM   12  C   UNL     1     -42.336  55.735 -55.883  1.00  0.00     0.245 C 
HETATM   13  O   UNL     1     -41.920  56.843 -55.576  1.00  0.00    -0.268 OA
HETATM   14  H   UNL     1     -43.389  54.439 -57.072  1.00  0.00     0.169 HD
BRANCH  12  15
HETATM   15  C   UNL     1     -42.007  54.538 -55.056  1.00  0.00     0.075 C 
HETATM   16  C   UNL     1     -40.868  54.516 -54.346  1.00  0.00     0.017 C 
BRANCH  16  17
HETATM   17  C   UNL     1     -40.431  53.386 -53.514  1.00  0.00    -0.036 A 
HETATM   18  C   UNL     1     -40.416  53.448 -52.113  1.00  0.00     0.013 A 
HETATM   19  C   UNL     1     -40.036  52.335 -51.357  1.00  0.00     0.024 A 
HETATM   20  C   UNL     1     -39.680  51.150 -51.997  1.00  0.00     0.034 A 
HETATM   21  C   UNL     1     -39.703  51.068 -53.386  1.00  0.00     0.024 A 
HETATM   22 CL   UNL     1     -39.218  49.780 -51.064  1.00  0.00    -0.084 Cl
HETATM   23  C   UNL     1     -40.084  52.182 -54.142  1.00  0.00     0.013 A 
ENDBRANCH  16  17
ENDBRANCH  12  15
ENDBRANCH   1  11
BRANCH   8  24
HETATM   24  C   UNL     1     -46.612  59.861 -58.160  1.00  0.00     0.270 C 
HETATM   25  N   UNL     1     -47.563  59.031 -57.632  1.00  0.00    -0.365 N 
HETATM   26  H   UNL     1     -47.592  58.067 -57.941  1.00  0.00     0.159 HD
HETATM   27  H   UNL     1     -48.216  59.391 -56.954  1.00  0.00     0.159 HD
HETATM   28  O   UNL     1     -46.537  61.036 -57.821  1.00  0.00    -0.266 OA
ENDBRANCH   8  24
TORSDOF 4
ENDMDL
MODEL 3
REMARK VINA RESULT:      -7.8      2.081      3.326
REMARK  4 active torsions:
REMARK  status: ('A' for Active; 'I' for Inactive)
REMARK    1  A    between atoms: C_2  and  C_3 
REMARK    2  A    between atoms: C_4  and  C_5 
REMARK       I    between atoms: C_5  and  N_6 
REMARK    3  A    between atoms: N_6  and  C_7 
REMARK    4  A    between atoms: C_14  and  C_15 
REMARK       I    between atoms: C_15  and  N_16 
ROOT
HETATM    1  C   UNL     1     -42.478  57.031 -57.017  1.00  0.00     0.035 A 
HETATM    2  C   UNL     1     -43.475  56.556 -57.880  1.00  0.00     0.046 A 
HETATM    3  C   UNL     1     -43.956  57.388 -58.916  1.00  0.00     0.030 A 
HETATM    4  C   UNL     1     -43.421  58.663 -59.055  1.00  0.00     0.063 A 
HETATM    5  N   UNL     1     -44.076  59.217 -60.118  1.00  0.00    -0.277 N 
HETATM    6  H   UNL     1     -43.942  60.144 -60.506  1.00  0.00     0.189 HD
HETATM    7  N   UNL     1     -44.994  58.418 -60.687  1.00  0.00    -0.168 NA
HETATM    8  C   UNL     1     -44.932  57.281 -59.954  1.00  0.00     0.156 A 
HETATM    9  C   UNL     1     -42.423  59.166 -58.220  1.00  0.00     0.034 A 
HETATM   10  C   UNL     1     -41.966  58.323 -57.199  1.00  0.00     0.032 A 
ENDROOT
BRANCH   1  11
HETATM   11  N   UNL     1     -41.951  56.286 -55.937  1.00  0.00    -0.324 N 
HETATM   12  C   UNL     1     -41.806  56.697 -54.627  1.00  0.00     0.245 C 
HETATM   13  O   UNL     1     -42.152  57.765 -54.142  1.00  0.00    -0.268 OA
HETATM   14  H   UNL     1     -41.627  55.358 -56.169  1.00  0.00     0.169 HD
BRANCH  12  15
HETATM   15  C   UNL     1     -41.127  55.663 -53.794  1.00  0.00     0.075 C 
HETATM   16  C   UNL     1     -41.281  54.364 -54.094  1.00  0.00     0.017 C 
BRANCH  16  17
HETATM   17  C   UNL     1     -40.679  53.260 -53.334  1.00  0.00    -0.036 A 
HETATM   18  C   UNL     1     -40.543  53.295 -51.939  1.00  0.00     0.013 A 
HETATM   19  C   UNL     1     -40.005  52.204 -51.249  1.00  0.00     0.024 A 
HETATM   20  C   UNL     1     -39.610  51.066 -51.950  1.00  0.00     0.034 A 
HETATM   21  C   UNL     1     -39.752  51.010 -53.334  1.00  0.00     0.024 A 
HETATM   22 CL   UNL     1     -38.955  49.723 -51.099  1.00  0.00    -0.084 Cl
HETATM   23  C   UNL     1     -40.291  52.101 -54.023  1.00  0.00     0.013 A 
ENDBRANCH  16  17
ENDBRANCH  12  15
ENDBRANCH   1  11
BRANCH   8  24
HETATM   24  C   UNL     1     -45.799  56.135 -60.257  1.00  0.00     0.270 C 
HETATM   25  N   UNL     1     -47.016  56.175 -59.633  1.00  0.00    -0.365 N 
HETATM   26  H   UNL     1     -47.225  56.959 -59.026  1.00  0.00     0.159 HD
HETATM   27  H   UNL     1     -47.676  55.428 -59.779  1.00  0.00     0.159 HD
HETATM   28  O   UNL     1     -45.498  55.206 -60.998  1.00  0.00    -0.266 OA
ENDBRANCH   8  24
TORSDOF 4
ENDMDL
MODEL 4
REMARK VINA RESULT:      -7.7      4.701      9.451
REMARK  4 active torsions:
REMARK  status: ('A' for Active; 'I' for Inactive)
REMARK    1  A    between atoms: C_2  and  C_3 
REMARK    2  A    between atoms: C_4  and  C_5 
REMARK       I    between atoms: C_5  and  N_6 
REMARK    3  A    between atoms: N_6  and  C_7 
REMARK    4  A    between atoms: C_14  and  C_15 
REMARK       I    between atoms: C_15  and  N_16 
ROOT
HETATM    1  C   UNL     1     -40.903  54.288 -54.119  1.00  0.00     0.035 A 
HETATM    2  C   UNL     1     -41.056  54.400 -52.730  1.00  0.00     0.046 A 
HETATM    3  C   UNL     1     -40.630  53.345 -51.893  1.00  0.00     0.030 A 
HETATM    4  C   UNL     1     -40.062  52.217 -52.472  1.00  0.00     0.063 A 
HETATM    5  N   UNL     1     -39.760  51.387 -51.430  1.00  0.00    -0.277 N 
HETATM    6  H   UNL     1     -39.333  50.469 -51.480  1.00  0.00     0.189 HD
HETATM    7  N   UNL     1     -40.082  51.872 -50.219  1.00  0.00    -0.168 NA
HETATM    8  C   UNL     1     -40.621  53.083 -50.488  1.00  0.00     0.156 A 
HETATM    9  C   UNL     1     -39.887  52.073 -53.849  1.00  0.00     0.034 A 
HETATM   10  C   UNL     1     -40.321  53.131 -54.657  1.00  0.00     0.032 A 
ENDROOT
BRANCH   1  11
HETATM   11  N   UNL     1     -41.321  55.275 -55.040  1.00  0.00    -0.324 N 
HETATM   12  C   UNL     1     -42.421  55.232 -55.873  1.00  0.00     0.245 C 
HETATM   13  O   UNL     1     -43.270  54.354 -55.936  1.00  0.00    -0.268 OA
HETATM   14  H   UNL     1     -40.726  56.089 -55.102  1.00  0.00     0.169 HD
BRANCH  12  15
HETATM   15  C   UNL     1     -42.485  56.423 -56.769  1.00  0.00     0.075 C 
HETATM   16  C   UNL     1     -42.968  56.291 -58.014  1.00  0.00     0.017 C 
BRANCH  16  17
HETATM   17  C   UNL     1     -43.060  57.387 -58.988  1.00  0.00    -0.036 A 
HETATM   18  C   UNL     1     -41.938  57.886 -59.665  1.00  0.00     0.013 A 
HETATM   19  C   UNL     1     -42.075  58.900 -60.618  1.00  0.00     0.024 A 
HETATM   20  C   UNL     1     -43.337  59.413 -60.909  1.00  0.00     0.034 A 
HETATM   21  C   UNL     1     -44.463  58.918 -60.257  1.00  0.00     0.024 A 
HETATM   22 CL   UNL     1     -43.505  60.655 -62.086  1.00  0.00    -0.084 Cl
HETATM   23  C   UNL     1     -44.325  57.904 -59.304  1.00  0.00     0.013 A 
ENDBRANCH  16  17
ENDBRANCH  12  15
ENDBRANCH   1  11
BRANCH   8  24
HETATM   24  C   UNL     1     -41.114  53.951 -49.410  1.00  0.00     0.270 C 
HETATM   25  N   UNL     1     -40.222  54.132 -48.388  1.00  0.00    -0.365 N 
HETATM   26  H   UNL     1     -39.321  53.670 -48.442  1.00  0.00     0.159 HD
HETATM   27  H   UNL     1     -40.475  54.710 -47.602  1.00  0.00     0.159 HD
HETATM   28  O   UNL     1     -42.217  54.485 -49.389  1.00  0.00    -0.266 OA
ENDBRANCH   8  24
TORSDOF 4
ENDMDL
MODEL 5
REMARK VINA RESULT:      -7.7      4.638      9.530
REMARK  4 active torsions:
REMARK  status: ('A' for Active; 'I' for Inactive)
REMARK    1  A    between atoms: C_2  and  C_3 
REMARK    2  A    between atoms: C_4  and  C_5 
REMARK       I    between atoms: C_5  and  N_6 
REMARK    3  A    between atoms: N_6  and  C_7 
REMARK    4  A    between atoms: C_14  and  C_15 
REMARK       I    between atoms: C_15  and  N_16 
ROOT
HETATM    1  C   UNL     1     -41.069  54.522 -54.118  1.00  0.00     0.035 A 
HETATM    2  C   UNL     1     -40.642  53.187 -54.091  1.00  0.00     0.046 A 
HETATM    3  C   UNL     1     -40.328  52.579 -52.855  1.00  0.00     0.030 A 
HETATM    4  C   UNL     1     -40.455  53.324 -51.690  1.00  0.00     0.063 A 
HETATM    5  N   UNL     1     -40.083  52.483 -50.679  1.00  0.00    -0.277 N 
HETATM    6  H   UNL     1     -40.052  52.692 -49.687  1.00  0.00     0.189 HD
HETATM    7  N   UNL     1     -39.723  51.253 -51.081  1.00  0.00    -0.168 NA
HETATM    8  C   UNL     1     -39.869  51.296 -52.425  1.00  0.00     0.156 A 
HETATM    9  C   UNL     1     -40.884  54.652 -51.677  1.00  0.00     0.034 A 
HETATM   10  C   UNL     1     -41.185  55.233 -52.915  1.00  0.00     0.032 A 
ENDROOT
BRANCH   1  11
HETATM   11  N   UNL     1     -41.380  55.226 -55.303  1.00  0.00    -0.324 N 
HETATM   12  C   UNL     1     -42.487  55.059 -56.111  1.00  0.00     0.245 C 
HETATM   13  O   UNL     1     -43.432  54.305 -55.928  1.00  0.00    -0.268 OA
HETATM   14  H   UNL     1     -40.696  55.910 -55.593  1.00  0.00     0.169 HD
BRANCH  12  15
HETATM   15  C   UNL     1     -42.423  55.924 -57.325  1.00  0.00     0.075 C 
HETATM   16  C   UNL     1     -42.250  57.248 -57.187  1.00  0.00     0.017 C 
BRANCH  16  17
HETATM   17  C   UNL     1     -42.192  58.197 -58.306  1.00  0.00    -0.036 A 
HETATM   18  C   UNL     1     -42.111  59.584 -58.111  1.00  0.00     0.013 A 
HETATM   19  C   UNL     1     -42.012  60.451 -59.204  1.00  0.00     0.024 A 
HETATM   20  C   UNL     1     -41.982  59.936 -60.497  1.00  0.00     0.034 A 
HETATM   21  C   UNL     1     -42.047  58.562 -60.708  1.00  0.00     0.024 A 
HETATM   22 CL   UNL     1     -41.854  61.004 -61.839  1.00  0.00    -0.084 Cl
HETATM   23  C   UNL     1     -42.145  57.695 -59.615  1.00  0.00     0.013 A 
ENDBRANCH  16  17
ENDBRANCH  12  15
ENDBRANCH   1  11
BRANCH   8  24
HETATM   24  C   UNL     1     -39.566  50.124 -53.259  1.00  0.00     0.270 C 
HETATM   25  N   UNL     1     -39.343  48.977 -52.548  1.00  0.00    -0.365 N 
HETATM   26  H   UNL     1     -39.397  49.013 -51.537  1.00  0.00     0.159 HD
HETATM   27  H   UNL     1     -39.124  48.123 -53.037  1.00  0.00     0.159 HD
HETATM   28  O   UNL     1     -39.509  50.132 -54.483  1.00  0.00    -0.266 OA
ENDBRANCH   8  24
TORSDOF 4
ENDMDL
MODEL 6
REMARK VINA RESULT:      -7.6      5.562      6.959
REMARK  4 active torsions:
REMARK  status: ('A' for Active; 'I' for Inactive)
REMARK    1  A    between atoms: C_2  and  C_3 
REMARK    2  A    between atoms: C_4  and  C_5 
REMARK       I    between atoms: C_5  and  N_6 
REMARK    3  A    between atoms: N_6  and  C_7 
REMARK    4  A    between atoms: C_14  and  C_15 
REMARK       I    between atoms: C_15  and  N_16 
ROOT
HETATM    1  C   UNL     1     -44.391  58.510 -52.263  1.00  0.00     0.035 A 
HETATM    2  C   UNL     1     -44.624  58.927 -50.945  1.00  0.00     0.046 A 
HETATM    3  C   UNL     1     -45.405  60.080 -50.705  1.00  0.00     0.030 A 
HETATM    4  C   UNL     1     -45.928  60.772 -51.790  1.00  0.00     0.063 A 
HETATM    5  N   UNL     1     -46.619  61.821 -51.251  1.00  0.00    -0.277 N 
HETATM    6  H   UNL     1     -47.131  62.540 -51.750  1.00  0.00     0.189 HD
HETATM    7  N   UNL     1     -46.592  61.877 -49.909  1.00  0.00    -0.168 NA
HETATM    8  C   UNL     1     -45.844  60.805 -49.556  1.00  0.00     0.156 A 
HETATM    9  C   UNL     1     -45.724  60.383 -53.114  1.00  0.00     0.034 A 
HETATM   10  C   UNL     1     -44.944  59.239 -53.325  1.00  0.00     0.032 A 
ENDROOT
BRANCH   1  11
HETATM   11  N   UNL     1     -43.604  57.387 -52.607  1.00  0.00    -0.324 N 
HETATM   12  C   UNL     1     -42.266  57.186 -52.332  1.00  0.00     0.245 C 
HETATM   13  O   UNL     1     -41.521  57.918 -51.696  1.00  0.00    -0.268 OA
HETATM   14  H   UNL     1     -44.081  56.669 -53.133  1.00  0.00     0.169 HD
BRANCH  12  15
HETATM   15  C   UNL     1     -41.761  55.918 -52.934  1.00  0.00     0.075 C 
HETATM   16  C   UNL     1     -41.275  54.953 -52.138  1.00  0.00     0.017 C 
BRANCH  16  17
HETATM   17  C   UNL     1     -40.734  53.675 -52.618  1.00  0.00    -0.036 A 
HETATM   18  C   UNL     1     -39.988  52.819 -51.795  1.00  0.00     0.013 A 
HETATM   19  C   UNL     1     -39.529  51.589 -52.279  1.00  0.00     0.024 A 
HETATM   20  C   UNL     1     -39.823  51.204 -53.584  1.00  0.00     0.034 A 
HETATM   21  C   UNL     1     -40.575  52.036 -54.409  1.00  0.00     0.024 A 
HETATM   22 CL   UNL     1     -39.263  49.689 -54.175  1.00  0.00    -0.084 Cl
HETATM   23  C   UNL     1     -41.034  53.265 -53.925  1.00  0.00     0.013 A 
ENDBRANCH  16  17
ENDBRANCH  12  15
ENDBRANCH   1  11
BRANCH   8  24
HETATM   24  C   UNL     1     -45.568  60.505 -48.144  1.00  0.00     0.270 C 
HETATM   25  N   UNL     1     -44.405  61.053 -47.675  1.00  0.00    -0.365 N 
HETATM   26  H   UNL     1     -43.837  61.602 -48.308  1.00  0.00     0.159 HD
HETATM   27  H   UNL     1     -44.132  60.897 -46.717  1.00  0.00     0.159 HD
HETATM   28  O   UNL     1     -46.289  59.830 -47.418  1.00  0.00    -0.266 OA
ENDBRANCH   8  24
TORSDOF 4
ENDMDL
MODEL 7
REMARK VINA RESULT:      -7.6     16.911     20.649
REMARK  4 active torsions:
REMARK  status: ('A' for Active; 'I' for Inactive)
REMARK    1  A    between atoms: C_2  and  C_3 
REMARK    2  A    between atoms: C_4  and  C_5 
REMARK       I    between atoms: C_5  and  N_6 
REMARK    3  A    between atoms: N_6  and  C_7 
REMARK    4  A    between atoms: C_14  and  C_15 
REMARK       I    between atoms: C_15  and  N_16 
ROOT
HETATM    1  C   UNL     1     -33.263  39.235 -49.784  1.00  0.00     0.035 A 
HETATM    2  C   UNL     1     -32.081  39.603 -49.126  1.00  0.00     0.046 A 
HETATM    3  C   UNL     1     -31.847  39.154 -47.807  1.00  0.00     0.030 A 
HETATM    4  C   UNL     1     -32.798  38.348 -47.195  1.00  0.00     0.063 A 
HETATM    5  N   UNL     1     -32.302  38.083 -45.949  1.00  0.00    -0.277 N 
HETATM    6  H   UNL     1     -32.733  37.523 -45.223  1.00  0.00     0.189 HD
HETATM    7  N   UNL     1     -31.109  38.646 -45.693  1.00  0.00    -0.168 NA
HETATM    8  C   UNL     1     -30.814  39.312 -46.833  1.00  0.00     0.156 A 
HETATM    9  C   UNL     1     -33.981  37.955 -47.820  1.00  0.00     0.034 A 
HETATM   10  C   UNL     1     -34.192  38.417 -49.125  1.00  0.00     0.032 A 
ENDROOT
BRANCH   1  11
HETATM   11  N   UNL     1     -33.601  39.655 -51.090  1.00  0.00    -0.324 N 
HETATM   12  C   UNL     1     -34.099  40.884 -51.473  1.00  0.00     0.245 C 
HETATM   13  O   UNL     1     -34.294  41.859 -50.763  1.00  0.00    -0.268 OA
HETATM   14  H   UNL     1     -33.481  38.959 -51.813  1.00  0.00     0.169 HD
BRANCH  12  15
HETATM   15  C   UNL     1     -34.419  40.923 -52.930  1.00  0.00     0.075 C 
HETATM   16  C   UNL     1     -35.444  41.673 -53.364  1.00  0.00     0.017 C 
BRANCH  16  17
HETATM   17  C   UNL     1     -35.863  41.772 -54.769  1.00  0.00    -0.036 A 
HETATM   18  C   UNL     1     -37.206  41.677 -55.160  1.00  0.00     0.013 A 
HETATM   19  C   UNL     1     -37.567  41.822 -56.503  1.00  0.00     0.024 A 
HETATM   20  C   UNL     1     -36.588  42.074 -57.461  1.00  0.00     0.034 A 
HETATM   21  C   UNL     1     -35.252  42.186 -57.088  1.00  0.00     0.024 A 
HETATM   22 CL   UNL     1     -37.035  42.259 -59.112  1.00  0.00    -0.084 Cl
HETATM   23  C   UNL     1     -34.892  42.041 -55.744  1.00  0.00     0.013 A 
ENDBRANCH  16  17
ENDBRANCH  12  15
ENDBRANCH   1  11
BRANCH   8  24
HETATM   24  C   UNL     1     -29.567  40.078 -46.962  1.00  0.00     0.270 C 
HETATM   25  N   UNL     1     -29.565  41.262 -46.276  1.00  0.00    -0.365 N 
HETATM   26  H   UNL     1     -30.392  41.519 -45.750  1.00  0.00     0.159 HD
HETATM   27  H   UNL     1     -28.752  41.856 -46.309  1.00  0.00     0.159 HD
HETATM   28  O   UNL     1     -28.592  39.724 -47.616  1.00  0.00    -0.266 OA
ENDBRANCH   8  24
TORSDOF 4
ENDMDL
MODEL 8
REMARK VINA RESULT:      -7.2      5.334      6.125
REMARK  4 active torsions:
REMARK  status: ('A' for Active; 'I' for Inactive)
REMARK    1  A    between atoms: C_2  and  C_3 
REMARK    2  A    between atoms: C_4  and  C_5 
REMARK       I    between atoms: C_5  and  N_6 
REMARK    3  A    between atoms: N_6  and  C_7 
REMARK    4  A    between atoms: C_14  and  C_15 
REMARK       I    between atoms: C_15  and  N_16 
ROOT
HETATM    1  C   UNL     1     -43.131  58.834 -51.930  1.00  0.00     0.035 A 
HETATM    2  C   UNL     1     -44.184  59.598 -52.451  1.00  0.00     0.046 A 
HETATM    3  C   UNL     1     -44.331  60.947 -52.057  1.00  0.00     0.030 A 
HETATM    4  C   UNL     1     -43.417  61.486 -51.161  1.00  0.00     0.063 A 
HETATM    5  N   UNL     1     -43.814  62.780 -50.972  1.00  0.00    -0.277 N 
HETATM    6  H   UNL     1     -43.378  63.475 -50.377  1.00  0.00     0.189 HD
HETATM    7  N   UNL     1     -44.908  63.134 -51.666  1.00  0.00    -0.168 NA
HETATM    8  C   UNL     1     -45.240  62.010 -52.343  1.00  0.00     0.156 A 
HETATM    9  C   UNL     1     -42.352  60.759 -50.628  1.00  0.00     0.034 A 
HETATM   10  C   UNL     1     -42.231  59.423 -51.031  1.00  0.00     0.032 A 
ENDROOT
BRANCH   1  11
HETATM   11  N   UNL     1     -42.916  57.472 -52.241  1.00  0.00    -0.324 N 
HETATM   12  C   UNL     1     -43.453  56.372 -51.605  1.00  0.00     0.245 C 
HETATM   13  O   UNL     1     -44.257  56.367 -50.683  1.00  0.00    -0.268 OA
HETATM   14  H   UNL     1     -42.276  57.298 -53.003  1.00  0.00     0.169 HD
BRANCH  12  15
HETATM   15  C   UNL     1     -42.922  55.094 -52.162  1.00  0.00     0.075 C 
HETATM   16  C   UNL     1     -41.617  54.808 -52.037  1.00  0.00     0.017 C 
BRANCH  16  17
HETATM   17  C   UNL     1     -40.980  53.593 -52.562  1.00  0.00    -0.036 A 
HETATM   18  C   UNL     1     -40.118  52.802 -51.788  1.00  0.00     0.013 A 
HETATM   19  C   UNL     1     -39.567  51.628 -52.312  1.00  0.00     0.024 A 
HETATM   20  C   UNL     1     -39.884  51.233 -53.610  1.00  0.00     0.034 A 
HETATM   21  C   UNL     1     -40.749  51.999 -54.386  1.00  0.00     0.024 A 
HETATM   22 CL   UNL     1     -39.211  49.785 -54.250  1.00  0.00    -0.084 Cl
HETATM   23  C   UNL     1     -41.300  53.172 -53.861  1.00  0.00     0.013 A 
ENDBRANCH  16  17
ENDBRANCH  12  15
ENDBRANCH   1  11
BRANCH   8  24
HETATM   24  C   UNL     1     -46.408  61.979 -53.234  1.00  0.00     0.270 C 
HETATM   25  N   UNL     1     -47.501  61.351 -52.700  1.00  0.00    -0.365 N 
HETATM   26  H   UNL     1     -47.430  60.964 -51.766  1.00  0.00     0.159 HD
HETATM   27  H   UNL     1     -48.347  61.278 -53.241  1.00  0.00     0.159 HD
HETATM   28  O   UNL     1     -46.443  62.461 -54.360  1.00  0.00    -0.266 OA
ENDBRANCH   8  24
TORSDOF 4
ENDMDL
MODEL 9
REMARK VINA RESULT:      -7.2      4.825      9.586
REMARK  4 active torsions:
REMARK  status: ('A' for Active; 'I' for Inactive)
REMARK    1  A    between atoms: C_2  and  C_3 
REMARK    2  A    between atoms: C_4  and  C_5 
REMARK       I    between atoms: C_5  and  N_6 
REMARK    3  A    between atoms: N_6  and  C_7 
REMARK    4  A    between atoms: C_14  and  C_15 
REMARK       I    between atoms: C_15  and  N_16 
ROOT
HETATM    1  C   UNL     1     -41.531  55.641 -52.709  1.00  0.00     0.035 A 
HETATM    2  C   UNL     1     -41.114  54.367 -52.299  1.00  0.00     0.046 A 
HETATM    3  C   UNL     1     -40.914  54.106 -50.925  1.00  0.00     0.030 A 
HETATM    4  C   UNL     1     -41.141  55.125 -50.009  1.00  0.00     0.063 A 
HETATM    5  N   UNL     1     -40.864  54.582 -48.787  1.00  0.00    -0.277 N 
HETATM    6  H   UNL     1     -40.919  55.041 -47.884  1.00  0.00     0.189 HD
HETATM    7  N   UNL     1     -40.474  53.297 -48.822  1.00  0.00    -0.168 NA
HETATM    8  C   UNL     1     -40.500  52.987 -50.139  1.00  0.00     0.156 A 
HETATM    9  C   UNL     1     -41.563  56.403 -50.379  1.00  0.00     0.034 A 
HETATM   10  C   UNL     1     -41.750  56.637 -51.747  1.00  0.00     0.032 A 
ENDROOT
BRANCH   1  11
HETATM   11  N   UNL     1     -41.733  56.008 -54.059  1.00  0.00    -0.324 N 
HETATM   12  C   UNL     1     -42.712  55.546 -54.916  1.00  0.00     0.245 C 
HETATM   13  O   UNL     1     -43.621  54.770 -54.654  1.00  0.00    -0.268 OA
HETATM   14  H   UNL     1     -41.064  56.666 -54.433  1.00  0.00     0.169 HD
BRANCH  12  15
HETATM   15  C   UNL     1     -42.550  56.098 -56.292  1.00  0.00     0.075 C 
HETATM   16  C   UNL     1     -42.439  57.424 -56.466  1.00  0.00     0.017 C 
BRANCH  16  17
HETATM   17  C   UNL     1     -42.296  58.080 -57.772  1.00  0.00    -0.036 A 
HETATM   18  C   UNL     1     -42.464  57.390 -58.982  1.00  0.00     0.013 A 
HETATM   19  C   UNL     1     -42.363  58.063 -60.204  1.00  0.00     0.024 A 
HETATM   20  C   UNL     1     -42.105  59.431 -60.223  1.00  0.00     0.034 A 
HETATM   21  C   UNL     1     -41.949  60.134 -59.032  1.00  0.00     0.024 A 
HETATM   22 CL   UNL     1     -41.987  60.257 -61.728  1.00  0.00    -0.084 Cl
HETATM   23  C   UNL     1     -42.051  59.461 -57.810  1.00  0.00     0.013 A 
ENDBRANCH  16  17
ENDBRANCH  12  15
ENDBRANCH   1  11
BRANCH   8  24
HETATM   24  C   UNL     1     -40.129  51.646 -50.610  1.00  0.00     0.270 C 
HETATM   25  N   UNL     1     -39.426  51.640 -51.784  1.00  0.00    -0.365 N 
HETATM   26  H   UNL     1     -39.220  52.526 -52.230  1.00  0.00     0.159 HD
HETATM   27  H   UNL     1     -39.132  50.764 -52.185  1.00  0.00     0.159 HD
HETATM   28  O   UNL     1     -40.406  50.600 -50.033  1.00  0.00    -0.266 OA
ENDBRANCH   8  24
TORSDOF 4
ENDMDL
MODEL 10
REMARK VINA RESULT:      -7.1      4.563      5.511
REMARK  4 active torsions:
REMARK  status: ('A' for Active; 'I' for Inactive)
REMARK    1  A    between atoms: C_2  and  C_3 
REMARK    2  A    between atoms: C_4  and  C_5 
REMARK       I    between atoms: C_5  and  N_6 
REMARK    3  A    between atoms: N_6  and  C_7 
REMARK    4  A    between atoms: C_14  and  C_15 
REMARK       I    between atoms: C_15  and  N_16 
ROOT
HETATM    1  C   UNL     1     -43.838  58.167 -51.891  1.00  0.00     0.035 A 
HETATM    2  C   UNL     1     -43.673  59.260 -52.754  1.00  0.00     0.046 A 
HETATM    3  C   UNL     1     -44.628  60.301 -52.753  1.00  0.00     0.030 A 
HETATM    4  C   UNL     1     -45.711  60.217 -51.887  1.00  0.00     0.063 A 
HETATM    5  N   UNL     1     -46.446  61.345 -52.115  1.00  0.00    -0.277 N 
HETATM    6  H   UNL     1     -47.311  61.617 -51.660  1.00  0.00     0.189 HD
HETATM    7  N   UNL     1     -45.941  62.160 -53.056  1.00  0.00    -0.168 NA
HETATM    8  C   UNL     1     -44.815  61.528 -53.460  1.00  0.00     0.156 A 
HETATM    9  C   UNL     1     -45.904  59.149 -51.010  1.00  0.00     0.034 A 
HETATM   10  C   UNL     1     -44.946  58.128 -51.033  1.00  0.00     0.032 A 
ENDROOT
BRANCH   1  11
HETATM   11  N   UNL     1     -42.954  57.066 -51.837  1.00  0.00    -0.324 N 
HETATM   12  C   UNL     1     -41.760  56.982 -51.150  1.00  0.00     0.245 C 
HETATM   13  O   UNL     1     -41.265  57.828 -50.418  1.00  0.00    -0.268 OA
HETATM   14  H   UNL     1     -43.229  56.263 -52.386  1.00  0.00     0.169 HD
BRANCH  12  15
HETATM   15  C   UNL     1     -41.062  55.689 -51.406  1.00  0.00     0.075 C 
HETATM   16  C   UNL     1     -41.403  54.952 -52.475  1.00  0.00     0.017 C 
BRANCH  16  17
HETATM   17  C   UNL     1     -40.801  53.656 -52.815  1.00  0.00    -0.036 A 
HETATM   18  C   UNL     1     -40.131  52.868 -51.868  1.00  0.00     0.013 A 
HETATM   19  C   UNL     1     -39.610  51.619 -52.223  1.00  0.00     0.024 A 
HETATM   20  C   UNL     1     -39.767  51.146 -53.523  1.00  0.00     0.034 A 
HETATM   21  C   UNL     1     -40.442  51.910 -54.471  1.00  0.00     0.024 A 
HETATM   22 CL   UNL     1     -39.132  49.607 -53.955  1.00  0.00    -0.084 Cl
HETATM   23  C   UNL     1     -40.963  53.158 -54.116  1.00  0.00     0.013 A 
ENDBRANCH  16  17
ENDBRANCH  12  15
ENDBRANCH   1  11
BRANCH   8  24
HETATM   24  C   UNL     1     -43.955  62.104 -54.504  1.00  0.00     0.270 C 
HETATM   25  N   UNL     1     -42.800  62.664 -54.030  1.00  0.00    -0.365 N 
HETATM   26  H   UNL     1     -42.627  62.647 -53.032  1.00  0.00     0.159 HD
HETATM   27  H   UNL     1     -42.151  63.087 -54.673  1.00  0.00     0.159 HD
HETATM   28  O   UNL     1     -44.213  62.102 -55.702  1.00  0.00    -0.266 OA
ENDBRANCH   8  24
TORSDOF 4
ENDMDL
