MODEL 1
REMARK VINA RESULT:      -8.1      0.000      0.000
REMARK  5 active torsions:
REMARK  status: ('A' for Active; 'I' for Inactive)
REMARK    1  A    between atoms: O_2  and  C_3 
REMARK    2  A    between atoms: C_6  and  C_7 
REMARK    3  A    between atoms: C_12  and  C_13 
REMARK    4  A    between atoms: N_14  and  N_15 
REMARK       I    between atoms: N_15  and  C_16 
REMARK    5  A    between atoms: C_16  and  C_17 
ROOT
HETATM    1  C   UNL     1     -41.373  57.170 -51.608  1.00  0.00     0.154 C 
HETATM    2  N   UNL     1     -40.837  57.541 -52.728  1.00  0.00    -0.183 NA
ENDROOT
BRANCH   1   3
HETATM    3  C   UNL     1     -42.473  56.252 -51.411  1.00  0.00     0.031 A 
HETATM    4  C   UNL     1     -42.627  54.847 -51.650  1.00  0.00     0.100 A 
HETATM    5  N   UNL     1     -43.849  54.439 -51.259  1.00  0.00    -0.174 NA
HETATM    6  N   UNL     1     -44.485  55.552 -50.885  1.00  0.00    -0.288 N 
HETATM    7  H   UNL     1     -45.452  55.474 -50.583  1.00  0.00     0.188 HD
HETATM    8  C   UNL     1     -43.712  56.665 -50.961  1.00  0.00     0.124 A 
BRANCH   4   9
HETATM    9  C   UNL     1     -41.688  53.869 -52.215  1.00  0.00    -0.005 A 
HETATM   10  C   UNL     1     -40.705  53.252 -51.434  1.00  0.00     0.016 A 
HETATM   11  C   UNL     1     -39.851  52.295 -51.994  1.00  0.00     0.037 A 
HETATM   12  C   UNL     1     -39.952  51.946 -53.341  1.00  0.00     0.068 A 
HETATM   13  C   UNL     1     -40.908  52.576 -54.135  1.00  0.00     0.037 A 
HETATM   14  C   UNL     1     -41.766  53.531 -53.575  1.00  0.00     0.016 A 
BRANCH  12  15
HETATM   15  O   UNL     1     -39.063  50.996 -53.757  1.00  0.00    -0.356 OA
HETATM   16  C   UNL     1     -39.601  49.858 -54.418  1.00  0.00     0.210 C 
ENDBRANCH  12  15
ENDBRANCH   4   9
ENDBRANCH   1   3
BRANCH   2  17
HETATM   17  N   UNL     1     -41.246  57.002 -53.912  1.00  0.00    -0.243 N 
HETATM   18  C   UNL     1     -41.846  57.825 -54.856  1.00  0.00     0.271 C 
HETATM   19  O   UNL     1     -41.975  59.040 -54.718  1.00  0.00    -0.266 OA
HETATM   20  H   UNL     1     -41.129  56.012 -54.060  1.00  0.00     0.192 HD
BRANCH  18  21
HETATM   21  C   UNL     1     -42.372  57.179 -56.102  1.00  0.00     0.036 A 
HETATM   22  C   UNL     1     -42.632  58.022 -57.199  1.00  0.00     0.057 A 
HETATM   23  C   UNL     1     -43.137  57.463 -58.353  1.00  0.00     0.106 A 
HETATM   24  C   UNL     1     -43.389  56.118 -58.456  1.00  0.00     0.105 A 
HETATM   25  O   UNL     1     -43.445  58.137 -59.494  1.00  0.00    -0.323 OA
HETATM   26  O   UNL     1     -43.888  55.772 -59.672  1.00  0.00    -0.323 OA
HETATM   27  C   UNL     1     -43.144  55.257 -57.411  1.00  0.00     0.041 A 
HETATM   28  C   UNL     1     -43.925  57.060 -60.324  1.00  0.00     0.352 A 
HETATM   29  C   UNL     1     -42.628  55.793 -56.223  1.00  0.00     0.020 A 
ENDBRANCH  18  21
ENDBRANCH   2  17
TORSDOF 5
ENDMDL
MODEL 2
REMARK VINA RESULT:      -8.1      0.757      1.350
REMARK  5 active torsions:
REMARK  status: ('A' for Active; 'I' for Inactive)
REMARK    1  A    between atoms: O_2  and  C_3 
REMARK    2  A    between atoms: C_6  and  C_7 
REMARK    3  A    between atoms: C_12  and  C_13 
REMARK    4  A    between atoms: N_14  and  N_15 
REMARK       I    between atoms: N_15  and  C_16 
REMARK    5  A    between atoms: C_16  and  C_17 
ROOT
HETATM    1  C   UNL     1     -41.186  57.201 -51.604  1.00  0.00     0.154 C 
HETATM    2  N   UNL     1     -40.775  57.753 -52.703  1.00  0.00    -0.183 NA
ENDROOT
BRANCH   1   3
HETATM    3  C   UNL     1     -42.321  56.324 -51.421  1.00  0.00     0.031 A 
HETATM    4  C   UNL     1     -42.532  54.931 -51.685  1.00  0.00     0.100 A 
HETATM    5  N   UNL     1     -43.767  54.565 -51.298  1.00  0.00    -0.174 NA
HETATM    6  N   UNL     1     -44.358  55.695 -50.901  1.00  0.00    -0.288 N 
HETATM    7  H   UNL     1     -45.326  55.651 -50.597  1.00  0.00     0.188 HD
HETATM    8  C   UNL     1     -43.541  56.778 -50.959  1.00  0.00     0.124 A 
BRANCH   4   9
HETATM    9  C   UNL     1     -41.633  53.928 -52.271  1.00  0.00    -0.005 A 
HETATM   10  C   UNL     1     -40.702  53.228 -51.497  1.00  0.00     0.016 A 
HETATM   11  C   UNL     1     -39.888  52.250 -52.079  1.00  0.00     0.037 A 
HETATM   12  C   UNL     1     -39.978  51.961 -53.441  1.00  0.00     0.068 A 
HETATM   13  C   UNL     1     -40.881  52.672 -54.227  1.00  0.00     0.037 A 
HETATM   14  C   UNL     1     -41.699  53.649 -53.645  1.00  0.00     0.016 A 
BRANCH  12  15
HETATM   15  O   UNL     1     -39.131  50.981 -53.878  1.00  0.00    -0.356 OA
HETATM   16  C   UNL     1     -39.728  49.826 -54.454  1.00  0.00     0.210 C 
ENDBRANCH  12  15
ENDBRANCH   4   9
ENDBRANCH   1   3
BRANCH   2  17
HETATM   17  N   UNL     1     -41.381  57.476 -53.893  1.00  0.00    -0.243 N 
HETATM   18  C   UNL     1     -41.739  58.526 -54.728  1.00  0.00     0.271 C 
HETATM   19  O   UNL     1     -41.483  59.705 -54.489  1.00  0.00    -0.266 OA
HETATM   20  H   UNL     1     -41.580  56.515 -54.124  1.00  0.00     0.192 HD
BRANCH  18  21
HETATM   21  C   UNL     1     -42.491  58.188 -55.980  1.00  0.00     0.036 A 
HETATM   22  C   UNL     1     -42.506  56.836 -56.371  1.00  0.00     0.057 A 
HETATM   23  C   UNL     1     -43.170  56.494 -57.530  1.00  0.00     0.106 A 
HETATM   24  C   UNL     1     -43.810  57.431 -58.300  1.00  0.00     0.105 A 
HETATM   25  O   UNL     1     -43.273  55.239 -58.046  1.00  0.00    -0.323 OA
HETATM   26  O   UNL     1     -44.397  56.889 -59.401  1.00  0.00    -0.323 OA
HETATM   27  C   UNL     1     -43.826  58.763 -57.952  1.00  0.00     0.041 A 
HETATM   28  C   UNL     1     -44.048  55.497 -59.234  1.00  0.00     0.352 A 
HETATM   29  C   UNL     1     -43.162  59.144 -56.779  1.00  0.00     0.020 A 
ENDBRANCH  18  21
ENDBRANCH   2  17
TORSDOF 5
ENDMDL
MODEL 3
REMARK VINA RESULT:      -7.7      1.916      2.769
REMARK  5 active torsions:
REMARK  status: ('A' for Active; 'I' for Inactive)
REMARK    1  A    between atoms: O_2  and  C_3 
REMARK    2  A    between atoms: C_6  and  C_7 
REMARK    3  A    between atoms: C_12  and  C_13 
REMARK    4  A    between atoms: N_14  and  N_15 
REMARK       I    between atoms: N_15  and  C_16 
REMARK    5  A    between atoms: C_16  and  C_17 
ROOT
HETATM    1  C   UNL     1     -43.724  57.553 -52.526  1.00  0.00     0.154 C 
HETATM    2  N   UNL     1     -44.570  57.264 -53.467  1.00  0.00    -0.183 NA
ENDROOT
BRANCH   1   3
HETATM    3  C   UNL     1     -42.346  57.966 -52.667  1.00  0.00     0.031 A 
HETATM    4  C   UNL     1     -41.151  57.270 -53.043  1.00  0.00     0.100 A 
HETATM    5  N   UNL     1     -40.105  58.116 -53.067  1.00  0.00    -0.174 NA
HETATM    6  N   UNL     1     -40.589  59.280 -52.623  1.00  0.00    -0.288 N 
HETATM    7  H   UNL     1     -39.947  60.061 -52.525  1.00  0.00     0.188 HD
HETATM    8  C   UNL     1     -41.921  59.245 -52.364  1.00  0.00     0.124 A 
BRANCH   4   9
HETATM    9  C   UNL     1     -40.942  55.858 -53.390  1.00  0.00    -0.005 A 
HETATM   10  C   UNL     1     -41.276  54.823 -52.511  1.00  0.00     0.016 A 
HETATM   11  C   UNL     1     -41.101  53.487 -52.888  1.00  0.00     0.037 A 
HETATM   12  C   UNL     1     -40.581  53.159 -54.140  1.00  0.00     0.068 A 
HETATM   13  C   UNL     1     -40.218  54.181 -55.013  1.00  0.00     0.037 A 
HETATM   14  C   UNL     1     -40.395  55.519 -54.639  1.00  0.00     0.016 A 
BRANCH  12  15
HETATM   15  O   UNL     1     -40.469  51.818 -54.382  1.00  0.00    -0.356 OA
HETATM   16  C   UNL     1     -39.479  51.112 -53.644  1.00  0.00     0.210 C 
ENDBRANCH  12  15
ENDBRANCH   4   9
ENDBRANCH   1   3
BRANCH   2  17
HETATM   17  N   UNL     1     -44.229  57.405 -54.779  1.00  0.00    -0.243 N 
HETATM   18  C   UNL     1     -43.824  56.286 -55.495  1.00  0.00     0.271 C 
HETATM   19  O   UNL     1     -43.814  55.147 -55.031  1.00  0.00    -0.266 OA
HETATM   20  H   UNL     1     -44.252  58.325 -55.191  1.00  0.00     0.192 HD
BRANCH  18  21
HETATM   21  C   UNL     1     -43.363  56.497 -56.906  1.00  0.00     0.036 A 
HETATM   22  C   UNL     1     -43.027  57.812 -57.278  1.00  0.00     0.057 A 
HETATM   23  C   UNL     1     -42.621  58.045 -58.575  1.00  0.00     0.106 A 
HETATM   24  C   UNL     1     -42.538  57.034 -59.499  1.00  0.00     0.105 A 
HETATM   25  O   UNL     1     -42.268  59.252 -59.092  1.00  0.00    -0.323 OA
HETATM   26  O   UNL     1     -42.123  57.475 -60.717  1.00  0.00    -0.323 OA
HETATM   27  C   UNL     1     -42.851  55.733 -59.176  1.00  0.00     0.041 A 
HETATM   28  C   UNL     1     -41.958  58.884 -60.452  1.00  0.00     0.352 A 
HETATM   29  C   UNL     1     -43.266  55.462 -57.866  1.00  0.00     0.020 A 
ENDBRANCH  18  21
ENDBRANCH   2  17
TORSDOF 5
ENDMDL
MODEL 4
REMARK VINA RESULT:      -7.5      1.697      6.258
REMARK  5 active torsions:
REMARK  status: ('A' for Active; 'I' for Inactive)
REMARK    1  A    between atoms: O_2  and  C_3 
REMARK    2  A    between atoms: C_6  and  C_7 
REMARK    3  A    between atoms: C_12  and  C_13 
REMARK    4  A    between atoms: N_14  and  N_15 
REMARK       I    between atoms: N_15  and  C_16 
REMARK    5  A    between atoms: C_16  and  C_17 
ROOT
HETATM    1  C   UNL     1     -43.566  58.048 -51.746  1.00  0.00     0.154 C 
HETATM    2  N   UNL     1     -44.005  56.842 -51.560  1.00  0.00    -0.183 NA
ENDROOT
BRANCH   1   3
HETATM    3  C   UNL     1     -42.270  58.454 -52.241  1.00  0.00     0.031 A 
HETATM    4  C   UNL     1     -41.627  58.328 -53.516  1.00  0.00     0.100 A 
HETATM    5  N   UNL     1     -40.415  58.912 -53.487  1.00  0.00    -0.174 NA
HETATM    6  N   UNL     1     -40.246  59.302 -52.220  1.00  0.00    -0.288 N 
HETATM    7  H   UNL     1     -39.366  59.741 -51.966  1.00  0.00     0.188 HD
HETATM    8  C   UNL     1     -41.321  59.048 -51.431  1.00  0.00     0.124 A 
BRANCH   4   9
HETATM    9  C   UNL     1     -42.094  57.699 -54.758  1.00  0.00    -0.005 A 
HETATM   10  C   UNL     1     -41.875  56.345 -55.028  1.00  0.00     0.016 A 
HETATM   11  C   UNL     1     -42.369  55.767 -56.204  1.00  0.00     0.037 A 
HETATM   12  C   UNL     1     -43.075  56.529 -57.134  1.00  0.00     0.068 A 
HETATM   13  C   UNL     1     -43.274  57.886 -56.889  1.00  0.00     0.037 A 
HETATM   14  C   UNL     1     -42.785  58.465 -55.712  1.00  0.00     0.016 A 
BRANCH  12  15
HETATM   15  O   UNL     1     -43.505  55.841 -58.233  1.00  0.00    -0.356 OA
HETATM   16  C   UNL     1     -42.788  56.049 -59.444  1.00  0.00     0.210 C 
ENDBRANCH  12  15
ENDBRANCH   4   9
ENDBRANCH   1   3
BRANCH   2  17
HETATM   17  N   UNL     1     -43.250  55.762 -51.909  1.00  0.00    -0.243 N 
HETATM   18  C   UNL     1     -42.289  55.295 -51.021  1.00  0.00     0.271 C 
HETATM   19  O   UNL     1     -42.117  55.760 -49.896  1.00  0.00    -0.266 OA
HETATM   20  H   UNL     1     -43.388  55.345 -52.817  1.00  0.00     0.192 HD
BRANCH  18  21
HETATM   21  C   UNL     1     -41.412  54.169 -51.480  1.00  0.00     0.036 A 
HETATM   22  C   UNL     1     -41.649  53.660 -52.771  1.00  0.00     0.057 A 
HETATM   23  C   UNL     1     -40.876  52.610 -53.216  1.00  0.00     0.106 A 
HETATM   24  C   UNL     1     -39.890  52.056 -52.438  1.00  0.00     0.105 A 
HETATM   25  O   UNL     1     -40.980  52.004 -54.429  1.00  0.00    -0.323 OA
HETATM   26  O   UNL     1     -39.249  51.031 -53.060  1.00  0.00    -0.323 OA
HETATM   27  C   UNL     1     -39.620  52.527 -51.173  1.00  0.00     0.041 A 
HETATM   28  C   UNL     1     -39.950  51.000 -54.322  1.00  0.00     0.352 A 
HETATM   29  C   UNL     1     -40.388  53.595 -50.690  1.00  0.00     0.020 A 
ENDBRANCH  18  21
ENDBRANCH   2  17
TORSDOF 5
ENDMDL
MODEL 5
REMARK VINA RESULT:      -7.4      2.008      6.833
REMARK  5 active torsions:
REMARK  status: ('A' for Active; 'I' for Inactive)
REMARK    1  A    between atoms: O_2  and  C_3 
REMARK    2  A    between atoms: C_6  and  C_7 
REMARK    3  A    between atoms: C_12  and  C_13 
REMARK    4  A    between atoms: N_14  and  N_15 
REMARK       I    between atoms: N_15  and  C_16 
REMARK    5  A    between atoms: C_16  and  C_17 
ROOT
HETATM    1  C   UNL     1     -44.431  58.259 -53.315  1.00  0.00     0.154 C 
HETATM    2  N   UNL     1     -44.462  57.089 -52.756  1.00  0.00    -0.183 NA
ENDROOT
BRANCH   1   3
HETATM    3  C   UNL     1     -43.316  58.895 -53.979  1.00  0.00     0.031 A 
HETATM    4  C   UNL     1     -42.794  58.811 -55.311  1.00  0.00     0.100 A 
HETATM    5  N   UNL     1     -41.747  59.644 -55.456  1.00  0.00    -0.174 NA
HETATM    6  N   UNL     1     -41.541  60.160 -54.241  1.00  0.00    -0.288 N 
HETATM    7  H   UNL     1     -40.761  60.798 -54.116  1.00  0.00     0.188 HD
HETATM    8  C   UNL     1     -42.446  59.743 -53.319  1.00  0.00     0.124 A 
BRANCH   4   9
HETATM    9  C   UNL     1     -43.232  58.000 -56.454  1.00  0.00    -0.005 A 
HETATM   10  C   UNL     1     -44.233  58.434 -57.329  1.00  0.00     0.016 A 
HETATM   11  C   UNL     1     -44.600  57.654 -58.431  1.00  0.00     0.037 A 
HETATM   12  C   UNL     1     -43.986  56.425 -58.675  1.00  0.00     0.068 A 
HETATM   13  C   UNL     1     -43.008  55.969 -57.794  1.00  0.00     0.037 A 
HETATM   14  C   UNL     1     -42.637  56.750 -56.693  1.00  0.00     0.016 A 
BRANCH  12  15
HETATM   15  O   UNL     1     -44.433  55.770 -59.788  1.00  0.00    -0.356 OA
HETATM   16  C   UNL     1     -45.814  55.900 -60.098  1.00  0.00     0.210 C 
ENDBRANCH  12  15
ENDBRANCH   4   9
ENDBRANCH   1   3
BRANCH   2  17
HETATM   17  N   UNL     1     -43.382  56.259 -52.813  1.00  0.00    -0.243 N 
HETATM   18  C   UNL     1     -43.442  55.127 -53.616  1.00  0.00     0.271 C 
HETATM   19  O   UNL     1     -44.398  54.855 -54.340  1.00  0.00    -0.266 OA
HETATM   20  H   UNL     1     -42.575  56.472 -52.247  1.00  0.00     0.192 HD
BRANCH  18  21
HETATM   21  C   UNL     1     -42.275  54.187 -53.575  1.00  0.00     0.036 A 
HETATM   22  C   UNL     1     -41.901  53.688 -52.313  1.00  0.00     0.057 A 
HETATM   23  C   UNL     1     -40.817  52.839 -52.237  1.00  0.00     0.106 A 
HETATM   24  C   UNL     1     -40.104  52.474 -53.351  1.00  0.00     0.105 A 
HETATM   25  O   UNL     1     -40.326  52.276 -51.100  1.00  0.00    -0.323 OA
HETATM   26  O   UNL     1     -39.073  51.637 -53.059  1.00  0.00    -0.323 OA
HETATM   27  C   UNL     1     -40.439  52.934 -54.604  1.00  0.00     0.041 A 
HETATM   28  C   UNL     1     -39.218  51.520 -51.627  1.00  0.00     0.352 A 
HETATM   29  C   UNL     1     -41.537  53.798 -54.717  1.00  0.00     0.020 A 
ENDBRANCH  18  21
ENDBRANCH   2  17
TORSDOF 5
ENDMDL
MODEL 6
REMARK VINA RESULT:      -7.3     15.130     18.251
REMARK  5 active torsions:
REMARK  status: ('A' for Active; 'I' for Inactive)
REMARK    1  A    between atoms: O_2  and  C_3 
REMARK    2  A    between atoms: C_6  and  C_7 
REMARK    3  A    between atoms: C_12  and  C_13 
REMARK    4  A    between atoms: N_14  and  N_15 
REMARK       I    between atoms: N_15  and  C_16 
REMARK    5  A    between atoms: C_16  and  C_17 
ROOT
HETATM    1  C   UNL     1     -37.941  38.809 -58.408  1.00  0.00     0.154 C 
HETATM    2  N   UNL     1     -37.164  37.935 -57.848  1.00  0.00    -0.183 NA
ENDROOT
BRANCH   1   3
HETATM    3  C   UNL     1     -37.584  40.112 -58.924  1.00  0.00     0.031 A 
HETATM    4  C   UNL     1     -37.114  41.315 -58.301  1.00  0.00     0.100 A 
HETATM    5  N   UNL     1     -36.881  42.260 -59.229  1.00  0.00    -0.174 NA
HETATM    6  N   UNL     1     -37.283  41.723 -60.384  1.00  0.00    -0.288 N 
HETATM    7  H   UNL     1     -37.228  42.291 -61.224  1.00  0.00     0.188 HD
HETATM    8  C   UNL     1     -37.717  40.443 -60.259  1.00  0.00     0.124 A 
BRANCH   4   9
HETATM    9  C   UNL     1     -36.865  41.617 -56.886  1.00  0.00    -0.005 A 
HETATM   10  C   UNL     1     -37.780  41.276 -55.885  1.00  0.00     0.016 A 
HETATM   11  C   UNL     1     -37.493  41.543 -54.541  1.00  0.00     0.037 A 
HETATM   12  C   UNL     1     -36.299  42.165 -54.173  1.00  0.00     0.068 A 
HETATM   13  C   UNL     1     -35.394  42.535 -55.164  1.00  0.00     0.037 A 
HETATM   14  C   UNL     1     -35.677  42.265 -56.509  1.00  0.00     0.016 A 
BRANCH  12  15
HETATM   15  O   UNL     1     -36.144  42.360 -52.829  1.00  0.00    -0.356 OA
HETATM   16  C   UNL     1     -35.043  41.708 -52.208  1.00  0.00     0.210 C 
ENDBRANCH  12  15
ENDBRANCH   4   9
ENDBRANCH   1   3
BRANCH   2  17
HETATM   17  N   UNL     1     -35.822  38.153 -57.751  1.00  0.00    -0.243 N 
HETATM   18  C   UNL     1     -35.260  38.351 -56.497  1.00  0.00     0.271 C 
HETATM   19  O   UNL     1     -35.894  38.278 -55.446  1.00  0.00    -0.266 OA
HETATM   20  H   UNL     1     -35.274  38.192 -58.597  1.00  0.00     0.192 HD
BRANCH  18  21
HETATM   21  C   UNL     1     -33.799  38.685 -56.439  1.00  0.00     0.036 A 
HETATM   22  C   UNL     1     -32.941  37.944 -57.273  1.00  0.00     0.057 A 
HETATM   23  C   UNL     1     -31.589  38.211 -57.229  1.00  0.00     0.106 A 
HETATM   24  C   UNL     1     -31.068  39.172 -56.400  1.00  0.00     0.105 A 
HETATM   25  O   UNL     1     -30.631  37.584 -57.963  1.00  0.00    -0.323 OA
HETATM   26  O   UNL     1     -29.716  39.273 -56.504  1.00  0.00    -0.323 OA
HETATM   27  C   UNL     1     -31.871  39.924 -55.573  1.00  0.00     0.041 A 
HETATM   28  C   UNL     1     -29.445  38.259 -57.495  1.00  0.00     0.352 A 
HETATM   29  C   UNL     1     -33.251  39.679 -55.594  1.00  0.00     0.020 A 
ENDBRANCH  18  21
ENDBRANCH   2  17
TORSDOF 5
ENDMDL
MODEL 7
REMARK VINA RESULT:      -7.3      3.155      7.757
REMARK  5 active torsions:
REMARK  status: ('A' for Active; 'I' for Inactive)
REMARK    1  A    between atoms: O_2  and  C_3 
REMARK    2  A    between atoms: C_6  and  C_7 
REMARK    3  A    between atoms: C_12  and  C_13 
REMARK    4  A    between atoms: N_14  and  N_15 
REMARK       I    between atoms: N_15  and  C_16 
REMARK    5  A    between atoms: C_16  and  C_17 
ROOT
HETATM    1  C   UNL     1     -41.514  58.780 -53.814  1.00  0.00     0.154 C 
HETATM    2  N   UNL     1     -41.742  57.608 -54.322  1.00  0.00    -0.183 NA
ENDROOT
BRANCH   1   3
HETATM    3  C   UNL     1     -40.830  59.094 -52.579  1.00  0.00     0.031 A 
HETATM    4  C   UNL     1     -41.274  59.628 -51.325  1.00  0.00     0.100 A 
HETATM    5  N   UNL     1     -40.246  59.699 -50.459  1.00  0.00    -0.174 NA
HETATM    6  N   UNL     1     -39.172  59.328 -51.161  1.00  0.00    -0.288 N 
HETATM    7  H   UNL     1     -38.267  59.345 -50.701  1.00  0.00     0.188 HD
HETATM    8  C   UNL     1     -39.463  58.961 -52.436  1.00  0.00     0.124 A 
BRANCH   4   9
HETATM    9  C   UNL     1     -42.609  60.062 -50.896  1.00  0.00    -0.005 A 
HETATM   10  C   UNL     1     -42.828  61.317 -50.318  1.00  0.00     0.016 A 
HETATM   11  C   UNL     1     -44.119  61.717 -49.957  1.00  0.00     0.037 A 
HETATM   12  C   UNL     1     -45.211  60.870 -50.151  1.00  0.00     0.068 A 
HETATM   13  C   UNL     1     -45.001  59.607 -50.698  1.00  0.00     0.037 A 
HETATM   14  C   UNL     1     -43.710  59.207 -51.064  1.00  0.00     0.016 A 
BRANCH  12  15
HETATM   15  O   UNL     1     -46.415  61.386 -49.760  1.00  0.00    -0.356 OA
HETATM   16  C   UNL     1     -46.405  62.261 -48.639  1.00  0.00     0.210 C 
ENDBRANCH  12  15
ENDBRANCH   4   9
ENDBRANCH   1   3
BRANCH   2  17
HETATM   17  N   UNL     1     -41.255  56.482 -53.727  1.00  0.00    -0.243 N 
HETATM   18  C   UNL     1     -41.193  55.305 -54.461  1.00  0.00     0.271 C 
HETATM   19  O   UNL     1     -41.494  55.226 -55.651  1.00  0.00    -0.266 OA
HETATM   20  H   UNL     1     -40.977  56.526 -52.759  1.00  0.00     0.192 HD
BRANCH  18  21
HETATM   21  C   UNL     1     -40.746  54.066 -53.745  1.00  0.00     0.036 A 
HETATM   22  C   UNL     1     -40.557  52.910 -54.525  1.00  0.00     0.057 A 
HETATM   23  C   UNL     1     -40.168  51.748 -53.894  1.00  0.00     0.106 A 
HETATM   24  C   UNL     1     -39.961  51.694 -52.539  1.00  0.00     0.105 A 
HETATM   25  O   UNL     1     -39.948  50.550 -54.500  1.00  0.00    -0.323 OA
HETATM   26  O   UNL     1     -39.587  50.457 -52.117  1.00  0.00    -0.323 OA
HETATM   27  C   UNL     1     -40.128  52.802 -51.739  1.00  0.00     0.041 A 
HETATM   28  C   UNL     1     -39.586  49.734 -53.367  1.00  0.00     0.352 A 
HETATM   29  C   UNL     1     -40.522  54.001 -52.350  1.00  0.00     0.020 A 
ENDBRANCH  18  21
ENDBRANCH   2  17
TORSDOF 5
ENDMDL
MODEL 8
REMARK VINA RESULT:      -7.3     15.358     18.404
REMARK  5 active torsions:
REMARK  status: ('A' for Active; 'I' for Inactive)
REMARK    1  A    between atoms: O_2  and  C_3 
REMARK    2  A    between atoms: C_6  and  C_7 
REMARK    3  A    between atoms: C_12  and  C_13 
REMARK    4  A    between atoms: N_14  and  N_15 
REMARK       I    between atoms: N_15  and  C_16 
REMARK    5  A    between atoms: C_16  and  C_17 
ROOT
HETATM    1  C   UNL     1     -34.778  41.530 -56.734  1.00  0.00     0.154 C 
HETATM    2  N   UNL     1     -33.737  41.252 -56.013  1.00  0.00    -0.183 NA
ENDROOT
BRANCH   1   3
HETATM    3  C   UNL     1     -36.166  41.522 -56.329  1.00  0.00     0.031 A 
HETATM    4  C   UNL     1     -37.360  41.018 -56.942  1.00  0.00     0.100 A 
HETATM    5  N   UNL     1     -38.419  41.220 -56.137  1.00  0.00    -0.174 NA
HETATM    6  N   UNL     1     -37.942  41.917 -55.102  1.00  0.00    -0.288 N 
HETATM    7  H   UNL     1     -38.593  42.211 -54.380  1.00  0.00     0.188 HD
HETATM    8  C   UNL     1     -36.603  42.130 -55.168  1.00  0.00     0.124 A 
BRANCH   4   9
HETATM    9  C   UNL     1     -37.555  40.350 -58.236  1.00  0.00    -0.005 A 
HETATM   10  C   UNL     1     -38.108  39.069 -58.330  1.00  0.00     0.016 A 
HETATM   11  C   UNL     1     -38.318  38.476 -59.580  1.00  0.00     0.037 A 
HETATM   12  C   UNL     1     -37.970  39.143 -60.756  1.00  0.00     0.068 A 
HETATM   13  C   UNL     1     -37.392  40.407 -60.673  1.00  0.00     0.037 A 
HETATM   14  C   UNL     1     -37.185  41.003 -59.422  1.00  0.00     0.016 A 
BRANCH  12  15
HETATM   15  O   UNL     1     -38.234  38.454 -61.906  1.00  0.00    -0.356 OA
HETATM   16  C   UNL     1     -37.344  38.659 -62.996  1.00  0.00     0.210 C 
ENDBRANCH  12  15
ENDBRANCH   4   9
ENDBRANCH   1   3
BRANCH   2  17
HETATM   17  N   UNL     1     -33.862  40.974 -54.684  1.00  0.00    -0.243 N 
HETATM   18  C   UNL     1     -32.764  40.476 -53.994  1.00  0.00     0.271 C 
HETATM   19  O   UNL     1     -31.652  40.328 -54.497  1.00  0.00    -0.266 OA
HETATM   20  H   UNL     1     -34.757  41.110 -54.241  1.00  0.00     0.192 HD
BRANCH  18  21
HETATM   21  C   UNL     1     -32.967  40.089 -52.559  1.00  0.00     0.036 A 
HETATM   22  C   UNL     1     -31.849  40.180 -51.709  1.00  0.00     0.057 A 
HETATM   23  C   UNL     1     -31.996  39.811 -50.389  1.00  0.00     0.106 A 
HETATM   24  C   UNL     1     -33.194  39.364 -49.891  1.00  0.00     0.105 A 
HETATM   25  O   UNL     1     -31.018  39.835 -49.443  1.00  0.00    -0.323 OA
HETATM   26  O   UNL     1     -33.124  39.047 -48.571  1.00  0.00    -0.323 OA
HETATM   27  C   UNL     1     -34.313  39.265 -50.686  1.00  0.00     0.041 A 
HETATM   28  C   UNL     1     -31.738  39.345 -48.294  1.00  0.00     0.352 A 
HETATM   29  C   UNL     1     -34.199  39.634 -52.033  1.00  0.00     0.020 A 
ENDBRANCH  18  21
ENDBRANCH   2  17
TORSDOF 5
ENDMDL
MODEL 9
REMARK VINA RESULT:      -7.2      3.617      6.100
REMARK  5 active torsions:
REMARK  status: ('A' for Active; 'I' for Inactive)
REMARK    1  A    between atoms: O_2  and  C_3 
REMARK    2  A    between atoms: C_6  and  C_7 
REMARK    3  A    between atoms: C_12  and  C_13 
REMARK    4  A    between atoms: N_14  and  N_15 
REMARK       I    between atoms: N_15  and  C_16 
REMARK    5  A    between atoms: C_16  and  C_17 
ROOT
HETATM    1  C   UNL     1     -41.172  57.378 -53.724  1.00  0.00     0.154 C 
HETATM    2  N   UNL     1     -41.080  58.395 -52.925  1.00  0.00    -0.183 NA
ENDROOT
BRANCH   1   3
HETATM    3  C   UNL     1     -42.309  56.509 -53.928  1.00  0.00     0.031 A 
HETATM    4  C   UNL     1     -42.519  55.107 -53.716  1.00  0.00     0.100 A 
HETATM    5  N   UNL     1     -43.785  54.773 -54.025  1.00  0.00    -0.174 NA
HETATM    6  N   UNL     1     -44.332  55.890 -54.513  1.00  0.00    -0.288 N 
HETATM    7  H   UNL     1     -45.291  55.850 -54.846  1.00  0.00     0.188 HD
HETATM    8  C   UNL     1     -43.493  56.956 -54.483  1.00  0.00     0.124 A 
BRANCH   4   9
HETATM    9  C   UNL     1     -41.598  54.071 -53.232  1.00  0.00    -0.005 A 
HETATM   10  C   UNL     1     -41.165  54.030 -51.903  1.00  0.00     0.016 A 
HETATM   11  C   UNL     1     -40.318  53.005 -51.463  1.00  0.00     0.037 A 
HETATM   12  C   UNL     1     -39.879  52.014 -52.341  1.00  0.00     0.068 A 
HETATM   13  C   UNL     1     -40.280  52.061 -53.674  1.00  0.00     0.037 A 
HETATM   14  C   UNL     1     -41.130  53.084 -54.114  1.00  0.00     0.016 A 
BRANCH  12  15
HETATM   15  O   UNL     1     -39.063  51.072 -51.781  1.00  0.00    -0.356 OA
HETATM   16  C   UNL     1     -39.577  49.749 -51.689  1.00  0.00     0.210 C 
ENDBRANCH  12  15
ENDBRANCH   4   9
ENDBRANCH   1   3
BRANCH   2  17
HETATM   17  N   UNL     1     -42.157  58.814 -52.202  1.00  0.00    -0.243 N 
HETATM   18  C   UNL     1     -42.698  60.067 -52.461  1.00  0.00     0.271 C 
HETATM   19  O   UNL     1     -42.303  60.807 -53.360  1.00  0.00    -0.266 OA
HETATM   20  H   UNL     1     -42.516  58.215 -51.475  1.00  0.00     0.192 HD
BRANCH  18  21
HETATM   21  C   UNL     1     -43.817  60.533 -51.579  1.00  0.00     0.036 A 
HETATM   22  C   UNL     1     -43.514  60.747 -50.221  1.00  0.00     0.057 A 
HETATM   23  C   UNL     1     -44.525  61.153 -49.378  1.00  0.00     0.106 A 
HETATM   24  C   UNL     1     -45.806  61.354 -49.827  1.00  0.00     0.105 A 
HETATM   25  O   UNL     1     -44.399  61.398 -48.046  1.00  0.00    -0.323 OA
HETATM   26  O   UNL     1     -46.651  61.747 -48.837  1.00  0.00    -0.323 OA
HETATM   27  C   UNL     1     -46.145  61.162 -51.148  1.00  0.00     0.041 A 
HETATM   28  C   UNL     1     -45.751  61.769 -47.708  1.00  0.00     0.352 A 
HETATM   29  C   UNL     1     -45.140  60.749 -52.032  1.00  0.00     0.020 A 
ENDBRANCH  18  21
ENDBRANCH   2  17
TORSDOF 5
ENDMDL
MODEL 10
REMARK VINA RESULT:      -7.1     14.839     16.854
REMARK  5 active torsions:
REMARK  status: ('A' for Active; 'I' for Inactive)
REMARK    1  A    between atoms: O_2  and  C_3 
REMARK    2  A    between atoms: C_6  and  C_7 
REMARK    3  A    between atoms: C_12  and  C_13 
REMARK    4  A    between atoms: N_14  and  N_15 
REMARK       I    between atoms: N_15  and  C_16 
REMARK    5  A    between atoms: C_16  and  C_17 
ROOT
HETATM    1  C   UNL     1     -35.753  41.934 -52.312  1.00  0.00     0.154 C 
HETATM    2  N   UNL     1     -36.158  42.628 -53.331  1.00  0.00    -0.183 NA
ENDROOT
BRANCH   1   3
HETATM    3  C   UNL     1     -35.809  40.501 -52.136  1.00  0.00     0.031 A 
HETATM    4  C   UNL     1     -35.128  39.411 -52.772  1.00  0.00     0.100 A 
HETATM    5  N   UNL     1     -35.501  38.242 -52.218  1.00  0.00    -0.174 NA
HETATM    6  N   UNL     1     -36.455  38.560 -51.339  1.00  0.00    -0.288 N 
HETATM    7  H   UNL     1     -36.907  37.809 -50.827  1.00  0.00     0.188 HD
HETATM    8  C   UNL     1     -36.683  39.896 -51.254  1.00  0.00     0.124 A 
BRANCH   4   9
HETATM    9  C   UNL     1     -34.143  39.411 -53.861  1.00  0.00    -0.005 A 
HETATM   10  C   UNL     1     -32.925  40.089 -53.756  1.00  0.00     0.016 A 
HETATM   11  C   UNL     1     -31.991  40.036 -54.797  1.00  0.00     0.037 A 
HETATM   12  C   UNL     1     -32.259  39.318 -55.963  1.00  0.00     0.068 A 
HETATM   13  C   UNL     1     -33.481  38.663 -56.091  1.00  0.00     0.037 A 
HETATM   14  C   UNL     1     -34.415  38.712 -55.048  1.00  0.00     0.016 A 
BRANCH  12  15
HETATM   15  O   UNL     1     -31.260  39.344 -56.895  1.00  0.00    -0.356 OA
HETATM   16  C   UNL     1     -30.656  38.100 -57.225  1.00  0.00     0.210 C 
ENDBRANCH  12  15
ENDBRANCH   4   9
ENDBRANCH   1   3
BRANCH   2  17
HETATM   17  N   UNL     1     -36.645  42.012 -54.445  1.00  0.00    -0.243 N 
HETATM   18  C   UNL     1     -35.964  42.155 -55.647  1.00  0.00     0.271 C 
HETATM   19  O   UNL     1     -34.897  42.757 -55.759  1.00  0.00    -0.266 OA
HETATM   20  H   UNL     1     -37.506  41.491 -54.376  1.00  0.00     0.192 HD
BRANCH  18  21
HETATM   21  C   UNL     1     -36.583  41.546 -56.869  1.00  0.00     0.036 A 
HETATM   22  C   UNL     1     -37.149  40.265 -56.729  1.00  0.00     0.057 A 
HETATM   23  C   UNL     1     -37.706  39.667 -57.838  1.00  0.00     0.106 A 
HETATM   24  C   UNL     1     -37.723  40.287 -59.063  1.00  0.00     0.105 A 
HETATM   25  O   UNL     1     -38.286  38.437 -57.871  1.00  0.00    -0.323 OA
HETATM   26  O   UNL     1     -38.313  39.526 -60.023  1.00  0.00    -0.323 OA
HETATM   27  C   UNL     1     -37.187  41.541 -59.244  1.00  0.00     0.041 A 
HETATM   28  C   UNL     1     -38.664  38.352 -59.261  1.00  0.00     0.352 A 
HETATM   29  C   UNL     1     -36.613  42.178 -58.135  1.00  0.00     0.020 A 
ENDBRANCH  18  21
ENDBRANCH   2  17
TORSDOF 5
ENDMDL
