MODEL 1
REMARK VINA RESULT:      -7.7      0.000      0.000
REMARK  8 active torsions:
REMARK  status: ('A' for Active; 'I' for Inactive)
REMARK    1  A    between atoms: C_2  and  O_3 
REMARK    2  A    between atoms: O_3  and  C_4 
REMARK    3  A    between atoms: C_5  and  O_6 
REMARK    4  A    between atoms: O_6  and  C_7 
REMARK       I    between atoms: C_7  and  N_8 
REMARK    5  A    between atoms: C_18  and  C_19 
REMARK    6  A    between atoms: C_23  and  N_24 
REMARK    7  A    between atoms: C_31  and  C_32 
REMARK    8  A    between atoms: C_35  and  O_36 
ROOT
HETATM    1  C   UNL     1     -45.051  59.304 -53.573  1.00  0.00     0.106 A 
HETATM    2  C   UNL     1     -45.480  60.126 -52.353  1.00  0.00     0.081 A 
HETATM    3  C   UNL     1     -46.001  59.398 -51.243  1.00  0.00     0.100 C 
HETATM    4  N   UNL     1     -46.420  58.785 -50.350  1.00  0.00    -0.191 NA
HETATM    5  C   UNL     1     -45.450  61.485 -52.326  1.00  0.00     0.140 A 
HETATM    6  O   UNL     1     -45.010  62.243 -53.424  1.00  0.00    -0.279 OA
HETATM    7  C   UNL     1     -44.682  61.563 -54.515  1.00  0.00     0.175 A 
HETATM    8  C   UNL     1     -44.671  60.205 -54.700  1.00  0.00     0.040 A 
HETATM    9  N   UNL     1     -44.272  62.125 -55.679  1.00  0.00    -0.256 N 
HETATM   10  H   UNL     1     -44.161  63.108 -55.897  1.00  0.00     0.191 HD
HETATM   11  N   UNL     1     -43.976  61.211 -56.620  1.00  0.00    -0.172 NA
HETATM   12  C   UNL     1     -44.237  60.022 -56.044  1.00  0.00     0.099 A 
ENDROOT
BRANCH   1  13
HETATM   13  C   UNL     1     -43.874  58.373 -53.282  1.00  0.00    -0.040 A 
HETATM   14  C   UNL     1     -42.553  58.820 -53.095  1.00  0.00     0.030 A 
HETATM   15  C   UNL     1     -41.513  57.909 -52.908  1.00  0.00     0.048 A 
HETATM   16  C   UNL     1     -41.790  56.543 -52.846  1.00  0.00     0.131 A 
HETATM   17 BR   UNL     1     -39.743  58.572 -52.749  1.00  0.00    -0.048 Br
HETATM   18  C   UNL     1     -43.108  56.073 -52.895  1.00  0.00     0.104 A 
HETATM   19  C   UNL     1     -44.132  56.988 -53.155  1.00  0.00     0.048 A 
BRANCH  16  20
HETATM   20  O   UNL     1     -40.733  55.640 -52.681  1.00  0.00    -0.257 OA
BRANCH  20  21
HETATM   21  C   UNL     1     -40.583  54.792 -53.774  1.00  0.00     0.368 C 
HETATM   22  N   UNL     1     -40.370  53.477 -53.396  1.00  0.00    -0.324 N 
HETATM   23  C   UNL     1     -40.441  52.427 -54.409  1.00  0.00     0.154 C 
HETATM   24  C   UNL     1     -40.439  53.013 -52.012  1.00  0.00     0.154 C 
HETATM   25  C   UNL     1     -39.503  51.266 -54.075  1.00  0.00     0.187 C 
HETATM   26  O   UNL     1     -39.731  50.783 -52.742  1.00  0.00    -0.388 OA
HETATM   27  C   UNL     1     -39.495  51.826 -51.784  1.00  0.00     0.187 C 
HETATM   28  O   UNL     1     -40.610  55.150 -54.949  1.00  0.00    -0.238 OA
ENDBRANCH  20  21
ENDBRANCH  16  20
BRANCH  18  29
HETATM   29  O   UNL     1     -43.280  54.729 -52.706  1.00  0.00    -0.349 OA
BRANCH  29  30
HETATM   30  C   UNL     1     -43.905  54.276 -51.505  1.00  0.00     0.171 C 
HETATM   31  C   UNL     1     -43.127  54.701 -50.270  1.00  0.00     0.034 C 
ENDBRANCH  29  30
ENDBRANCH  18  29
ENDBRANCH   1  13
BRANCH   5  32
HETATM   32  N   UNL     1     -45.845  62.272 -51.267  1.00  0.00    -0.282 NA
HETATM   33  H   UNL     1     -45.095  62.705 -50.733  1.00  0.00     0.126 HD
HETATM   34  H   UNL     1     -46.579  62.927 -51.527  1.00  0.00     0.126 HD
ENDBRANCH   5  32
BRANCH  12  35
HETATM   35  C   UNL     1     -44.007  58.775 -56.769  1.00  0.00    -0.005 A 
HETATM   36  C   UNL     1     -44.942  58.336 -57.713  1.00  0.00     0.016 A 
HETATM   37  C   UNL     1     -44.721  57.160 -58.433  1.00  0.00     0.037 A 
HETATM   38  C   UNL     1     -43.567  56.404 -58.223  1.00  0.00     0.068 A 
HETATM   39  C   UNL     1     -42.639  56.827 -57.270  1.00  0.00     0.037 A 
HETATM   40  C   UNL     1     -42.858  58.006 -56.546  1.00  0.00     0.016 A 
BRANCH  38  41
HETATM   41  O   UNL     1     -43.474  55.274 -58.987  1.00  0.00    -0.356 OA
HETATM   42  C   UNL     1     -44.508  55.064 -59.941  1.00  0.00     0.210 C 
ENDBRANCH  38  41
ENDBRANCH  12  35
TORSDOF 8
ENDMDL
MODEL 2
REMARK VINA RESULT:      -7.7      1.564      2.348
REMARK  8 active torsions:
REMARK  status: ('A' for Active; 'I' for Inactive)
REMARK    1  A    between atoms: C_2  and  O_3 
REMARK    2  A    between atoms: O_3  and  C_4 
REMARK    3  A    between atoms: C_5  and  O_6 
REMARK    4  A    between atoms: O_6  and  C_7 
REMARK       I    between atoms: C_7  and  N_8 
REMARK    5  A    between atoms: C_18  and  C_19 
REMARK    6  A    between atoms: C_23  and  N_24 
REMARK    7  A    between atoms: C_31  and  C_32 
REMARK    8  A    between atoms: C_35  and  O_36 
ROOT
HETATM    1  C   UNL     1     -45.260  59.443 -53.801  1.00  0.00     0.106 A 
HETATM    2  C   UNL     1     -45.333  60.134 -52.435  1.00  0.00     0.081 A 
HETATM    3  C   UNL     1     -45.714  59.321 -51.327  1.00  0.00     0.100 C 
HETATM    4  N   UNL     1     -46.025  58.640 -50.439  1.00  0.00    -0.191 NA
HETATM    5  C   UNL     1     -45.124  61.467 -52.265  1.00  0.00     0.140 A 
HETATM    6  O   UNL     1     -44.814  62.315 -53.341  1.00  0.00    -0.279 OA
HETATM    7  C   UNL     1     -44.797  61.759 -54.545  1.00  0.00     0.175 A 
HETATM    8  C   UNL     1     -44.996  60.443 -54.877  1.00  0.00     0.040 A 
HETATM    9  N   UNL     1     -44.555  62.426 -55.699  1.00  0.00    -0.256 N 
HETATM   10  H   UNL     1     -44.364  63.413 -55.827  1.00  0.00     0.191 HD
HETATM   11  N   UNL     1     -44.569  61.621 -56.777  1.00  0.00    -0.172 NA
HETATM   12  C   UNL     1     -44.861  60.398 -56.293  1.00  0.00     0.099 A 
ENDROOT
BRANCH   1  13
HETATM   13  C   UNL     1     -44.178  58.366 -53.869  1.00  0.00    -0.040 A 
HETATM   14  C   UNL     1     -44.429  57.030 -54.235  1.00  0.00     0.030 A 
HETATM   15  C   UNL     1     -43.409  56.079 -54.202  1.00  0.00     0.048 A 
HETATM   16  C   UNL     1     -42.111  56.465 -53.862  1.00  0.00     0.131 A 
HETATM   17 BR   UNL     1     -43.831  54.279 -54.623  1.00  0.00    -0.048 Br
HETATM   18  C   UNL     1     -41.799  57.809 -53.623  1.00  0.00     0.104 A 
HETATM   19  C   UNL     1     -42.843  58.739 -53.587  1.00  0.00     0.048 A 
BRANCH  16  20
HETATM   20  O   UNL     1     -41.103  55.496 -53.813  1.00  0.00    -0.257 OA
BRANCH  20  21
HETATM   21  C   UNL     1     -40.954  54.949 -52.542  1.00  0.00     0.368 C 
HETATM   22  N   UNL     1     -40.390  53.684 -52.575  1.00  0.00    -0.324 N 
HETATM   23  C   UNL     1     -39.939  53.076 -51.326  1.00  0.00     0.154 C 
HETATM   24  C   UNL     1     -39.879  53.059 -53.793  1.00  0.00     0.154 C 
HETATM   25  C   UNL     1     -40.071  51.553 -51.369  1.00  0.00     0.187 C 
HETATM   26  O   UNL     1     -39.424  51.009 -52.530  1.00  0.00    -0.388 OA
HETATM   27  C   UNL     1     -40.019  51.533 -53.726  1.00  0.00     0.187 C 
HETATM   28  O   UNL     1     -41.298  55.497 -51.498  1.00  0.00    -0.238 OA
ENDBRANCH  20  21
ENDBRANCH  16  20
BRANCH  18  29
HETATM   29  O   UNL     1     -40.478  58.098 -53.416  1.00  0.00    -0.349 OA
BRANCH  29  30
HETATM   30  C   UNL     1     -40.135  59.148 -52.512  1.00  0.00     0.171 C 
HETATM   31  C   UNL     1     -40.153  58.675 -51.067  1.00  0.00     0.034 C 
ENDBRANCH  29  30
ENDBRANCH  18  29
ENDBRANCH   1  13
BRANCH   5  32
HETATM   32  N   UNL     1     -45.200  62.141 -51.067  1.00  0.00    -0.282 NA
HETATM   33  H   UNL     1     -45.631  61.632 -50.299  1.00  0.00     0.126 HD
HETATM   34  H   UNL     1     -44.314  62.573 -50.811  1.00  0.00     0.126 HD
ENDBRANCH   5  32
BRANCH  12  35
HETATM   35  C   UNL     1     -44.939  59.243 -57.183  1.00  0.00    -0.005 A 
HETATM   36  C   UNL     1     -46.183  58.819 -57.665  1.00  0.00     0.016 A 
HETATM   37  C   UNL     1     -46.269  57.732 -58.539  1.00  0.00     0.037 A 
HETATM   38  C   UNL     1     -45.119  57.053 -58.944  1.00  0.00     0.068 A 
HETATM   39  C   UNL     1     -43.878  57.461 -58.453  1.00  0.00     0.037 A 
HETATM   40  C   UNL     1     -43.789  58.549 -57.576  1.00  0.00     0.016 A 
BRANCH  38  41
HETATM   41  O   UNL     1     -45.342  56.006 -59.796  1.00  0.00    -0.356 OA
HETATM   42  C   UNL     1     -44.448  54.905 -59.697  1.00  0.00     0.210 C 
ENDBRANCH  38  41
ENDBRANCH  12  35
TORSDOF 8
ENDMDL
MODEL 3
REMARK VINA RESULT:      -7.6      2.631      6.331
REMARK  8 active torsions:
REMARK  status: ('A' for Active; 'I' for Inactive)
REMARK    1  A    between atoms: C_2  and  O_3 
REMARK    2  A    between atoms: O_3  and  C_4 
REMARK    3  A    between atoms: C_5  and  O_6 
REMARK    4  A    between atoms: O_6  and  C_7 
REMARK       I    between atoms: C_7  and  N_8 
REMARK    5  A    between atoms: C_18  and  C_19 
REMARK    6  A    between atoms: C_23  and  N_24 
REMARK    7  A    between atoms: C_31  and  C_32 
REMARK    8  A    between atoms: C_35  and  O_36 
ROOT
HETATM    1  C   UNL     1     -43.692  60.532 -52.824  1.00  0.00     0.106 A 
HETATM    2  C   UNL     1     -44.256  61.944 -52.631  1.00  0.00     0.081 A 
HETATM    3  C   UNL     1     -43.551  63.007 -53.270  1.00  0.00     0.100 C 
HETATM    4  N   UNL     1     -42.963  63.856 -53.800  1.00  0.00    -0.191 NA
HETATM    5  C   UNL     1     -45.327  62.214 -51.837  1.00  0.00     0.140 A 
HETATM    6  O   UNL     1     -46.007  61.205 -51.136  1.00  0.00    -0.279 OA
HETATM    7  C   UNL     1     -45.511  59.979 -51.238  1.00  0.00     0.175 A 
HETATM    8  C   UNL     1     -44.441  59.553 -51.982  1.00  0.00     0.040 A 
HETATM    9  N   UNL     1     -46.011  58.890 -50.605  1.00  0.00    -0.256 N 
HETATM   10  H   UNL     1     -46.802  58.838 -49.974  1.00  0.00     0.191 HD
HETATM   11  N   UNL     1     -45.339  57.763 -50.900  1.00  0.00    -0.172 NA
HETATM   12  C   UNL     1     -44.353  58.155 -51.731  1.00  0.00     0.099 A 
ENDROOT
BRANCH   1  13
HETATM   13  C   UNL     1     -43.746  60.060 -54.276  1.00  0.00    -0.040 A 
HETATM   14  C   UNL     1     -44.902  59.533 -54.883  1.00  0.00     0.030 A 
HETATM   15  C   UNL     1     -44.862  59.050 -56.191  1.00  0.00     0.048 A 
HETATM   16  C   UNL     1     -43.681  59.142 -56.929  1.00  0.00     0.131 A 
HETATM   17 BR   UNL     1     -46.431  58.273 -56.921  1.00  0.00    -0.048 Br
HETATM   18  C   UNL     1     -42.551  59.781 -56.403  1.00  0.00     0.104 A 
HETATM   19  C   UNL     1     -42.582  60.196 -55.068  1.00  0.00     0.048 A 
BRANCH  16  20
HETATM   20  O   UNL     1     -43.650  58.633 -58.233  1.00  0.00    -0.257 OA
BRANCH  20  21
HETATM   21  C   UNL     1     -43.364  57.272 -58.264  1.00  0.00     0.368 C 
HETATM   22  N   UNL     1     -44.068  56.607 -59.255  1.00  0.00    -0.324 N 
HETATM   23  C   UNL     1     -43.702  55.233 -59.584  1.00  0.00     0.154 C 
HETATM   24  C   UNL     1     -44.903  57.284 -60.244  1.00  0.00     0.154 C 
HETATM   25  C   UNL     1     -44.917  54.430 -60.054  1.00  0.00     0.187 C 
HETATM   26  O   UNL     1     -45.603  55.105 -61.120  1.00  0.00    -0.388 OA
HETATM   27  C   UNL     1     -46.069  56.390 -60.681  1.00  0.00     0.187 C 
HETATM   28  O   UNL     1     -42.596  56.698 -57.495  1.00  0.00    -0.238 OA
ENDBRANCH  20  21
ENDBRANCH  16  20
BRANCH  18  29
HETATM   29  O   UNL     1     -41.486  59.925 -57.249  1.00  0.00    -0.349 OA
BRANCH  29  30
HETATM   30  C   UNL     1     -41.273  61.187 -57.882  1.00  0.00     0.171 C 
HETATM   31  C   UNL     1     -41.514  61.112 -59.382  1.00  0.00     0.034 C 
ENDBRANCH  29  30
ENDBRANCH  18  29
ENDBRANCH   1  13
BRANCH   5  32
HETATM   32  N   UNL     1     -45.859  63.464 -51.612  1.00  0.00    -0.282 NA
HETATM   33  H   UNL     1     -45.855  63.779 -50.644  1.00  0.00     0.126 HD
HETATM   34  H   UNL     1     -45.495  64.160 -52.259  1.00  0.00     0.126 HD
ENDBRANCH   5  32
BRANCH  12  35
HETATM   35  C   UNL     1     -43.418  57.182 -52.290  1.00  0.00    -0.005 A 
HETATM   36  C   UNL     1     -42.175  56.981 -51.679  1.00  0.00     0.016 A 
HETATM   37  C   UNL     1     -41.282  56.034 -52.187  1.00  0.00     0.037 A 
HETATM   38  C   UNL     1     -41.614  55.275 -53.310  1.00  0.00     0.068 A 
HETATM   39  C   UNL     1     -42.845  55.484 -53.935  1.00  0.00     0.037 A 
HETATM   40  C   UNL     1     -43.742  56.433 -53.427  1.00  0.00     0.016 A 
BRANCH  38  41
HETATM   41  O   UNL     1     -40.652  54.389 -53.709  1.00  0.00    -0.356 OA
HETATM   42  C   UNL     1     -40.207  54.496 -55.054  1.00  0.00     0.210 C 
ENDBRANCH  38  41
ENDBRANCH  12  35
TORSDOF 8
ENDMDL
MODEL 4
REMARK VINA RESULT:      -7.4      2.940      6.310
REMARK  8 active torsions:
REMARK  status: ('A' for Active; 'I' for Inactive)
REMARK    1  A    between atoms: C_2  and  O_3 
REMARK    2  A    between atoms: O_3  and  C_4 
REMARK    3  A    between atoms: C_5  and  O_6 
REMARK    4  A    between atoms: O_6  and  C_7 
REMARK       I    between atoms: C_7  and  N_8 
REMARK    5  A    between atoms: C_18  and  C_19 
REMARK    6  A    between atoms: C_23  and  N_24 
REMARK    7  A    between atoms: C_31  and  C_32 
REMARK    8  A    between atoms: C_35  and  O_36 
ROOT
HETATM    1  C   UNL     1     -43.120  57.018 -51.342  1.00  0.00     0.106 A 
HETATM    2  C   UNL     1     -42.751  55.734 -50.591  1.00  0.00     0.081 A 
HETATM    3  C   UNL     1     -43.566  54.591 -50.838  1.00  0.00     0.100 C 
HETATM    4  N   UNL     1     -44.241  53.672 -51.057  1.00  0.00    -0.191 NA
HETATM    5  C   UNL     1     -41.750  55.674 -49.671  1.00  0.00     0.140 A 
HETATM    6  O   UNL     1     -40.969  56.795 -49.346  1.00  0.00    -0.279 OA
HETATM    7  C   UNL     1     -41.298  57.936 -49.939  1.00  0.00     0.175 A 
HETATM    8  C   UNL     1     -42.279  58.157 -50.872  1.00  0.00     0.040 A 
HETATM    9  N   UNL     1     -40.683  59.123 -49.723  1.00  0.00    -0.256 N 
HETATM   10  H   UNL     1     -39.912  59.327 -49.097  1.00  0.00     0.191 HD
HETATM   11  N   UNL     1     -41.193  60.117 -50.471  1.00  0.00    -0.172 NA
HETATM   12  C   UNL     1     -42.193  59.546 -51.170  1.00  0.00     0.099 A 
ENDROOT
BRANCH   1  13
HETATM   13  C   UNL     1     -42.957  56.891 -52.857  1.00  0.00    -0.040 A 
HETATM   14  C   UNL     1     -43.812  57.511 -53.787  1.00  0.00     0.030 A 
HETATM   15  C   UNL     1     -43.653  57.292 -55.156  1.00  0.00     0.048 A 
HETATM   16  C   UNL     1     -42.599  56.499 -55.614  1.00  0.00     0.131 A 
HETATM   17 BR   UNL     1     -44.891  58.086 -56.353  1.00  0.00    -0.048 Br
HETATM   18  C   UNL     1     -41.652  55.977 -54.724  1.00  0.00     0.104 A 
HETATM   19  C   UNL     1     -41.864  56.143 -53.352  1.00  0.00     0.048 A 
BRANCH  16  20
HETATM   20  O   UNL     1     -42.466  56.271 -56.988  1.00  0.00    -0.257 OA
BRANCH  20  21
HETATM   21  C   UNL     1     -43.229  55.192 -57.423  1.00  0.00     0.368 C 
HETATM   22  N   UNL     1     -43.647  55.337 -58.736  1.00  0.00    -0.324 N 
HETATM   23  C   UNL     1     -44.241  54.192 -59.422  1.00  0.00     0.154 C 
HETATM   24  C   UNL     1     -43.217  56.429 -59.604  1.00  0.00     0.154 C 
HETATM   25  C   UNL     1     -45.279  54.639 -60.453  1.00  0.00     0.187 C 
HETATM   26  O   UNL     1     -44.730  55.615 -61.352  1.00  0.00    -0.388 OA
HETATM   27  C   UNL     1     -44.304  56.779 -60.627  1.00  0.00     0.187 C 
HETATM   28  O   UNL     1     -43.529  54.220 -56.733  1.00  0.00    -0.238 OA
ENDBRANCH  20  21
ENDBRANCH  16  20
BRANCH  18  29
HETATM   29  O   UNL     1     -40.594  55.315 -55.284  1.00  0.00    -0.349 OA
BRANCH  29  30
HETATM   30  C   UNL     1     -40.027  54.206 -54.587  1.00  0.00     0.171 C 
HETATM   31  C   UNL     1     -40.940  52.990 -54.626  1.00  0.00     0.034 C 
ENDBRANCH  29  30
ENDBRANCH  18  29
ENDBRANCH   1  13
BRANCH   5  32
HETATM   32  N   UNL     1     -41.392  54.556 -48.952  1.00  0.00    -0.282 NA
HETATM   33  H   UNL     1     -41.863  53.693 -49.212  1.00  0.00     0.126 HD
HETATM   34  H   UNL     1     -40.383  54.452 -48.878  1.00  0.00     0.126 HD
ENDBRANCH   5  32
BRANCH  12  35
HETATM   35  C   UNL     1     -42.975  60.326 -52.125  1.00  0.00    -0.005 A 
HETATM   36  C   UNL     1     -42.384  60.766 -53.315  1.00  0.00     0.016 A 
HETATM   37  C   UNL     1     -43.128  61.491 -54.249  1.00  0.00     0.037 A 
HETATM   38  C   UNL     1     -44.472  61.787 -54.012  1.00  0.00     0.068 A 
HETATM   39  C   UNL     1     -45.062  61.366 -52.820  1.00  0.00     0.037 A 
HETATM   40  C   UNL     1     -44.318  60.640 -51.881  1.00  0.00     0.016 A 
BRANCH  38  41
HETATM   41  O   UNL     1     -45.084  62.504 -55.002  1.00  0.00    -0.356 OA
HETATM   42  C   UNL     1     -45.312  61.827 -56.231  1.00  0.00     0.210 C 
ENDBRANCH  38  41
ENDBRANCH  12  35
TORSDOF 8
ENDMDL
MODEL 5
REMARK VINA RESULT:      -7.0      3.042      7.760
REMARK  8 active torsions:
REMARK  status: ('A' for Active; 'I' for Inactive)
REMARK    1  A    between atoms: C_2  and  O_3 
REMARK    2  A    between atoms: O_3  and  C_4 
REMARK    3  A    between atoms: C_5  and  O_6 
REMARK    4  A    between atoms: O_6  and  C_7 
REMARK       I    between atoms: C_7  and  N_8 
REMARK    5  A    between atoms: C_18  and  C_19 
REMARK    6  A    between atoms: C_23  and  N_24 
REMARK    7  A    between atoms: C_31  and  C_32 
REMARK    8  A    between atoms: C_35  and  O_36 
ROOT
HETATM    1  C   UNL     1     -41.890  57.850 -53.018  1.00  0.00     0.106 A 
HETATM    2  C   UNL     1     -41.378  57.751 -51.578  1.00  0.00     0.081 A 
HETATM    3  C   UNL     1     -40.493  58.781 -51.140  1.00  0.00     0.100 C 
HETATM    4  N   UNL     1     -39.777  59.630 -50.805  1.00  0.00    -0.191 NA
HETATM    5  C   UNL     1     -41.672  56.708 -50.755  1.00  0.00     0.140 A 
HETATM    6  O   UNL     1     -42.483  55.639 -51.171  1.00  0.00    -0.279 OA
HETATM    7  C   UNL     1     -42.897  55.667 -52.430  1.00  0.00     0.175 A 
HETATM    8  C   UNL     1     -42.678  56.635 -53.376  1.00  0.00     0.040 A 
HETATM    9  N   UNL     1     -43.654  54.707 -53.015  1.00  0.00    -0.256 N 
HETATM   10  H   UNL     1     -44.004  53.848 -52.607  1.00  0.00     0.191 HD
HETATM   11  N   UNL     1     -43.960  54.993 -54.293  1.00  0.00    -0.172 NA
HETATM   12  C   UNL     1     -43.348  56.167 -54.542  1.00  0.00     0.099 A 
ENDROOT
BRANCH   1  13
HETATM   13  C   UNL     1     -42.765  59.081 -53.258  1.00  0.00    -0.040 A 
HETATM   14  C   UNL     1     -43.858  59.431 -52.444  1.00  0.00     0.030 A 
HETATM   15  C   UNL     1     -44.662  60.525 -52.764  1.00  0.00     0.048 A 
HETATM   16  C   UNL     1     -44.347  61.319 -53.868  1.00  0.00     0.131 A 
HETATM   17 BR   UNL     1     -46.172  60.892 -51.676  1.00  0.00    -0.048 Br
HETATM   18  C   UNL     1     -43.191  61.078 -54.621  1.00  0.00     0.104 A 
HETATM   19  C   UNL     1     -42.435  59.937 -54.335  1.00  0.00     0.048 A 
BRANCH  16  20
HETATM   20  O   UNL     1     -45.176  62.400 -54.190  1.00  0.00    -0.257 OA
BRANCH  20  21
HETATM   21  C   UNL     1     -46.275  62.018 -54.952  1.00  0.00     0.368 C 
HETATM   22  N   UNL     1     -47.411  62.748 -54.643  1.00  0.00    -0.324 N 
HETATM   23  C   UNL     1     -48.578  62.647 -55.515  1.00  0.00     0.154 C 
HETATM   24  C   UNL     1     -47.416  63.883 -53.724  1.00  0.00     0.154 C 
HETATM   25  C   UNL     1     -49.878  62.831 -54.729  1.00  0.00     0.187 C 
HETATM   26  O   UNL     1     -49.850  64.041 -53.958  1.00  0.00    -0.388 OA
HETATM   27  C   UNL     1     -48.769  64.008 -53.014  1.00  0.00     0.187 C 
HETATM   28  O   UNL     1     -46.269  61.123 -55.793  1.00  0.00    -0.238 OA
ENDBRANCH  20  21
ENDBRANCH  16  20
BRANCH  18  29
HETATM   29  O   UNL     1     -42.909  61.983 -55.607  1.00  0.00    -0.349 OA
BRANCH  29  30
HETATM   30  C   UNL     1     -43.073  61.592 -56.970  1.00  0.00     0.171 C 
HETATM   31  C   UNL     1     -41.746  61.215 -57.611  1.00  0.00     0.034 C 
ENDBRANCH  29  30
ENDBRANCH  18  29
ENDBRANCH   1  13
BRANCH   5  32
HETATM   32  N   UNL     1     -41.221  56.558 -49.463  1.00  0.00    -0.282 NA
HETATM   33  H   UNL     1     -41.666  55.820 -48.922  1.00  0.00     0.126 HD
HETATM   34  H   UNL     1     -40.205  56.534 -49.410  1.00  0.00     0.126 HD
ENDBRANCH   5  32
BRANCH  12  35
HETATM   35  C   UNL     1     -43.477  56.814 -55.845  1.00  0.00    -0.005 A 
HETATM   36  C   UNL     1     -42.498  56.609 -56.824  1.00  0.00     0.016 A 
HETATM   37  C   UNL     1     -42.622  57.200 -58.083  1.00  0.00     0.037 A 
HETATM   38  C   UNL     1     -43.723  58.002 -58.386  1.00  0.00     0.068 A 
HETATM   39  C   UNL     1     -44.694  58.225 -57.408  1.00  0.00     0.037 A 
HETATM   40  C   UNL     1     -44.571  57.634 -56.144  1.00  0.00     0.016 A 
BRANCH  38  41
HETATM   41  O   UNL     1     -43.723  58.524 -59.650  1.00  0.00    -0.356 OA
HETATM   42  C   UNL     1     -42.509  58.417 -60.381  1.00  0.00     0.210 C 
ENDBRANCH  38  41
ENDBRANCH  12  35
TORSDOF 8
ENDMDL
MODEL 6
REMARK VINA RESULT:      -6.8      2.444      5.513
REMARK  8 active torsions:
REMARK  status: ('A' for Active; 'I' for Inactive)
REMARK    1  A    between atoms: C_2  and  O_3 
REMARK    2  A    between atoms: O_3  and  C_4 
REMARK    3  A    between atoms: C_5  and  O_6 
REMARK    4  A    between atoms: O_6  and  C_7 
REMARK       I    between atoms: C_7  and  N_8 
REMARK    5  A    between atoms: C_18  and  C_19 
REMARK    6  A    between atoms: C_23  and  N_24 
REMARK    7  A    between atoms: C_31  and  C_32 
REMARK    8  A    between atoms: C_35  and  O_36 
ROOT
HETATM    1  C   UNL     1     -43.533  59.382 -57.197  1.00  0.00     0.106 A 
HETATM    2  C   UNL     1     -43.631  58.752 -58.591  1.00  0.00     0.081 A 
HETATM    3  C   UNL     1     -42.408  58.321 -59.185  1.00  0.00     0.100 C 
HETATM    4  N   UNL     1     -41.402  57.975 -59.649  1.00  0.00    -0.191 NA
HETATM    5  C   UNL     1     -44.797  58.662 -59.285  1.00  0.00     0.140 A 
HETATM    6  O   UNL     1     -46.012  59.138 -58.764  1.00  0.00    -0.279 OA
HETATM    7  C   UNL     1     -45.952  59.739 -57.583  1.00  0.00     0.175 A 
HETATM    8  C   UNL     1     -44.860  59.915 -56.773  1.00  0.00     0.040 A 
HETATM    9  N   UNL     1     -47.013  60.290 -56.944  1.00  0.00    -0.256 N 
HETATM   10  H   UNL     1     -47.977  60.338 -57.252  1.00  0.00     0.191 HD
HETATM   11  N   UNL     1     -46.685  60.810 -55.748  1.00  0.00    -0.172 NA
HETATM   12  C   UNL     1     -45.358  60.609 -55.633  1.00  0.00     0.099 A 
ENDROOT
BRANCH   1  13
HETATM   13  C   UNL     1     -43.044  58.402 -56.131  1.00  0.00    -0.040 A 
HETATM   14  C   UNL     1     -43.558  57.101 -55.972  1.00  0.00     0.030 A 
HETATM   15  C   UNL     1     -43.119  56.285 -54.930  1.00  0.00     0.048 A 
HETATM   16  C   UNL     1     -42.117  56.736 -54.069  1.00  0.00     0.131 A 
HETATM   17 BR   UNL     1     -43.914  54.576 -54.717  1.00  0.00    -0.048 Br
HETATM   18  C   UNL     1     -41.490  57.971 -54.280  1.00  0.00     0.104 A 
HETATM   19  C   UNL     1     -41.988  58.809 -55.282  1.00  0.00     0.048 A 
BRANCH  16  20
HETATM   20  O   UNL     1     -41.703  55.915 -53.015  1.00  0.00    -0.257 OA
BRANCH  20  21
HETATM   21  C   UNL     1     -40.861  54.891 -53.439  1.00  0.00     0.368 C 
HETATM   22  N   UNL     1     -40.766  53.868 -52.510  1.00  0.00    -0.324 N 
HETATM   23  C   UNL     1     -40.128  52.613 -52.900  1.00  0.00     0.154 C 
HETATM   24  C   UNL     1     -41.569  53.806 -51.291  1.00  0.00     0.154 C 
HETATM   25  C   UNL     1     -39.436  51.947 -51.709  1.00  0.00     0.187 C 
HETATM   26  O   UNL     1     -40.337  51.803 -50.600  1.00  0.00    -0.388 OA
HETATM   27  C   UNL     1     -40.808  53.090 -50.169  1.00  0.00     0.187 C 
HETATM   28  O   UNL     1     -40.245  54.883 -54.501  1.00  0.00    -0.238 OA
ENDBRANCH  20  21
ENDBRANCH  16  20
BRANCH  18  29
HETATM   29  O   UNL     1     -40.441  58.267 -53.454  1.00  0.00    -0.349 OA
BRANCH  29  30
HETATM   30  C   UNL     1     -40.631  59.226 -52.413  1.00  0.00     0.171 C 
HETATM   31  C   UNL     1     -40.490  58.597 -51.036  1.00  0.00     0.034 C 
ENDBRANCH  29  30
ENDBRANCH  18  29
ENDBRANCH   1  13
BRANCH   5  32
HETATM   32  N   UNL     1     -44.937  58.128 -60.546  1.00  0.00    -0.282 NA
HETATM   33  H   UNL     1     -45.552  57.321 -60.620  1.00  0.00     0.126 HD
HETATM   34  H   UNL     1     -45.130  58.840 -61.246  1.00  0.00     0.126 HD
ENDBRANCH   5  32
BRANCH  12  35
HETATM   35  C   UNL     1     -44.641  61.028 -54.432  1.00  0.00    -0.005 A 
HETATM   36  C   UNL     1     -44.751  60.275 -53.257  1.00  0.00     0.016 A 
HETATM   37  C   UNL     1     -44.049  60.650 -52.109  1.00  0.00     0.037 A 
HETATM   38  C   UNL     1     -43.228  61.779 -52.114  1.00  0.00     0.068 A 
HETATM   39  C   UNL     1     -43.128  62.544 -53.278  1.00  0.00     0.037 A 
HETATM   40  C   UNL     1     -43.832  62.171 -54.430  1.00  0.00     0.016 A 
BRANCH  38  41
HETATM   41  O   UNL     1     -42.602  62.038 -50.927  1.00  0.00    -0.356 OA
HETATM   42  C   UNL     1     -42.976  63.236 -50.259  1.00  0.00     0.210 C 
ENDBRANCH  38  41
ENDBRANCH  12  35
TORSDOF 8
ENDMDL
MODEL 7
REMARK VINA RESULT:      -6.6      2.766      5.872
REMARK  8 active torsions:
REMARK  status: ('A' for Active; 'I' for Inactive)
REMARK    1  A    between atoms: C_2  and  O_3 
REMARK    2  A    between atoms: O_3  and  C_4 
REMARK    3  A    between atoms: C_5  and  O_6 
REMARK    4  A    between atoms: O_6  and  C_7 
REMARK       I    between atoms: C_7  and  N_8 
REMARK    5  A    between atoms: C_18  and  C_19 
REMARK    6  A    between atoms: C_23  and  N_24 
REMARK    7  A    between atoms: C_31  and  C_32 
REMARK    8  A    between atoms: C_35  and  O_36 
ROOT
HETATM    1  C   UNL     1     -43.995  61.399 -54.742  1.00  0.00     0.106 A 
HETATM    2  C   UNL     1     -43.803  60.993 -56.207  1.00  0.00     0.081 A 
HETATM    3  C   UNL     1     -42.461  60.777 -56.640  1.00  0.00     0.100 C 
HETATM    4  N   UNL     1     -41.362  60.605 -56.971  1.00  0.00    -0.191 NA
HETATM    5  C   UNL     1     -44.830  60.907 -57.094  1.00  0.00     0.140 A 
HETATM    6  O   UNL     1     -46.158  61.180 -56.725  1.00  0.00    -0.279 OA
HETATM    7  C   UNL     1     -46.351  61.587 -55.477  1.00  0.00     0.175 A 
HETATM    8  C   UNL     1     -45.425  61.733 -54.477  1.00  0.00     0.040 A 
HETATM    9  N   UNL     1     -47.554  61.929 -54.955  1.00  0.00    -0.256 N 
HETATM   10  H   UNL     1     -48.458  61.937 -55.413  1.00  0.00     0.191 HD
HETATM   11  N   UNL     1     -47.477  62.280 -53.660  1.00  0.00    -0.172 NA
HETATM   12  C   UNL     1     -46.169  62.187 -53.352  1.00  0.00     0.099 A 
ENDROOT
BRANCH   1  13
HETATM   13  C   UNL     1     -43.563  60.312 -53.758  1.00  0.00    -0.040 A 
HETATM   14  C   UNL     1     -42.686  60.538 -52.681  1.00  0.00     0.030 A 
HETATM   15  C   UNL     1     -42.273  59.483 -51.867  1.00  0.00     0.048 A 
HETATM   16  C   UNL     1     -42.779  58.200 -52.082  1.00  0.00     0.131 A 
HETATM   17 BR   UNL     1     -41.022  59.838 -50.486  1.00  0.00    -0.048 Br
HETATM   18  C   UNL     1     -43.754  57.966 -53.059  1.00  0.00     0.104 A 
HETATM   19  C   UNL     1     -44.105  59.014 -53.915  1.00  0.00     0.048 A 
BRANCH  16  20
HETATM   20  O   UNL     1     -42.338  57.149 -51.270  1.00  0.00    -0.257 OA
BRANCH  20  21
HETATM   21  C   UNL     1     -41.455  56.302 -51.932  1.00  0.00     0.368 C 
HETATM   22  N   UNL     1     -41.216  55.133 -51.228  1.00  0.00    -0.324 N 
HETATM   23  C   UNL     1     -40.515  54.037 -51.891  1.00  0.00     0.154 C 
HETATM   24  C   UNL     1     -41.924  54.770 -50.002  1.00  0.00     0.154 C 
HETATM   25  C   UNL     1     -39.692  53.219 -50.893  1.00  0.00     0.187 C 
HETATM   26  O   UNL     1     -40.498  52.789 -49.785  1.00  0.00    -0.388 OA
HETATM   27  C   UNL     1     -41.034  53.923 -49.086  1.00  0.00     0.187 C 
HETATM   28  O   UNL     1     -40.916  56.551 -53.008  1.00  0.00    -0.238 OA
ENDBRANCH  20  21
ENDBRANCH  16  20
BRANCH  18  29
HETATM   29  O   UNL     1     -44.271  56.701 -53.109  1.00  0.00    -0.349 OA
BRANCH  29  30
HETATM   30  C   UNL     1     -44.337  56.032 -54.369  1.00  0.00     0.171 C 
HETATM   31  C   UNL     1     -43.647  54.678 -54.324  1.00  0.00     0.034 C 
ENDBRANCH  29  30
ENDBRANCH  18  29
ENDBRANCH   1  13
BRANCH   5  32
HETATM   32  N   UNL     1     -44.711  60.570 -58.424  1.00  0.00    -0.282 NA
HETATM   33  H   UNL     1     -44.557  61.345 -59.065  1.00  0.00     0.126 HD
HETATM   34  H   UNL     1     -44.064  59.798 -58.569  1.00  0.00     0.126 HD
ENDBRANCH   5  32
BRANCH  12  35
HETATM   35  C   UNL     1     -45.699  62.475 -51.999  1.00  0.00    -0.005 A 
HETATM   36  C   UNL     1     -44.941  63.626 -51.755  1.00  0.00     0.016 A 
HETATM   37  C   UNL     1     -44.508  63.926 -50.462  1.00  0.00     0.037 A 
HETATM   38  C   UNL     1     -44.823  63.085 -49.393  1.00  0.00     0.068 A 
HETATM   39  C   UNL     1     -45.563  61.926 -49.633  1.00  0.00     0.037 A 
HETATM   40  C   UNL     1     -45.998  61.622 -50.930  1.00  0.00     0.016 A 
BRANCH  38  41
HETATM   41  O   UNL     1     -44.335  63.490 -48.182  1.00  0.00    -0.356 OA
HETATM   42  C   UNL     1     -45.161  63.248 -47.051  1.00  0.00     0.210 C 
ENDBRANCH  38  41
ENDBRANCH  12  35
TORSDOF 8
ENDMDL
MODEL 8
REMARK VINA RESULT:      -6.6      2.729      5.676
REMARK  8 active torsions:
REMARK  status: ('A' for Active; 'I' for Inactive)
REMARK    1  A    between atoms: C_2  and  O_3 
REMARK    2  A    between atoms: O_3  and  C_4 
REMARK    3  A    between atoms: C_5  and  O_6 
REMARK    4  A    between atoms: O_6  and  C_7 
REMARK       I    between atoms: C_7  and  N_8 
REMARK    5  A    between atoms: C_18  and  C_19 
REMARK    6  A    between atoms: C_23  and  N_24 
REMARK    7  A    between atoms: C_31  and  C_32 
REMARK    8  A    between atoms: C_35  and  O_36 
ROOT
HETATM    1  C   UNL     1     -43.534  61.230 -55.393  1.00  0.00     0.106 A 
HETATM    2  C   UNL     1     -43.312  61.123 -56.906  1.00  0.00     0.081 A 
HETATM    3  C   UNL     1     -41.960  61.028 -57.349  1.00  0.00     0.100 C 
HETATM    4  N   UNL     1     -40.852  60.949 -57.687  1.00  0.00    -0.191 NA
HETATM    5  C   UNL     1     -44.325  61.189 -57.811  1.00  0.00     0.140 A 
HETATM    6  O   UNL     1     -45.665  61.352 -57.419  1.00  0.00    -0.279 OA
HETATM    7  C   UNL     1     -45.885  61.503 -56.120  1.00  0.00     0.175 A 
HETATM    8  C   UNL     1     -44.976  61.472 -55.094  1.00  0.00     0.040 A 
HETATM    9  N   UNL     1     -47.103  61.708 -55.563  1.00  0.00    -0.256 N 
HETATM   10  H   UNL     1     -48.001  61.784 -56.027  1.00  0.00     0.191 HD
HETATM   11  N   UNL     1     -47.053  61.801 -54.223  1.00  0.00    -0.172 NA
HETATM   12  C   UNL     1     -45.746  61.680 -53.915  1.00  0.00     0.099 A 
ENDROOT
BRANCH   1  13
HETATM   13  C   UNL     1     -43.087  59.981 -54.634  1.00  0.00    -0.040 A 
HETATM   14  C   UNL     1     -43.721  58.730 -54.747  1.00  0.00     0.030 A 
HETATM   15  C   UNL     1     -43.309  57.650 -53.967  1.00  0.00     0.048 A 
HETATM   16  C   UNL     1     -42.217  57.790 -53.108  1.00  0.00     0.131 A 
HETATM   17 BR   UNL     1     -44.261  56.015 -54.103  1.00  0.00    -0.048 Br
HETATM   18  C   UNL     1     -41.480  58.980 -53.070  1.00  0.00     0.104 A 
HETATM   19  C   UNL     1     -41.947  60.077 -53.801  1.00  0.00     0.048 A 
BRANCH  16  20
HETATM   20  O   UNL     1     -41.829  56.704 -52.316  1.00  0.00    -0.257 OA
BRANCH  20  21
HETATM   21  C   UNL     1     -41.117  55.749 -53.036  1.00  0.00     0.368 C 
HETATM   22  N   UNL     1     -40.981  54.558 -52.343  1.00  0.00    -0.324 N 
HETATM   23  C   UNL     1     -40.483  53.380 -53.048  1.00  0.00     0.154 C 
HETATM   24  C   UNL     1     -41.634  54.289 -51.064  1.00  0.00     0.154 C 
HETATM   25  C   UNL     1     -39.700  52.459 -52.109  1.00  0.00     0.187 C 
HETATM   26  O   UNL     1     -40.469  52.137 -50.940  1.00  0.00    -0.388 OA
HETATM   27  C   UNL     1     -40.796  53.330 -50.211  1.00  0.00     0.187 C 
HETATM   28  O   UNL     1     -40.634  55.928 -54.152  1.00  0.00    -0.238 OA
ENDBRANCH  20  21
ENDBRANCH  16  20
BRANCH  18  29
HETATM   29  O   UNL     1     -40.360  58.975 -52.286  1.00  0.00    -0.349 OA
BRANCH  29  30
HETATM   30  C   UNL     1     -40.444  59.494 -50.958  1.00  0.00     0.171 C 
HETATM   31  C   UNL     1     -39.067  59.736 -50.360  1.00  0.00     0.034 C 
ENDBRANCH  29  30
ENDBRANCH  18  29
ENDBRANCH   1  13
BRANCH   5  32
HETATM   32  N   UNL     1     -44.180  61.121 -59.179  1.00  0.00    -0.282 NA
HETATM   33  H   UNL     1     -44.992  61.400 -59.724  1.00  0.00     0.126 HD
HETATM   34  H   UNL     1     -43.318  61.558 -59.496  1.00  0.00     0.126 HD
ENDBRANCH   5  32
BRANCH  12  35
HETATM   35  C   UNL     1     -45.302  61.707 -52.525  1.00  0.00    -0.005 A 
HETATM   36  C   UNL     1     -45.928  60.889 -51.577  1.00  0.00     0.016 A 
HETATM   37  C   UNL     1     -45.495  60.886 -50.249  1.00  0.00     0.037 A 
HETATM   38  C   UNL     1     -44.433  61.697 -49.846  1.00  0.00     0.068 A 
HETATM   39  C   UNL     1     -43.816  62.528 -50.782  1.00  0.00     0.037 A 
HETATM   40  C   UNL     1     -44.249  62.534 -52.115  1.00  0.00     0.016 A 
BRANCH  38  41
HETATM   41  O   UNL     1     -44.111  61.604 -48.520  1.00  0.00    -0.356 OA
HETATM   42  C   UNL     1     -45.134  61.142 -47.648  1.00  0.00     0.210 C 
ENDBRANCH  38  41
ENDBRANCH  12  35
TORSDOF 8
ENDMDL
MODEL 9
REMARK VINA RESULT:      -6.6      2.811      7.118
REMARK  8 active torsions:
REMARK  status: ('A' for Active; 'I' for Inactive)
REMARK    1  A    between atoms: C_2  and  O_3 
REMARK    2  A    between atoms: O_3  and  C_4 
REMARK    3  A    between atoms: C_5  and  O_6 
REMARK    4  A    between atoms: O_6  and  C_7 
REMARK       I    between atoms: C_7  and  N_8 
REMARK    5  A    between atoms: C_18  and  C_19 
REMARK    6  A    between atoms: C_23  and  N_24 
REMARK    7  A    between atoms: C_31  and  C_32 
REMARK    8  A    between atoms: C_35  and  O_36 
ROOT
HETATM    1  C   UNL     1     -45.471  57.862 -57.880  1.00  0.00     0.106 A 
HETATM    2  C   UNL     1     -46.336  58.572 -58.926  1.00  0.00     0.081 A 
HETATM    3  C   UNL     1     -47.565  59.132 -58.467  1.00  0.00     0.100 C 
HETATM    4  N   UNL     1     -48.560  59.581 -58.071  1.00  0.00    -0.191 NA
HETATM    5  C   UNL     1     -46.015  58.620 -60.247  1.00  0.00     0.140 A 
HETATM    6  O   UNL     1     -44.848  58.021 -60.751  1.00  0.00    -0.279 OA
HETATM    7  C   UNL     1     -44.105  57.351 -59.880  1.00  0.00     0.175 A 
HETATM    8  C   UNL     1     -44.301  57.205 -58.531  1.00  0.00     0.040 A 
HETATM    9  N   UNL     1     -42.968  56.682 -60.190  1.00  0.00    -0.256 N 
HETATM   10  H   UNL     1     -42.526  56.581 -61.096  1.00  0.00     0.191 HD
HETATM   11  N   UNL     1     -42.393  56.111 -59.118  1.00  0.00    -0.172 NA
HETATM   12  C   UNL     1     -43.211  56.403 -58.088  1.00  0.00     0.099 A 
ENDROOT
BRANCH   1  13
HETATM   13  C   UNL     1     -44.952  58.805 -56.794  1.00  0.00    -0.040 A 
HETATM   14  C   UNL     1     -44.274  60.009 -57.065  1.00  0.00     0.030 A 
HETATM   15  C   UNL     1     -43.759  60.784 -56.026  1.00  0.00     0.048 A 
HETATM   16  C   UNL     1     -43.970  60.398 -54.701  1.00  0.00     0.131 A 
HETATM   17 BR   UNL     1     -42.780  62.349 -56.460  1.00  0.00    -0.048 Br
HETATM   18  C   UNL     1     -44.753  59.279 -54.393  1.00  0.00     0.104 A 
HETATM   19  C   UNL     1     -45.201  58.471 -55.442  1.00  0.00     0.048 A 
BRANCH  16  20
HETATM   20  O   UNL     1     -43.429  61.175 -53.670  1.00  0.00    -0.257 OA
BRANCH  20  21
HETATM   21  C   UNL     1     -44.348  62.080 -53.149  1.00  0.00     0.368 C 
HETATM   22  N   UNL     1     -44.266  62.181 -51.770  1.00  0.00    -0.324 N 
HETATM   23  C   UNL     1     -44.982  63.259 -51.094  1.00  0.00     0.154 C 
HETATM   24  C   UNL     1     -43.237  61.520 -50.972  1.00  0.00     0.154 C 
HETATM   25  C   UNL     1     -45.429  62.837 -49.692  1.00  0.00     0.187 C 
HETATM   26  O   UNL     1     -44.326  62.324 -48.929  1.00  0.00    -0.388 OA
HETATM   27  C   UNL     1     -43.764  61.171 -49.575  1.00  0.00     0.187 C 
HETATM   28  O   UNL     1     -45.165  62.712 -53.814  1.00  0.00    -0.238 OA
ENDBRANCH  20  21
ENDBRANCH  16  20
BRANCH  18  29
HETATM   29  O   UNL     1     -44.997  59.056 -53.066  1.00  0.00    -0.349 OA
BRANCH  29  30
HETATM   30  C   UNL     1     -44.667  57.783 -52.508  1.00  0.00     0.171 C 
HETATM   31  C   UNL     1     -43.495  57.879 -51.544  1.00  0.00     0.034 C 
ENDBRANCH  29  30
ENDBRANCH  18  29
ENDBRANCH   1  13
BRANCH   5  32
HETATM   32  N   UNL     1     -46.766  59.222 -61.231  1.00  0.00    -0.282 NA
HETATM   33  H   UNL     1     -47.409  58.614 -61.732  1.00  0.00     0.126 HD
HETATM   34  H   UNL     1     -47.201  60.084 -60.909  1.00  0.00     0.126 HD
ENDBRANCH   5  32
BRANCH  12  35
HETATM   35  C   UNL     1     -42.891  55.962 -56.733  1.00  0.00    -0.005 A 
HETATM   36  C   UNL     1     -42.158  56.798 -55.883  1.00  0.00     0.016 A 
HETATM   37  C   UNL     1     -41.868  56.399 -54.576  1.00  0.00     0.037 A 
HETATM   38  C   UNL     1     -42.305  55.163 -54.097  1.00  0.00     0.068 A 
HETATM   39  C   UNL     1     -43.022  54.317 -54.945  1.00  0.00     0.037 A 
HETATM   40  C   UNL     1     -43.312  54.714 -56.257  1.00  0.00     0.016 A 
BRANCH  38  41
HETATM   41  O   UNL     1     -41.952  54.892 -52.804  1.00  0.00    -0.356 OA
HETATM   42  C   UNL     1     -42.883  54.144 -52.034  1.00  0.00     0.210 C 
ENDBRANCH  38  41
ENDBRANCH  12  35
TORSDOF 8
ENDMDL
MODEL 10
REMARK VINA RESULT:      -6.5      3.466      7.034
REMARK  8 active torsions:
REMARK  status: ('A' for Active; 'I' for Inactive)
REMARK    1  A    between atoms: C_2  and  O_3 
REMARK    2  A    between atoms: O_3  and  C_4 
REMARK    3  A    between atoms: C_5  and  O_6 
REMARK    4  A    between atoms: O_6  and  C_7 
REMARK       I    between atoms: C_7  and  N_8 
REMARK    5  A    between atoms: C_18  and  C_19 
REMARK    6  A    between atoms: C_23  and  N_24 
REMARK    7  A    between atoms: C_31  and  C_32 
REMARK    8  A    between atoms: C_35  and  O_36 
ROOT
HETATM    1  C   UNL     1     -43.891  58.309 -52.244  1.00  0.00     0.106 A 
HETATM    2  C   UNL     1     -42.868  57.259 -51.796  1.00  0.00     0.081 A 
HETATM    3  C   UNL     1     -43.153  55.903 -52.133  1.00  0.00     0.100 C 
HETATM    4  N   UNL     1     -43.404  54.807 -52.420  1.00  0.00    -0.191 NA
HETATM    5  C   UNL     1     -41.772  57.562 -51.049  1.00  0.00     0.140 A 
HETATM    6  O   UNL     1     -41.492  58.875 -50.637  1.00  0.00    -0.279 OA
HETATM    7  C   UNL     1     -42.387  59.799 -50.962  1.00  0.00     0.175 A 
HETATM    8  C   UNL     1     -43.536  59.650 -51.695  1.00  0.00     0.040 A 
HETATM    9  N   UNL     1     -42.303  61.108 -50.620  1.00  0.00    -0.256 N 
HETATM   10  H   UNL     1     -41.581  61.571 -50.079  1.00  0.00     0.191 HD
HETATM   11  N   UNL     1     -43.327  61.836 -51.098  1.00  0.00    -0.172 NA
HETATM   12  C   UNL     1     -44.110  60.951 -51.745  1.00  0.00     0.099 A 
ENDROOT
BRANCH   1  13
HETATM   13  C   UNL     1     -44.003  58.424 -53.764  1.00  0.00    -0.040 A 
HETATM   14  C   UNL     1     -45.180  58.144 -54.483  1.00  0.00     0.030 A 
HETATM   15  C   UNL     1     -45.191  58.196 -55.877  1.00  0.00     0.048 A 
HETATM   16  C   UNL     1     -44.042  58.588 -56.567  1.00  0.00     0.131 A 
HETATM   17 BR   UNL     1     -46.784  57.723 -56.791  1.00  0.00    -0.048 Br
HETATM   18  C   UNL     1     -42.896  59.002 -55.878  1.00  0.00     0.104 A 
HETATM   19  C   UNL     1     -42.873  58.876 -54.486  1.00  0.00     0.048 A 
BRANCH  16  20
HETATM   20  O   UNL     1     -44.063  58.614 -57.966  1.00  0.00    -0.257 OA
BRANCH  20  21
HETATM   21  C   UNL     1     -43.613  57.423 -58.526  1.00  0.00     0.368 C 
HETATM   22  N   UNL     1     -44.459  56.952 -59.517  1.00  0.00    -0.324 N 
HETATM   23  C   UNL     1     -44.011  55.856 -60.371  1.00  0.00     0.154 C 
HETATM   24  C   UNL     1     -45.613  57.698 -60.013  1.00  0.00     0.154 C 
HETATM   25  C   UNL     1     -45.186  54.989 -60.826  1.00  0.00     0.187 C 
HETATM   26  O   UNL     1     -46.218  55.788 -61.425  1.00  0.00    -0.388 OA
HETATM   27  C   UNL     1     -46.720  56.746 -60.481  1.00  0.00     0.187 C 
HETATM   28  O   UNL     1     -42.596  56.825 -58.181  1.00  0.00    -0.238 OA
ENDBRANCH  20  21
ENDBRANCH  16  20
BRANCH  18  29
HETATM   29  O   UNL     1     -41.867  59.480 -56.643  1.00  0.00    -0.349 OA
BRANCH  29  30
HETATM   30  C   UNL     1     -41.884  60.850 -57.043  1.00  0.00     0.171 C 
HETATM   31  C   UNL     1     -41.122  61.068 -58.341  1.00  0.00     0.034 C 
ENDBRANCH  29  30
ENDBRANCH  18  29
ENDBRANCH   1  13
BRANCH   5  32
HETATM   32  N   UNL     1     -40.836  56.657 -50.601  1.00  0.00    -0.282 NA
HETATM   33  H   UNL     1     -40.714  55.826 -51.175  1.00  0.00     0.126 HD
HETATM   34  H   UNL     1     -39.956  57.104 -50.356  1.00  0.00     0.126 HD
ENDBRANCH   5  32
BRANCH  12  35
HETATM   35  C   UNL     1     -45.326  61.389 -52.425  1.00  0.00    -0.005 A 
HETATM   36  C   UNL     1     -46.572  61.193 -51.819  1.00  0.00     0.016 A 
HETATM   37  C   UNL     1     -47.740  61.632 -52.447  1.00  0.00     0.037 A 
HETATM   38  C   UNL     1     -47.684  62.271 -53.686  1.00  0.00     0.068 A 
HETATM   39  C   UNL     1     -46.446  62.453 -54.304  1.00  0.00     0.037 A 
HETATM   40  C   UNL     1     -45.273  62.014 -53.677  1.00  0.00     0.016 A 
BRANCH  38  41
HETATM   41  O   UNL     1     -48.898  62.646 -54.194  1.00  0.00    -0.356 OA
HETATM   42  C   UNL     1     -50.048  62.197 -53.489  1.00  0.00     0.210 C 
ENDBRANCH  38  41
ENDBRANCH  12  35
TORSDOF 8
ENDMDL
