MODEL 1
REMARK VINA RESULT:      -8.3      0.000      0.000
REMARK  6 active torsions:
REMARK  status: ('A' for Active; 'I' for Inactive)
REMARK    1  A    between atoms: C_2  and  C_3 
REMARK       I    between atoms: C_3  and  N_4 
REMARK    2  A    between atoms: N_4  and  C_5 
REMARK    3  A    between atoms: C_8  and  N_9 
REMARK       I    between atoms: N_9  and  C_10 
REMARK    4  A    between atoms: C_10  and  C_11 
REMARK    5  A    between atoms: C_16  and  C_17 
REMARK    6  A    between atoms: C_23  and  C_24 
ROOT
HETATM    1  C   UNL     1     -42.933  55.818 -51.771  1.00  0.00     0.148 C 
HETATM    2  N   UNL     1     -43.176  55.285 -52.994  1.00  0.00    -0.165 NA
HETATM    3  N   UNL     1     -42.066  54.569 -53.236  1.00  0.00    -0.240 N 
HETATM    4  C   UNL     1     -41.227  54.460 -52.167  1.00  0.00     0.123 C 
HETATM    5  N   UNL     1     -40.177  53.616 -52.197  1.00  0.00    -0.364 N 
HETATM    6  C   UNL     1     -40.039  52.552 -53.202  1.00  0.00     0.143 C 
HETATM    7  C   UNL     1     -41.274  52.471 -54.133  1.00  0.00     0.068 C 
HETATM    8  C   UNL     1     -41.856  53.846 -54.473  1.00  0.00     0.221 C 
HETATM    9  C   UNL     1     -41.706  55.338 -51.231  1.00  0.00     0.089 C 
HETATM   10  H   UNL     1     -39.532  53.548 -51.411  1.00  0.00     0.162 HD
ENDROOT
BRANCH   1  11
HETATM   11  C   UNL     1     -43.891  56.730 -51.120  1.00  0.00     0.276 C 
HETATM   12  N   UNL     1     -43.669  58.040 -51.494  1.00  0.00    -0.322 N 
HETATM   13  H   UNL     1     -42.925  58.141 -52.180  1.00  0.00     0.169 HD
HETATM   14  O   UNL     1     -44.782  56.314 -50.388  1.00  0.00    -0.266 OA
BRANCH  12  15
HETATM   15  C   UNL     1     -44.343  59.195 -51.074  1.00  0.00     0.035 A 
HETATM   16  C   UNL     1     -43.767  60.188 -50.286  1.00  0.00     0.032 A 
HETATM   17  C   UNL     1     -44.491  61.341 -49.950  1.00  0.00     0.032 A 
HETATM   18  C   UNL     1     -45.807  61.504 -50.379  1.00  0.00     0.034 A 
HETATM   19  C   UNL     1     -46.395  60.491 -51.144  1.00  0.00     0.032 A 
HETATM   20  C   UNL     1     -45.664  59.354 -51.503  1.00  0.00     0.032 A 
BRANCH  18  21
HETATM   21  N   UNL     1     -46.601  62.635 -50.098  1.00  0.00    -0.327 N 
HETATM   22  C   UNL     1     -47.235  62.940 -48.908  1.00  0.00     0.221 C 
HETATM   23  O   UNL     1     -47.238  62.261 -47.887  1.00  0.00    -0.273 OA
HETATM   24  H   UNL     1     -46.662  63.320 -50.838  1.00  0.00     0.169 HD
BRANCH  22  25
HETATM   25  C   UNL     1     -48.012  64.247 -48.959  1.00  0.00     0.098 C 
HETATM   26  C   UNL     1     -49.507  64.060 -49.152  1.00  0.00     0.014 C 
ENDBRANCH  22  25
ENDBRANCH  18  21
ENDBRANCH  12  15
ENDBRANCH   1  11
BRANCH   8  27
HETATM   27  C   UNL     1     -40.974  54.647 -55.404  1.00  0.00     0.409 C 
HETATM   28  F   UNL     1     -41.677  55.225 -56.403  1.00  0.00    -0.169 F 
HETATM   29  F   UNL     1     -40.266  55.613 -54.785  1.00  0.00    -0.169 F 
HETATM   30  F   UNL     1     -40.070  53.822 -55.995  1.00  0.00    -0.169 F 
ENDBRANCH   8  27
BRANCH   6  31
HETATM   31  C   UNL     1     -39.824  51.204 -52.582  1.00  0.00     0.075 A 
HETATM   32  O   UNL     1     -39.693  51.161 -51.225  1.00  0.00    -0.325 OA
HETATM   33  C   UNL     1     -39.474  49.862 -50.890  1.00  0.00     0.142 A 
HETATM   34  C   UNL     1     -39.455  49.069 -52.014  1.00  0.00     0.027 A 
HETATM   35  C   UNL     1     -39.682  49.935 -53.110  1.00  0.00     0.037 A 
ENDBRANCH   6  31
TORSDOF 6
ENDMDL
MODEL 2
REMARK VINA RESULT:      -8.0      6.325     10.992
REMARK  6 active torsions:
REMARK  status: ('A' for Active; 'I' for Inactive)
REMARK    1  A    between atoms: C_2  and  C_3 
REMARK       I    between atoms: C_3  and  N_4 
REMARK    2  A    between atoms: N_4  and  C_5 
REMARK    3  A    between atoms: C_8  and  N_9 
REMARK       I    between atoms: N_9  and  C_10 
REMARK    4  A    between atoms: C_10  and  C_11 
REMARK    5  A    between atoms: C_16  and  C_17 
REMARK    6  A    between atoms: C_23  and  C_24 
ROOT
HETATM    1  C   UNL     1     -42.772  57.195 -57.715  1.00  0.00     0.148 C 
HETATM    2  N   UNL     1     -43.051  57.283 -59.038  1.00  0.00    -0.165 NA
HETATM    3  N   UNL     1     -43.089  58.608 -59.252  1.00  0.00    -0.240 N 
HETATM    4  C   UNL     1     -42.662  59.356 -58.194  1.00  0.00     0.123 C 
HETATM    5  N   UNL     1     -42.459  60.681 -58.323  1.00  0.00    -0.364 N 
HETATM    6  C   UNL     1     -42.366  61.349 -59.630  1.00  0.00     0.143 C 
HETATM    7  C   UNL     1     -42.431  60.339 -60.802  1.00  0.00     0.068 C 
HETATM    8  C   UNL     1     -43.403  59.184 -60.542  1.00  0.00     0.221 C 
HETATM    9  C   UNL     1     -42.544  58.481 -57.147  1.00  0.00     0.089 C 
HETATM   10  H   UNL     1     -42.164  61.250 -57.531  1.00  0.00     0.162 HD
ENDROOT
BRANCH   1  11
HETATM   11  C   UNL     1     -42.679  55.894 -57.028  1.00  0.00     0.276 C 
HETATM   12  N   UNL     1     -41.803  55.951 -55.962  1.00  0.00    -0.322 N 
HETATM   13  H   UNL     1     -41.418  56.879 -55.810  1.00  0.00     0.169 HD
HETATM   14  O   UNL     1     -43.355  54.932 -57.375  1.00  0.00    -0.266 OA
BRANCH  12  15
HETATM   15  C   UNL     1     -41.424  54.924 -55.087  1.00  0.00     0.035 A 
HETATM   16  C   UNL     1     -42.103  54.616 -53.911  1.00  0.00     0.032 A 
HETATM   17  C   UNL     1     -41.692  53.538 -53.113  1.00  0.00     0.032 A 
HETATM   18  C   UNL     1     -40.586  52.770 -53.470  1.00  0.00     0.034 A 
HETATM   19  C   UNL     1     -39.886  53.101 -54.635  1.00  0.00     0.032 A 
HETATM   20  C   UNL     1     -40.312  54.157 -55.447  1.00  0.00     0.032 A 
BRANCH  18  21
HETATM   21  N   UNL     1     -40.115  51.664 -52.733  1.00  0.00    -0.327 N 
HETATM   22  C   UNL     1     -40.005  50.354 -53.162  1.00  0.00     0.221 C 
HETATM   23  O   UNL     1     -40.324  49.918 -54.263  1.00  0.00    -0.273 OA
HETATM   24  H   UNL     1     -39.771  51.872 -51.805  1.00  0.00     0.169 HD
BRANCH  22  25
HETATM   25  C   UNL     1     -39.457  49.417 -52.096  1.00  0.00     0.098 C 
HETATM   26  C   UNL     1     -39.747  49.872 -50.677  1.00  0.00     0.014 C 
ENDBRANCH  22  25
ENDBRANCH  18  21
ENDBRANCH  12  15
ENDBRANCH   1  11
BRANCH   8  27
HETATM   27  C   UNL     1     -44.853  59.612 -60.584  1.00  0.00     0.409 C 
HETATM   28  F   UNL     1     -45.692  58.561 -60.708  1.00  0.00    -0.169 F 
HETATM   29  F   UNL     1     -45.241  60.326 -59.508  1.00  0.00    -0.169 F 
HETATM   30  F   UNL     1     -45.062  60.403 -61.670  1.00  0.00    -0.169 F 
ENDBRANCH   8  27
BRANCH   6  31
HETATM   31  C   UNL     1     -41.111  62.158 -59.771  1.00  0.00     0.075 A 
HETATM   32  O   UNL     1     -40.737  62.503 -61.037  1.00  0.00    -0.325 OA
HETATM   33  C   UNL     1     -39.571  63.192 -60.930  1.00  0.00     0.142 A 
HETATM   34  C   UNL     1     -39.186  63.291 -59.614  1.00  0.00     0.027 A 
HETATM   35  C   UNL     1     -40.181  62.623 -58.862  1.00  0.00     0.037 A 
ENDBRANCH   6  31
TORSDOF 6
ENDMDL
MODEL 3
REMARK VINA RESULT:      -7.7      3.648     10.600
REMARK  6 active torsions:
REMARK  status: ('A' for Active; 'I' for Inactive)
REMARK    1  A    between atoms: C_2  and  C_3 
REMARK       I    between atoms: C_3  and  N_4 
REMARK    2  A    between atoms: N_4  and  C_5 
REMARK    3  A    between atoms: C_8  and  N_9 
REMARK       I    between atoms: N_9  and  C_10 
REMARK    4  A    between atoms: C_10  and  C_11 
REMARK    5  A    between atoms: C_16  and  C_17 
REMARK    6  A    between atoms: C_23  and  C_24 
ROOT
HETATM    1  C   UNL     1     -44.380  59.066 -51.826  1.00  0.00     0.148 C 
HETATM    2  N   UNL     1     -43.632  60.192 -51.921  1.00  0.00    -0.165 NA
HETATM    3  N   UNL     1     -44.273  61.050 -51.111  1.00  0.00    -0.240 N 
HETATM    4  C   UNL     1     -45.263  60.479 -50.365  1.00  0.00     0.123 C 
HETATM    5  N   UNL     1     -45.860  61.164 -49.372  1.00  0.00    -0.364 N 
HETATM    6  C   UNL     1     -45.305  62.406 -48.815  1.00  0.00     0.143 C 
HETATM    7  C   UNL     1     -43.931  62.757 -49.437  1.00  0.00     0.068 C 
HETATM    8  C   UNL     1     -43.849  62.422 -50.929  1.00  0.00     0.221 C 
HETATM    9  C   UNL     1     -45.427  59.218 -50.874  1.00  0.00     0.089 C 
HETATM   10  H   UNL     1     -46.617  60.752 -48.827  1.00  0.00     0.162 HD
ENDROOT
BRANCH   1  11
HETATM   11  C   UNL     1     -44.057  57.855 -52.603  1.00  0.00     0.276 C 
HETATM   12  N   UNL     1     -42.978  57.185 -52.061  1.00  0.00    -0.322 N 
HETATM   13  H   UNL     1     -42.631  57.611 -51.205  1.00  0.00     0.169 HD
HETATM   14  O   UNL     1     -44.727  57.511 -53.570  1.00  0.00    -0.266 OA
BRANCH  12  15
HETATM   15  C   UNL     1     -42.353  56.017 -52.521  1.00  0.00     0.035 A 
HETATM   16  C   UNL     1     -41.248  56.010 -53.367  1.00  0.00     0.032 A 
HETATM   17  C   UNL     1     -40.646  54.799 -53.741  1.00  0.00     0.032 A 
HETATM   18  C   UNL     1     -41.157  53.582 -53.293  1.00  0.00     0.034 A 
HETATM   19  C   UNL     1     -42.288  53.591 -52.470  1.00  0.00     0.032 A 
HETATM   20  C   UNL     1     -42.871  54.799 -52.072  1.00  0.00     0.032 A 
BRANCH  18  21
HETATM   21  N   UNL     1     -40.607  52.324 -53.611  1.00  0.00    -0.327 N 
HETATM   22  C   UNL     1     -39.709  51.587 -52.862  1.00  0.00     0.221 C 
HETATM   23  O   UNL     1     -39.212  51.914 -51.789  1.00  0.00    -0.273 OA
HETATM   24  H   UNL     1     -40.955  51.897 -54.459  1.00  0.00     0.169 HD
BRANCH  22  25
HETATM   25  C   UNL     1     -39.323  50.267 -53.513  1.00  0.00     0.098 C 
HETATM   26  C   UNL     1     -40.154  49.926 -54.738  1.00  0.00     0.014 C 
ENDBRANCH  22  25
ENDBRANCH  18  21
ENDBRANCH  12  15
ENDBRANCH   1  11
BRANCH   8  27
HETATM   27  C   UNL     1     -44.683  63.345 -51.788  1.00  0.00     0.409 C 
HETATM   28  F   UNL     1     -44.020  63.752 -52.893  1.00  0.00    -0.169 F 
HETATM   29  F   UNL     1     -45.856  62.809 -52.183  1.00  0.00    -0.169 F 
HETATM   30  F   UNL     1     -44.987  64.468 -51.086  1.00  0.00    -0.169 F 
ENDBRANCH   8  27
BRANCH   6  31
HETATM   31  C   UNL     1     -45.148  62.346 -47.324  1.00  0.00     0.075 A 
HETATM   32  O   UNL     1     -44.751  61.154 -46.793  1.00  0.00    -0.325 OA
HETATM   33  C   UNL     1     -44.710  61.317 -45.445  1.00  0.00     0.142 A 
HETATM   34  C   UNL     1     -45.081  62.596 -45.100  1.00  0.00     0.027 A 
HETATM   35  C   UNL     1     -45.364  63.264 -46.315  1.00  0.00     0.037 A 
ENDBRANCH   6  31
TORSDOF 6
ENDMDL
MODEL 4
REMARK VINA RESULT:      -7.6      6.440      8.238
REMARK  6 active torsions:
REMARK  status: ('A' for Active; 'I' for Inactive)
REMARK    1  A    between atoms: C_2  and  C_3 
REMARK       I    between atoms: C_3  and  N_4 
REMARK    2  A    between atoms: N_4  and  C_5 
REMARK    3  A    between atoms: C_8  and  N_9 
REMARK       I    between atoms: N_9  and  C_10 
REMARK    4  A    between atoms: C_10  and  C_11 
REMARK    5  A    between atoms: C_16  and  C_17 
REMARK    6  A    between atoms: C_23  and  C_24 
ROOT
HETATM    1  C   UNL     1     -42.849  56.579 -56.580  1.00  0.00     0.148 C 
HETATM    2  N   UNL     1     -42.198  57.127 -55.526  1.00  0.00    -0.165 NA
HETATM    3  N   UNL     1     -42.236  56.150 -54.606  1.00  0.00    -0.240 N 
HETATM    4  C   UNL     1     -42.697  54.956 -55.079  1.00  0.00     0.123 C 
HETATM    5  N   UNL     1     -42.610  53.839 -54.332  1.00  0.00    -0.364 N 
HETATM    6  C   UNL     1     -41.758  53.743 -53.137  1.00  0.00     0.143 C 
HETATM    7  C   UNL     1     -40.924  55.029 -52.917  1.00  0.00     0.068 C 
HETATM    8  C   UNL     1     -41.689  56.306 -53.275  1.00  0.00     0.221 C 
HETATM    9  C   UNL     1     -43.197  55.222 -56.326  1.00  0.00     0.089 C 
HETATM   10  H   UNL     1     -42.974  52.949 -54.669  1.00  0.00     0.162 HD
ENDROOT
BRANCH   1  11
HETATM   11  C   UNL     1     -43.084  57.335 -57.824  1.00  0.00     0.276 C 
HETATM   12  N   UNL     1     -42.084  58.263 -58.042  1.00  0.00    -0.322 N 
HETATM   13  H   UNL     1     -41.347  58.229 -57.343  1.00  0.00     0.169 HD
HETATM   14  O   UNL     1     -44.036  57.093 -58.556  1.00  0.00    -0.266 OA
BRANCH  12  15
HETATM   15  C   UNL     1     -41.963  59.186 -59.090  1.00  0.00     0.035 A 
HETATM   16  C   UNL     1     -41.979  58.838 -60.438  1.00  0.00     0.032 A 
HETATM   17  C   UNL     1     -41.905  59.826 -61.430  1.00  0.00     0.032 A 
HETATM   18  C   UNL     1     -41.790  61.172 -61.086  1.00  0.00     0.034 A 
HETATM   19  C   UNL     1     -41.742  61.517 -59.731  1.00  0.00     0.032 A 
HETATM   20  C   UNL     1     -41.845  60.535 -58.741  1.00  0.00     0.032 A 
BRANCH  18  21
HETATM   21  N   UNL     1     -41.723  62.228 -62.018  1.00  0.00    -0.327 N 
HETATM   22  C   UNL     1     -40.595  62.915 -62.428  1.00  0.00     0.221 C 
HETATM   23  O   UNL     1     -39.449  62.741 -62.028  1.00  0.00    -0.273 OA
HETATM   24  H   UNL     1     -42.594  62.465 -62.472  1.00  0.00     0.169 HD
BRANCH  22  25
HETATM   25  C   UNL     1     -40.893  64.002 -63.451  1.00  0.00     0.098 C 
HETATM   26  C   UNL     1     -42.355  64.406 -63.502  1.00  0.00     0.014 C 
ENDBRANCH  22  25
ENDBRANCH  18  21
ENDBRANCH  12  15
ENDBRANCH   1  11
BRANCH   8  27
HETATM   27  C   UNL     1     -42.791  56.629 -52.291  1.00  0.00     0.409 C 
HETATM   28  F   UNL     1     -42.659  55.945 -51.134  1.00  0.00    -0.169 F 
HETATM   29  F   UNL     1     -42.883  57.940 -51.988  1.00  0.00    -0.169 F 
HETATM   30  F   UNL     1     -43.991  56.268 -52.818  1.00  0.00    -0.169 F 
ENDBRANCH   8  27
BRANCH   6  31
HETATM   31  C   UNL     1     -40.820  52.574 -53.195  1.00  0.00     0.075 A 
HETATM   32  O   UNL     1     -40.162  52.254 -52.044  1.00  0.00    -0.325 OA
HETATM   33  C   UNL     1     -39.352  51.201 -52.333  1.00  0.00     0.142 A 
HETATM   34  C   UNL     1     -39.476  50.844 -53.655  1.00  0.00     0.027 A 
HETATM   35  C   UNL     1     -40.426  51.730 -54.214  1.00  0.00     0.037 A 
ENDBRANCH   6  31
TORSDOF 6
ENDMDL
MODEL 5
REMARK VINA RESULT:      -7.5      6.696      8.190
REMARK  6 active torsions:
REMARK  status: ('A' for Active; 'I' for Inactive)
REMARK    1  A    between atoms: C_2  and  C_3 
REMARK       I    between atoms: C_3  and  N_4 
REMARK    2  A    between atoms: N_4  and  C_5 
REMARK    3  A    between atoms: C_8  and  N_9 
REMARK       I    between atoms: N_9  and  C_10 
REMARK    4  A    between atoms: C_10  and  C_11 
REMARK    5  A    between atoms: C_16  and  C_17 
REMARK    6  A    between atoms: C_23  and  C_24 
ROOT
HETATM    1  C   UNL     1     -43.205  56.384 -56.768  1.00  0.00     0.148 C 
HETATM    2  N   UNL     1     -42.303  57.059 -56.014  1.00  0.00    -0.165 NA
HETATM    3  N   UNL     1     -42.175  56.281 -54.927  1.00  0.00    -0.240 N 
HETATM    4  C   UNL     1     -42.791  55.069 -55.033  1.00  0.00     0.123 C 
HETATM    5  N   UNL     1     -42.589  54.110 -54.109  1.00  0.00    -0.364 N 
HETATM    6  C   UNL     1     -41.491  54.163 -53.132  1.00  0.00     0.143 C 
HETATM    7  C   UNL     1     -40.566  55.383 -53.367  1.00  0.00     0.068 C 
HETATM    8  C   UNL     1     -41.330  56.635 -53.807  1.00  0.00     0.221 C 
HETATM    9  C   UNL     1     -43.550  55.138 -56.170  1.00  0.00     0.089 C 
HETATM   10  H   UNL     1     -43.065  53.210 -54.168  1.00  0.00     0.162 HD
ENDROOT
BRANCH   1  11
HETATM   11  C   UNL     1     -43.682  56.909 -58.060  1.00  0.00     0.276 C 
HETATM   12  N   UNL     1     -45.060  56.869 -58.139  1.00  0.00    -0.322 N 
HETATM   13  H   UNL     1     -45.500  56.535 -57.287  1.00  0.00     0.169 HD
HETATM   14  O   UNL     1     -42.908  57.357 -58.899  1.00  0.00    -0.266 OA
BRANCH  12  15
HETATM   15  C   UNL     1     -45.885  57.250 -59.207  1.00  0.00     0.035 A 
HETATM   16  C   UNL     1     -46.475  56.350 -60.090  1.00  0.00     0.032 A 
HETATM   17  C   UNL     1     -47.332  56.806 -61.103  1.00  0.00     0.032 A 
HETATM   18  C   UNL     1     -47.590  58.167 -61.258  1.00  0.00     0.034 A 
HETATM   19  C   UNL     1     -46.969  59.071 -60.390  1.00  0.00     0.032 A 
HETATM   20  C   UNL     1     -46.138  58.615 -59.362  1.00  0.00     0.032 A 
BRANCH  18  21
HETATM   21  N   UNL     1     -48.446  58.707 -62.240  1.00  0.00    -0.327 N 
HETATM   22  C   UNL     1     -49.562  58.112 -62.799  1.00  0.00     0.221 C 
HETATM   23  O   UNL     1     -49.992  56.990 -62.553  1.00  0.00    -0.273 OA
HETATM   24  H   UNL     1     -48.244  59.656 -62.521  1.00  0.00     0.169 HD
BRANCH  22  25
HETATM   25  C   UNL     1     -50.252  58.985 -63.837  1.00  0.00     0.098 C 
HETATM   26  C   UNL     1     -51.633  59.455 -63.416  1.00  0.00     0.014 C 
ENDBRANCH  22  25
ENDBRANCH  18  21
ENDBRANCH  12  15
ENDBRANCH   1  11
BRANCH   8  27
HETATM   27  C   UNL     1     -42.158  57.241 -52.697  1.00  0.00     0.409 C 
HETATM   28  F   UNL     1     -43.457  56.874 -52.770  1.00  0.00    -0.169 F 
HETATM   29  F   UNL     1     -41.713  56.942 -51.460  1.00  0.00    -0.169 F 
HETATM   30  F   UNL     1     -42.134  58.596 -52.799  1.00  0.00    -0.169 F 
ENDBRANCH   8  27
BRANCH   6  31
HETATM   31  C   UNL     1     -40.650  52.921 -53.148  1.00  0.00     0.075 A 
HETATM   32  O   UNL     1     -40.141  52.504 -51.953  1.00  0.00    -0.325 OA
HETATM   33  C   UNL     1     -39.394  51.398 -52.207  1.00  0.00     0.142 A 
HETATM   34  C   UNL     1     -39.410  51.100 -53.549  1.00  0.00     0.027 A 
HETATM   35  C   UNL     1     -40.223  52.084 -54.160  1.00  0.00     0.037 A 
ENDBRANCH   6  31
TORSDOF 6
ENDMDL
MODEL 6
REMARK VINA RESULT:      -7.5      6.206     11.160
REMARK  6 active torsions:
REMARK  status: ('A' for Active; 'I' for Inactive)
REMARK    1  A    between atoms: C_2  and  C_3 
REMARK       I    between atoms: C_3  and  N_4 
REMARK    2  A    between atoms: N_4  and  C_5 
REMARK    3  A    between atoms: C_8  and  N_9 
REMARK       I    between atoms: N_9  and  C_10 
REMARK    4  A    between atoms: C_10  and  C_11 
REMARK    5  A    between atoms: C_16  and  C_17 
REMARK    6  A    between atoms: C_23  and  C_24 
ROOT
HETATM    1  C   UNL     1     -42.783  57.756 -57.208  1.00  0.00     0.148 C 
HETATM    2  N   UNL     1     -42.583  59.085 -57.390  1.00  0.00    -0.165 NA
HETATM    3  N   UNL     1     -43.128  59.310 -58.596  1.00  0.00    -0.240 N 
HETATM    4  C   UNL     1     -43.827  58.252 -59.098  1.00  0.00     0.123 C 
HETATM    5  N   UNL     1     -44.588  58.389 -60.201  1.00  0.00    -0.364 N 
HETATM    6  C   UNL     1     -44.976  59.700 -60.743  1.00  0.00     0.143 C 
HETATM    7  C   UNL     1     -44.488  60.865 -59.846  1.00  0.00     0.068 C 
HETATM    8  C   UNL     1     -43.108  60.609 -59.234  1.00  0.00     0.221 C 
HETATM    9  C   UNL     1     -43.542  57.196 -58.274  1.00  0.00     0.089 C 
HETATM   10  H   UNL     1     -45.094  57.597 -60.596  1.00  0.00     0.162 HD
ENDROOT
BRANCH   1  11
HETATM   11  C   UNL     1     -42.293  57.058 -56.006  1.00  0.00     0.276 C 
HETATM   12  N   UNL     1     -42.082  55.716 -56.257  1.00  0.00    -0.322 N 
HETATM   13  H   UNL     1     -42.252  55.458 -57.225  1.00  0.00     0.169 HD
HETATM   14  O   UNL     1     -42.073  57.654 -54.958  1.00  0.00    -0.266 OA
BRANCH  12  15
HETATM   15  C   UNL     1     -41.650  54.719 -55.371  1.00  0.00     0.035 A 
HETATM   16  C   UNL     1     -42.434  54.197 -54.347  1.00  0.00     0.032 A 
HETATM   17  C   UNL     1     -41.948  53.162 -53.534  1.00  0.00     0.032 A 
HETATM   18  C   UNL     1     -40.664  52.653 -53.723  1.00  0.00     0.034 A 
HETATM   19  C   UNL     1     -39.866  53.201 -54.732  1.00  0.00     0.032 A 
HETATM   20  C   UNL     1     -40.360  54.213 -55.561  1.00  0.00     0.032 A 
BRANCH  18  21
HETATM   21  N   UNL     1     -40.104  51.607 -52.961  1.00  0.00    -0.327 N 
HETATM   22  C   UNL     1     -39.974  50.280 -53.325  1.00  0.00     0.221 C 
HETATM   23  O   UNL     1     -40.348  49.771 -54.377  1.00  0.00    -0.273 OA
HETATM   24  H   UNL     1     -39.709  51.879 -52.071  1.00  0.00     0.169 HD
BRANCH  22  25
HETATM   25  C   UNL     1     -39.322  49.423 -52.250  1.00  0.00     0.098 C 
HETATM   26  C   UNL     1     -39.719  49.812 -50.837  1.00  0.00     0.014 C 
ENDBRANCH  22  25
ENDBRANCH  18  21
ENDBRANCH  12  15
ENDBRANCH   1  11
BRANCH   8  27
HETATM   27  C   UNL     1     -41.990  60.676 -60.250  1.00  0.00     0.409 C 
HETATM   28  F   UNL     1     -40.905  61.324 -59.772  1.00  0.00    -0.169 F 
HETATM   29  F   UNL     1     -41.587  59.469 -60.696  1.00  0.00    -0.169 F 
HETATM   30  F   UNL     1     -42.407  61.373 -61.340  1.00  0.00    -0.169 F 
ENDBRANCH   8  27
BRANCH   6  31
HETATM   31  C   UNL     1     -46.459  59.830 -60.923  1.00  0.00     0.075 A 
HETATM   32  O   UNL     1     -46.906  60.119 -62.179  1.00  0.00    -0.325 OA
HETATM   33  C   UNL     1     -48.259  60.224 -62.102  1.00  0.00     0.142 A 
HETATM   34  C   UNL     1     -48.688  60.011 -60.813  1.00  0.00     0.027 A 
HETATM   35  C   UNL     1     -47.526  59.755 -60.049  1.00  0.00     0.037 A 
ENDBRANCH   6  31
TORSDOF 6
ENDMDL
MODEL 7
REMARK VINA RESULT:      -7.4      2.515      3.063
REMARK  6 active torsions:
REMARK  status: ('A' for Active; 'I' for Inactive)
REMARK    1  A    between atoms: C_2  and  C_3 
REMARK       I    between atoms: C_3  and  N_4 
REMARK    2  A    between atoms: N_4  and  C_5 
REMARK    3  A    between atoms: C_8  and  N_9 
REMARK       I    between atoms: N_9  and  C_10 
REMARK    4  A    between atoms: C_10  and  C_11 
REMARK    5  A    between atoms: C_16  and  C_17 
REMARK    6  A    between atoms: C_23  and  C_24 
ROOT
HETATM    1  C   UNL     1     -42.389  58.737 -53.413  1.00  0.00     0.148 C 
HETATM    2  N   UNL     1     -43.326  57.969 -54.020  1.00  0.00    -0.165 NA
HETATM    3  N   UNL     1     -42.606  56.953 -54.521  1.00  0.00    -0.240 N 
HETATM    4  C   UNL     1     -41.307  56.931 -54.105  1.00  0.00     0.123 C 
HETATM    5  N   UNL     1     -40.517  55.871 -54.364  1.00  0.00    -0.364 N 
HETATM    6  C   UNL     1     -41.047  54.573 -54.807  1.00  0.00     0.143 C 
HETATM    7  C   UNL     1     -42.595  54.559 -54.838  1.00  0.00     0.068 C 
HETATM    8  C   UNL     1     -43.194  55.888 -55.306  1.00  0.00     0.221 C 
HETATM    9  C   UNL     1     -41.104  58.125 -53.466  1.00  0.00     0.089 C 
HETATM   10  H   UNL     1     -39.540  55.858 -54.077  1.00  0.00     0.162 HD
ENDROOT
BRANCH   1  11
HETATM   11  C   UNL     1     -42.738  60.008 -52.753  1.00  0.00     0.276 C 
HETATM   12  N   UNL     1     -43.389  59.788 -51.555  1.00  0.00    -0.322 N 
HETATM   13  H   UNL     1     -43.468  58.803 -51.317  1.00  0.00     0.169 HD
HETATM   14  O   UNL     1     -42.422  61.092 -53.231  1.00  0.00    -0.266 OA
BRANCH  12  15
HETATM   15  C   UNL     1     -43.903  60.731 -50.654  1.00  0.00     0.035 A 
HETATM   16  C   UNL     1     -43.226  61.884 -50.265  1.00  0.00     0.032 A 
HETATM   17  C   UNL     1     -43.830  62.807 -49.399  1.00  0.00     0.032 A 
HETATM   18  C   UNL     1     -45.108  62.576 -48.894  1.00  0.00     0.034 A 
HETATM   19  C   UNL     1     -45.774  61.402 -49.260  1.00  0.00     0.032 A 
HETATM   20  C   UNL     1     -45.184  60.495 -50.146  1.00  0.00     0.032 A 
BRANCH  18  21
HETATM   21  N   UNL     1     -45.792  63.457 -48.030  1.00  0.00    -0.327 N 
HETATM   22  C   UNL     1     -45.739  63.486 -46.648  1.00  0.00     0.221 C 
HETATM   23  O   UNL     1     -45.101  62.727 -45.926  1.00  0.00    -0.273 OA
HETATM   24  H   UNL     1     -46.336  64.178 -48.482  1.00  0.00     0.169 HD
BRANCH  22  25
HETATM   25  C   UNL     1     -46.611  64.572 -46.037  1.00  0.00     0.098 C 
HETATM   26  C   UNL     1     -47.187  64.201 -44.681  1.00  0.00     0.014 C 
ENDBRANCH  22  25
ENDBRANCH  18  21
ENDBRANCH  12  15
ENDBRANCH   1  11
BRANCH   8  27
HETATM   27  C   UNL     1     -42.981  56.146 -56.780  1.00  0.00     0.409 C 
HETATM   28  F   UNL     1     -42.650  55.022 -57.452  1.00  0.00    -0.169 F 
HETATM   29  F   UNL     1     -44.047  56.697 -57.396  1.00  0.00    -0.169 F 
HETATM   30  F   UNL     1     -41.948  57.013 -56.945  1.00  0.00    -0.169 F 
ENDBRANCH   8  27
BRANCH   6  31
HETATM   31  C   UNL     1     -40.581  53.439 -53.943  1.00  0.00     0.075 A 
HETATM   32  O   UNL     1     -40.454  53.692 -52.608  1.00  0.00    -0.325 OA
HETATM   33  C   UNL     1     -39.991  52.551 -52.033  1.00  0.00     0.142 A 
HETATM   34  C   UNL     1     -39.813  51.569 -52.980  1.00  0.00     0.027 A 
HETATM   35  C   UNL     1     -40.194  52.141 -54.216  1.00  0.00     0.037 A 
ENDBRANCH   6  31
TORSDOF 6
ENDMDL
MODEL 8
REMARK VINA RESULT:      -7.2      6.276     11.255
REMARK  6 active torsions:
REMARK  status: ('A' for Active; 'I' for Inactive)
REMARK    1  A    between atoms: C_2  and  C_3 
REMARK       I    between atoms: C_3  and  N_4 
REMARK    2  A    between atoms: N_4  and  C_5 
REMARK    3  A    between atoms: C_8  and  N_9 
REMARK       I    between atoms: N_9  and  C_10 
REMARK    4  A    between atoms: C_10  and  C_11 
REMARK    5  A    between atoms: C_16  and  C_17 
REMARK    6  A    between atoms: C_23  and  C_24 
ROOT
HETATM    1  C   UNL     1     -44.683  57.721 -57.187  1.00  0.00     0.148 C 
HETATM    2  N   UNL     1     -44.556  57.531 -58.523  1.00  0.00    -0.165 NA
HETATM    3  N   UNL     1     -45.720  57.995 -59.005  1.00  0.00    -0.240 N 
HETATM    4  C   UNL     1     -46.489  58.641 -58.082  1.00  0.00     0.123 C 
HETATM    5  N   UNL     1     -47.587  59.326 -58.456  1.00  0.00    -0.364 N 
HETATM    6  C   UNL     1     -47.857  59.696 -59.853  1.00  0.00     0.143 C 
HETATM    7  C   UNL     1     -46.696  59.291 -60.794  1.00  0.00     0.068 C 
HETATM    8  C   UNL     1     -46.057  57.953 -60.412  1.00  0.00     0.221 C 
HETATM    9  C   UNL     1     -45.896  58.396 -56.872  1.00  0.00     0.089 C 
HETATM   10  H   UNL     1     -48.179  59.790 -57.769  1.00  0.00     0.162 HD
ENDROOT
BRANCH   1  11
HETATM   11  C   UNL     1     -43.629  57.305 -56.243  1.00  0.00     0.276 C 
HETATM   12  N   UNL     1     -43.563  55.929 -56.142  1.00  0.00    -0.322 N 
HETATM   13  H   UNL     1     -44.209  55.450 -56.764  1.00  0.00     0.169 HD
HETATM   14  O   UNL     1     -42.904  58.120 -55.685  1.00  0.00    -0.266 OA
BRANCH  12  15
HETATM   15  C   UNL     1     -42.720  55.152 -55.335  1.00  0.00     0.035 A 
HETATM   16  C   UNL     1     -41.402  54.844 -55.660  1.00  0.00     0.032 A 
HETATM   17  C   UNL     1     -40.604  54.104 -54.774  1.00  0.00     0.032 A 
HETATM   18  C   UNL     1     -41.123  53.644 -53.565  1.00  0.00     0.034 A 
HETATM   19  C   UNL     1     -42.457  53.927 -53.256  1.00  0.00     0.032 A 
HETATM   20  C   UNL     1     -43.244  54.690 -54.125  1.00  0.00     0.032 A 
BRANCH  18  21
HETATM   21  N   UNL     1     -40.388  52.906 -52.615  1.00  0.00    -0.327 N 
HETATM   22  C   UNL     1     -39.926  51.609 -52.734  1.00  0.00     0.221 C 
HETATM   23  O   UNL     1     -40.098  50.858 -53.689  1.00  0.00    -0.273 OA
HETATM   24  H   UNL     1     -40.129  53.409 -51.777  1.00  0.00     0.169 HD
BRANCH  22  25
HETATM   25  C   UNL     1     -39.167  51.126 -51.507  1.00  0.00     0.098 C 
HETATM   26  C   UNL     1     -39.608  49.757 -51.018  1.00  0.00     0.014 C 
ENDBRANCH  22  25
ENDBRANCH  18  21
ENDBRANCH  12  15
ENDBRANCH   1  11
BRANCH   8  27
HETATM   27  C   UNL     1     -46.952  56.768 -60.701  1.00  0.00     0.409 C 
HETATM   28  F   UNL     1     -47.428  56.201 -59.571  1.00  0.00    -0.169 F 
HETATM   29  F   UNL     1     -48.004  57.061 -61.491  1.00  0.00    -0.169 F 
HETATM   30  F   UNL     1     -46.239  55.806 -61.345  1.00  0.00    -0.169 F 
ENDBRANCH   8  27
BRANCH   6  31
HETATM   31  C   UNL     1     -48.110  61.165 -60.017  1.00  0.00     0.075 A 
HETATM   32  O   UNL     1     -47.682  61.982 -59.011  1.00  0.00    -0.325 OA
HETATM   33  C   UNL     1     -48.042  63.248 -59.351  1.00  0.00     0.142 A 
HETATM   34  C   UNL     1     -48.701  63.256 -60.558  1.00  0.00     0.027 A 
HETATM   35  C   UNL     1     -48.745  61.910 -60.992  1.00  0.00     0.037 A 
ENDBRANCH   6  31
TORSDOF 6
ENDMDL
MODEL 9
REMARK VINA RESULT:      -7.1      6.133     10.970
REMARK  6 active torsions:
REMARK  status: ('A' for Active; 'I' for Inactive)
REMARK    1  A    between atoms: C_2  and  C_3 
REMARK       I    between atoms: C_3  and  N_4 
REMARK    2  A    between atoms: N_4  and  C_5 
REMARK    3  A    between atoms: C_8  and  N_9 
REMARK       I    between atoms: N_9  and  C_10 
REMARK    4  A    between atoms: C_10  and  C_11 
REMARK    5  A    between atoms: C_16  and  C_17 
REMARK    6  A    between atoms: C_23  and  C_24 
ROOT
HETATM    1  C   UNL     1     -43.532  57.758 -56.580  1.00  0.00     0.148 C 
HETATM    2  N   UNL     1     -43.955  57.116 -57.696  1.00  0.00    -0.165 NA
HETATM    3  N   UNL     1     -44.594  58.082 -58.376  1.00  0.00    -0.240 N 
HETATM    4  C   UNL     1     -44.433  59.332 -57.854  1.00  0.00     0.123 C 
HETATM    5  N   UNL     1     -44.848  60.420 -58.530  1.00  0.00    -0.364 N 
HETATM    6  C   UNL     1     -45.192  60.387 -59.959  1.00  0.00     0.143 C 
HETATM    7  C   UNL     1     -44.928  58.996 -60.586  1.00  0.00     0.068 C 
HETATM    8  C   UNL     1     -45.260  57.840 -59.638  1.00  0.00     0.221 C 
HETATM    9  C   UNL     1     -43.836  59.149 -56.635  1.00  0.00     0.089 C 
HETATM   10  H   UNL     1     -44.754  61.355 -58.135  1.00  0.00     0.162 HD
ENDROOT
BRANCH   1  11
HETATM   11  C   UNL     1     -42.807  57.052 -55.508  1.00  0.00     0.276 C 
HETATM   12  N   UNL     1     -42.466  55.771 -55.894  1.00  0.00    -0.322 N 
HETATM   13  H   UNL     1     -42.728  55.558 -56.853  1.00  0.00     0.169 HD
HETATM   14  O   UNL     1     -42.527  57.600 -54.448  1.00  0.00    -0.266 OA
BRANCH  12  15
HETATM   15  C   UNL     1     -41.801  54.783 -55.155  1.00  0.00     0.035 A 
HETATM   16  C   UNL     1     -40.525  54.315 -55.454  1.00  0.00     0.032 A 
HETATM   17  C   UNL     1     -39.905  53.361 -54.633  1.00  0.00     0.032 A 
HETATM   18  C   UNL     1     -40.564  52.847 -53.518  1.00  0.00     0.034 A 
HETATM   19  C   UNL     1     -41.859  53.294 -53.238  1.00  0.00     0.032 A 
HETATM   20  C   UNL     1     -42.466  54.267 -54.038  1.00  0.00     0.032 A 
BRANCH  18  21
HETATM   21  N   UNL     1     -40.009  51.897 -52.636  1.00  0.00    -0.327 N 
HETATM   22  C   UNL     1     -39.748  50.564 -52.894  1.00  0.00     0.221 C 
HETATM   23  O   UNL     1     -39.978  49.964 -53.939  1.00  0.00    -0.273 OA
HETATM   24  H   UNL     1     -39.725  52.253 -51.734  1.00  0.00     0.169 HD
BRANCH  22  25
HETATM   25  C   UNL     1     -39.147  49.828 -51.705  1.00  0.00     0.098 C 
HETATM   26  C   UNL     1     -39.992  49.913 -50.446  1.00  0.00     0.014 C 
ENDBRANCH  22  25
ENDBRANCH  18  21
ENDBRANCH  12  15
ENDBRANCH   1  11
BRANCH   8  27
HETATM   27  C   UNL     1     -46.746  57.666 -59.420  1.00  0.00     0.409 C 
HETATM   28  F   UNL     1     -47.114  56.366 -59.428  1.00  0.00    -0.169 F 
HETATM   29  F   UNL     1     -47.196  58.215 -58.273  1.00  0.00    -0.169 F 
HETATM   30  F   UNL     1     -47.428  58.267 -60.430  1.00  0.00    -0.169 F 
ENDBRANCH   8  27
BRANCH   6  31
HETATM   31  C   UNL     1     -44.443  61.415 -60.753  1.00  0.00     0.075 A 
HETATM   32  O   UNL     1     -43.131  61.608 -60.432  1.00  0.00    -0.325 OA
HETATM   33  C   UNL     1     -42.668  62.595 -61.243  1.00  0.00     0.142 A 
HETATM   34  C   UNL     1     -43.664  63.044 -62.077  1.00  0.00     0.027 A 
HETATM   35  C   UNL     1     -44.814  62.282 -61.762  1.00  0.00     0.037 A 
ENDBRANCH   6  31
TORSDOF 6
ENDMDL
MODEL 10
REMARK VINA RESULT:      -7.0      5.440      7.354
REMARK  6 active torsions:
REMARK  status: ('A' for Active; 'I' for Inactive)
REMARK    1  A    between atoms: C_2  and  C_3 
REMARK       I    between atoms: C_3  and  N_4 
REMARK    2  A    between atoms: N_4  and  C_5 
REMARK    3  A    between atoms: C_8  and  N_9 
REMARK       I    between atoms: N_9  and  C_10 
REMARK    4  A    between atoms: C_10  and  C_11 
REMARK    5  A    between atoms: C_16  and  C_17 
REMARK    6  A    between atoms: C_23  and  C_24 
ROOT
HETATM    1  C   UNL     1     -41.942  56.756 -54.094  1.00  0.00     0.148 C 
HETATM    2  N   UNL     1     -41.124  57.017 -53.046  1.00  0.00    -0.165 NA
HETATM    3  N   UNL     1     -41.267  55.928 -52.273  1.00  0.00    -0.240 N 
HETATM    4  C   UNL     1     -41.970  54.917 -52.859  1.00  0.00     0.123 C 
HETATM    5  N   UNL     1     -42.028  53.698 -52.289  1.00  0.00    -0.364 N 
HETATM    6  C   UNL     1     -41.118  53.276 -51.213  1.00  0.00     0.143 C 
HETATM    7  C   UNL     1     -40.052  54.355 -50.902  1.00  0.00     0.068 C 
HETATM    8  C   UNL     1     -40.600  55.782 -50.997  1.00  0.00     0.221 C 
HETATM    9  C   UNL     1     -42.508  55.453 -53.998  1.00  0.00     0.089 C 
HETATM   10  H   UNL     1     -42.572  52.944 -52.708  1.00  0.00     0.162 HD
ENDROOT
BRANCH   1  11
HETATM   11  C   UNL     1     -42.131  57.725 -55.189  1.00  0.00     0.276 C 
HETATM   12  N   UNL     1     -42.710  57.130 -56.292  1.00  0.00    -0.322 N 
HETATM   13  H   UNL     1     -42.946  56.152 -56.142  1.00  0.00     0.169 HD
HETATM   14  O   UNL     1     -41.838  58.908 -55.060  1.00  0.00    -0.266 OA
BRANCH  12  15
HETATM   15  C   UNL     1     -43.022  57.704 -57.532  1.00  0.00     0.035 A 
HETATM   16  C   UNL     1     -42.236  57.566 -58.672  1.00  0.00     0.032 A 
HETATM   17  C   UNL     1     -42.643  58.127 -59.891  1.00  0.00     0.032 A 
HETATM   18  C   UNL     1     -43.830  58.853 -59.978  1.00  0.00     0.034 A 
HETATM   19  C   UNL     1     -44.602  59.018 -58.824  1.00  0.00     0.032 A 
HETATM   20  C   UNL     1     -44.212  58.433 -57.615  1.00  0.00     0.032 A 
BRANCH  18  21
HETATM   21  N   UNL     1     -44.318  59.438 -61.164  1.00  0.00    -0.327 N 
HETATM   22  C   UNL     1     -43.895  60.614 -61.756  1.00  0.00     0.221 C 
HETATM   23  O   UNL     1     -43.028  61.373 -61.334  1.00  0.00    -0.273 OA
HETATM   24  H   UNL     1     -45.019  58.903 -61.659  1.00  0.00     0.169 HD
BRANCH  22  25
HETATM   25  C   UNL     1     -44.648  60.949 -63.035  1.00  0.00     0.098 C 
HETATM   26  C   UNL     1     -46.158  60.946 -62.870  1.00  0.00     0.014 C 
ENDBRANCH  22  25
ENDBRANCH  18  21
ENDBRANCH  12  15
ENDBRANCH   1  11
BRANCH   8  27
HETATM   27  C   UNL     1     -41.547  56.126 -49.869  1.00  0.00     0.409 C 
HETATM   28  F   UNL     1     -42.841  55.976 -50.226  1.00  0.00    -0.169 F 
HETATM   29  F   UNL     1     -41.341  55.408 -48.747  1.00  0.00    -0.169 F 
HETATM   30  F   UNL     1     -41.390  57.432 -49.527  1.00  0.00    -0.169 F 
ENDBRANCH   8  27
BRANCH   6  31
HETATM   31  C   UNL     1     -40.414  51.991 -51.530  1.00  0.00     0.075 A 
HETATM   32  O   UNL     1     -40.116  51.756 -52.840  1.00  0.00    -0.325 OA
HETATM   33  C   UNL     1     -39.521  50.536 -52.897  1.00  0.00     0.142 A 
HETATM   34  C   UNL     1     -39.436  49.980 -51.642  1.00  0.00     0.027 A 
HETATM   35  C   UNL     1     -40.013  50.919 -50.756  1.00  0.00     0.037 A 
ENDBRANCH   6  31
TORSDOF 6
ENDMDL
