MODEL 1
REMARK VINA RESULT:      -8.6      0.000      0.000
REMARK  2 active torsions:
REMARK  status: ('A' for Active; 'I' for Inactive)
REMARK    1  A    between atoms: C_7  and  C_8 
REMARK    2  A    between atoms: C_8  and  O_9 
ROOT
HETATM    1  C   UNL     1     -42.746  55.508 -51.525  1.00  0.00     0.199 A 
HETATM    2  C   UNL     1     -42.181  55.168 -50.106  1.00  0.00     0.266 A 
HETATM    3  O   UNL     1     -42.442  54.192 -49.417  1.00  0.00    -0.269 OA
HETATM    4  N   UNL     1     -41.355  56.223 -49.721  1.00  0.00    -0.323 N 
HETATM    5  C   UNL     1     -41.311  57.208 -50.698  1.00  0.00     0.045 A 
HETATM    6  C   UNL     1     -42.099  56.844 -51.795  1.00  0.00     0.019 A 
HETATM    7  C   UNL     1     -40.622  58.402 -50.638  1.00  0.00     0.032 A 
HETATM    8  C   UNL     1     -40.734  59.264 -51.732  1.00  0.00     0.026 A 
HETATM    9  C   UNL     1     -41.525  58.914 -52.840  1.00  0.00     0.034 A 
HETATM   10 CL   UNL     1     -41.647  60.003 -54.168  1.00  0.00    -0.084 Cl
HETATM   11  C   UNL     1     -42.219  57.703 -52.880  1.00  0.00     0.037 A 
HETATM   12  H   UNL     1     -40.895  56.259 -48.824  1.00  0.00     0.169 HD
ENDROOT
BRANCH   1  13
HETATM   13  C   UNL     1     -42.319  54.564 -52.626  1.00  0.00     0.025 A 
HETATM   14  C   UNL     1     -42.875  54.488 -53.906  1.00  0.00     0.016 A 
HETATM   15  C   UNL     1     -43.979  55.254 -54.548  1.00  0.00     0.069 C 
HETATM   16  N   UNL     1     -42.220  53.505 -54.600  1.00  0.00    -0.359 N 
HETATM   17  H   UNL     1     -42.420  53.235 -55.553  1.00  0.00     0.166 HD
HETATM   18  C   UNL     1     -41.243  52.933 -53.829  1.00  0.00     0.043 A 
HETATM   19  C   UNL     1     -41.268  53.570 -52.587  1.00  0.00     0.003 A 
HETATM   20  C   UNL     1     -40.350  51.902 -54.148  1.00  0.00     0.030 A 
HETATM   21  C   UNL     1     -40.331  53.142 -51.619  1.00  0.00     0.014 A 
HETATM   22  C   UNL     1     -39.433  52.109 -51.918  1.00  0.00     0.001 A 
HETATM   23  C   UNL     1     -39.444  51.498 -53.166  1.00  0.00     0.002 A 
ENDBRANCH   1  13
BRANCH   1  24
HETATM   24  O   UNL     1     -44.159  55.667 -51.437  1.00  0.00    -0.371 OA
HETATM   25  H   UNL     1     -44.426  55.046 -50.736  1.00  0.00     0.212 HD
ENDBRANCH   1  24
TORSDOF 2
ENDMDL
MODEL 2
REMARK VINA RESULT:      -8.4      2.510      5.659
REMARK  2 active torsions:
REMARK  status: ('A' for Active; 'I' for Inactive)
REMARK    1  A    between atoms: C_7  and  C_8 
REMARK    2  A    between atoms: C_8  and  O_9 
ROOT
HETATM    1  C   UNL     1     -42.846  55.181 -53.526  1.00  0.00     0.199 A 
HETATM    2  C   UNL     1     -42.787  55.956 -54.883  1.00  0.00     0.266 A 
HETATM    3  O   UNL     1     -43.517  56.864 -55.253  1.00  0.00    -0.269 OA
HETATM    4  N   UNL     1     -41.773  55.380 -55.649  1.00  0.00    -0.323 N 
HETATM    5  C   UNL     1     -41.168  54.331 -54.974  1.00  0.00     0.045 A 
HETATM    6  C   UNL     1     -41.743  54.166 -53.709  1.00  0.00     0.019 A 
HETATM    7  C   UNL     1     -40.155  53.520 -55.442  1.00  0.00     0.032 A 
HETATM    8  C   UNL     1     -39.704  52.501 -54.599  1.00  0.00     0.026 A 
HETATM    9  C   UNL     1     -40.275  52.321 -53.327  1.00  0.00     0.034 A 
HETATM   10 CL   UNL     1     -39.702  51.051 -52.316  1.00  0.00    -0.084 Cl
HETATM   11  C   UNL     1     -41.304  53.149 -52.872  1.00  0.00     0.037 A 
HETATM   12  H   UNL     1     -41.559  55.682 -56.588  1.00  0.00     0.169 HD
ENDROOT
BRANCH   1  13
HETATM   13  C   UNL     1     -42.508  56.005 -52.304  1.00  0.00     0.025 A 
HETATM   14  C   UNL     1     -43.018  55.815 -51.017  1.00  0.00     0.016 A 
HETATM   15  C   UNL     1     -43.980  54.816 -50.476  1.00  0.00     0.069 C 
HETATM   16  N   UNL     1     -42.475  56.768 -50.196  1.00  0.00    -0.359 N 
HETATM   17  H   UNL     1     -42.672  56.866 -49.209  1.00  0.00     0.166 HD
HETATM   18  C   UNL     1     -41.617  57.579 -50.892  1.00  0.00     0.043 A 
HETATM   19  C   UNL     1     -41.605  57.132 -52.214  1.00  0.00     0.003 A 
HETATM   20  C   UNL     1     -40.861  58.668 -50.439  1.00  0.00     0.030 A 
HETATM   21  C   UNL     1     -40.774  57.824 -53.125  1.00  0.00     0.014 A 
HETATM   22  C   UNL     1     -40.014  58.918 -52.692  1.00  0.00     0.001 A 
HETATM   23  C   UNL     1     -40.058  59.334 -51.366  1.00  0.00     0.002 A 
ENDBRANCH   1  13
BRANCH   1  24
HETATM   24  O   UNL     1     -44.101  54.514 -53.425  1.00  0.00    -0.371 OA
HETATM   25  H   UNL     1     -44.295  54.515 -52.470  1.00  0.00     0.212 HD
ENDBRANCH   1  24
TORSDOF 2
ENDMDL
MODEL 3
REMARK VINA RESULT:      -8.2      2.342      3.190
REMARK  2 active torsions:
REMARK  status: ('A' for Active; 'I' for Inactive)
REMARK    1  A    between atoms: C_7  and  C_8 
REMARK    2  A    between atoms: C_8  and  O_9 
ROOT
HETATM    1  C   UNL     1     -42.648  57.318 -53.391  1.00  0.00     0.199 A 
HETATM    2  C   UNL     1     -44.165  57.699 -53.344  1.00  0.00     0.266 A 
HETATM    3  O   UNL     1     -45.065  57.255 -54.042  1.00  0.00    -0.269 OA
HETATM    4  N   UNL     1     -44.314  58.704 -52.389  1.00  0.00    -0.323 N 
HETATM    5  C   UNL     1     -43.096  59.032 -51.811  1.00  0.00     0.045 A 
HETATM    6  C   UNL     1     -42.072  58.243 -52.346  1.00  0.00     0.019 A 
HETATM    7  C   UNL     1     -42.868  60.002 -50.857  1.00  0.00     0.032 A 
HETATM    8  C   UNL     1     -41.551  60.183 -50.425  1.00  0.00     0.026 A 
HETATM    9  C   UNL     1     -40.511  59.399 -50.957  1.00  0.00     0.034 A 
HETATM   10 CL   UNL     1     -38.899  59.652 -50.409  1.00  0.00    -0.084 Cl
HETATM   11  C   UNL     1     -40.761  58.425 -51.926  1.00  0.00     0.037 A 
HETATM   12  H   UNL     1     -45.200  59.147 -52.195  1.00  0.00     0.169 HD
ENDROOT
BRANCH   1  13
HETATM   13  C   UNL     1     -42.332  55.901 -52.968  1.00  0.00     0.025 A 
HETATM   14  C   UNL     1     -42.811  55.259 -51.822  1.00  0.00     0.016 A 
HETATM   15  C   UNL     1     -43.717  55.725 -50.737  1.00  0.00     0.069 C 
HETATM   16  N   UNL     1     -42.290  53.992 -51.792  1.00  0.00    -0.359 N 
HETATM   17  H   UNL     1     -42.468  53.307 -51.071  1.00  0.00     0.166 HD
HETATM   18  C   UNL     1     -41.489  53.769 -52.882  1.00  0.00     0.043 A 
HETATM   19  C   UNL     1     -41.493  54.937 -53.646  1.00  0.00     0.003 A 
HETATM   20  C   UNL     1     -40.769  52.620 -53.235  1.00  0.00     0.030 A 
HETATM   21  C   UNL     1     -40.729  54.937 -54.836  1.00  0.00     0.014 A 
HETATM   22  C   UNL     1     -40.000  53.799 -55.203  1.00  0.00     0.001 A 
HETATM   23  C   UNL     1     -40.020  52.656 -54.411  1.00  0.00     0.002 A 
ENDBRANCH   1  13
BRANCH   1  24
HETATM   24  O   UNL     1     -42.124  57.653 -54.672  1.00  0.00    -0.371 OA
HETATM   25  H   UNL     1     -41.854  58.584 -54.584  1.00  0.00     0.212 HD
ENDBRANCH   1  24
TORSDOF 2
ENDMDL
MODEL 4
REMARK VINA RESULT:      -7.8      2.373      3.228
REMARK  2 active torsions:
REMARK  status: ('A' for Active; 'I' for Inactive)
REMARK    1  A    between atoms: C_7  and  C_8 
REMARK    2  A    between atoms: C_8  and  O_9 
ROOT
HETATM    1  C   UNL     1     -42.522  57.344 -51.904  1.00  0.00     0.199 A 
HETATM    2  C   UNL     1     -41.178  58.092 -51.619  1.00  0.00     0.266 A 
HETATM    3  O   UNL     1     -40.448  57.964 -50.647  1.00  0.00    -0.269 OA
HETATM    4  N   UNL     1     -40.978  59.001 -52.658  1.00  0.00    -0.323 N 
HETATM    5  C   UNL     1     -42.014  58.948 -53.578  1.00  0.00     0.045 A 
HETATM    6  C   UNL     1     -42.954  57.982 -53.202  1.00  0.00     0.019 A 
HETATM    7  C   UNL     1     -42.158  59.726 -54.708  1.00  0.00     0.032 A 
HETATM    8  C   UNL     1     -43.298  59.521 -55.490  1.00  0.00     0.026 A 
HETATM    9  C   UNL     1     -44.252  58.556 -55.122  1.00  0.00     0.034 A 
HETATM   10 CL   UNL     1     -45.649  58.334 -56.104  1.00  0.00    -0.084 Cl
HETATM   11  C   UNL     1     -44.092  57.781 -53.972  1.00  0.00     0.037 A 
HETATM   12  H   UNL     1     -40.192  59.633 -52.687  1.00  0.00     0.169 HD
ENDROOT
BRANCH   1  13
HETATM   13  C   UNL     1     -42.386  55.858 -52.150  1.00  0.00     0.025 A 
HETATM   14  C   UNL     1     -43.037  54.844 -51.441  1.00  0.00     0.016 A 
HETATM   15  C   UNL     1     -44.000  54.896 -50.308  1.00  0.00     0.069 C 
HETATM   16  N   UNL     1     -42.644  53.638 -51.961  1.00  0.00    -0.359 N 
HETATM   17  H   UNL     1     -42.958  52.735 -51.635  1.00  0.00     0.166 HD
HETATM   18  C   UNL     1     -41.762  53.818 -52.994  1.00  0.00     0.043 A 
HETATM   19  C   UNL     1     -41.578  55.192 -53.149  1.00  0.00     0.003 A 
HETATM   20  C   UNL     1     -41.122  52.860 -53.791  1.00  0.00     0.030 A 
HETATM   21  C   UNL     1     -40.701  55.619 -54.173  1.00  0.00     0.014 A 
HETATM   22  C   UNL     1     -40.049  54.675 -54.978  1.00  0.00     0.001 A 
HETATM   23  C   UNL     1     -40.257  53.314 -54.788  1.00  0.00     0.002 A 
ENDBRANCH   1  13
BRANCH   1  24
HETATM   24  O   UNL     1     -43.458  57.660 -50.877  1.00  0.00    -0.371 OA
HETATM   25  H   UNL     1     -43.329  58.613 -50.723  1.00  0.00     0.212 HD
ENDBRANCH   1  24
TORSDOF 2
ENDMDL
MODEL 5
REMARK VINA RESULT:      -7.7     15.588     17.070
REMARK  2 active torsions:
REMARK  status: ('A' for Active; 'I' for Inactive)
REMARK    1  A    between atoms: C_7  and  C_8 
REMARK    2  A    between atoms: C_8  and  O_9 
ROOT
HETATM    1  C   UNL     1     -35.071  41.519 -54.972  1.00  0.00     0.199 A 
HETATM    2  C   UNL     1     -35.553  41.639 -53.489  1.00  0.00     0.266 A 
HETATM    3  O   UNL     1     -36.552  42.210 -53.076  1.00  0.00    -0.269 OA
HETATM    4  N   UNL     1     -34.593  41.023 -52.686  1.00  0.00    -0.323 N 
HETATM    5  C   UNL     1     -33.548  40.522 -53.448  1.00  0.00     0.045 A 
HETATM    6  C   UNL     1     -33.772  40.768 -54.807  1.00  0.00     0.019 A 
HETATM    7  C   UNL     1     -32.417  39.882 -52.983  1.00  0.00     0.032 A 
HETATM    8  C   UNL     1     -31.473  39.475 -53.930  1.00  0.00     0.026 A 
HETATM    9  C   UNL     1     -31.683  39.719 -55.299  1.00  0.00     0.034 A 
HETATM   10 CL   UNL     1     -30.497  39.211 -56.438  1.00  0.00    -0.084 Cl
HETATM   11  C   UNL     1     -32.832  40.372 -55.750  1.00  0.00     0.037 A 
HETATM   12  H   UNL     1     -34.657  40.998 -51.679  1.00  0.00     0.169 HD
ENDROOT
BRANCH   1  13
HETATM   13  C   UNL     1     -35.964  40.691 -55.869  1.00  0.00     0.025 A 
HETATM   14  C   UNL     1     -36.425  39.399 -55.604  1.00  0.00     0.016 A 
HETATM   15  C   UNL     1     -36.206  38.493 -54.443  1.00  0.00     0.069 C 
HETATM   16  N   UNL     1     -37.198  38.994 -56.661  1.00  0.00    -0.359 N 
HETATM   17  H   UNL     1     -37.657  38.098 -56.736  1.00  0.00     0.166 HD
HETATM   18  C   UNL     1     -37.272  39.977 -57.613  1.00  0.00     0.043 A 
HETATM   19  C   UNL     1     -36.518  41.057 -57.155  1.00  0.00     0.003 A 
HETATM   20  C   UNL     1     -37.949  39.975 -58.839  1.00  0.00     0.030 A 
HETATM   21  C   UNL     1     -36.454  42.203 -57.982  1.00  0.00     0.014 A 
HETATM   22  C   UNL     1     -37.122  42.218 -59.213  1.00  0.00     0.001 A 
HETATM   23  C   UNL     1     -37.859  41.118 -59.635  1.00  0.00     0.002 A 
ENDBRANCH   1  13
BRANCH   1  24
HETATM   24  O   UNL     1     -34.812  42.822 -55.484  1.00  0.00    -0.371 OA
HETATM   25  H   UNL     1     -35.434  42.914 -56.228  1.00  0.00     0.212 HD
ENDBRANCH   1  24
TORSDOF 2
ENDMDL
MODEL 6
REMARK VINA RESULT:      -7.5      3.034      5.271
REMARK  2 active torsions:
REMARK  status: ('A' for Active; 'I' for Inactive)
REMARK    1  A    between atoms: C_7  and  C_8 
REMARK    2  A    between atoms: C_8  and  O_9 
ROOT
HETATM    1  C   UNL     1     -41.431  57.062 -52.495  1.00  0.00     0.199 A 
HETATM    2  C   UNL     1     -41.271  57.496 -51.001  1.00  0.00     0.266 A 
HETATM    3  O   UNL     1     -41.350  58.627 -50.543  1.00  0.00    -0.269 OA
HETATM    4  N   UNL     1     -40.951  56.355 -50.266  1.00  0.00    -0.323 N 
HETATM    5  C   UNL     1     -40.876  55.237 -51.084  1.00  0.00     0.045 A 
HETATM    6  C   UNL     1     -41.162  55.580 -52.409  1.00  0.00     0.019 A 
HETATM    7  C   UNL     1     -40.552  53.952 -50.700  1.00  0.00     0.032 A 
HETATM    8  C   UNL     1     -40.515  52.973 -51.697  1.00  0.00     0.026 A 
HETATM    9  C   UNL     1     -40.796  53.303 -53.034  1.00  0.00     0.034 A 
HETATM   10 CL   UNL     1     -40.734  52.075 -54.239  1.00  0.00    -0.084 Cl
HETATM   11  C   UNL     1     -41.118  54.611 -53.404  1.00  0.00     0.037 A 
HETATM   12  H   UNL     1     -40.761  56.378 -49.276  1.00  0.00     0.169 HD
ENDROOT
BRANCH   1  13
HETATM   13  C   UNL     1     -42.820  57.240 -53.066  1.00  0.00     0.025 A 
HETATM   14  C   UNL     1     -44.022  57.073 -52.373  1.00  0.00     0.016 A 
HETATM   15  C   UNL     1     -44.300  56.698 -50.959  1.00  0.00     0.069 C 
HETATM   16  N   UNL     1     -45.055  57.316 -53.241  1.00  0.00    -0.359 N 
HETATM   17  H   UNL     1     -46.036  57.264 -53.006  1.00  0.00     0.166 HD
HETATM   18  C   UNL     1     -44.579  57.647 -54.482  1.00  0.00     0.043 A 
HETATM   19  C   UNL     1     -43.186  57.616 -54.415  1.00  0.00     0.003 A 
HETATM   20  C   UNL     1     -45.287  57.966 -55.648  1.00  0.00     0.030 A 
HETATM   21  C   UNL     1     -42.471  57.934 -55.593  1.00  0.00     0.014 A 
HETATM   22  C   UNL     1     -43.163  58.252 -56.770  1.00  0.00     0.001 A 
HETATM   23  C   UNL     1     -44.552  58.266 -56.796  1.00  0.00     0.002 A 
ENDBRANCH   1  13
BRANCH   1  24
HETATM   24  O   UNL     1     -40.418  57.691 -53.274  1.00  0.00    -0.371 OA
HETATM   25  H   UNL     1     -40.455  57.230 -54.131  1.00  0.00     0.212 HD
ENDBRANCH   1  24
TORSDOF 2
ENDMDL
MODEL 7
REMARK VINA RESULT:      -7.2     14.982     17.265
REMARK  2 active torsions:
REMARK  status: ('A' for Active; 'I' for Inactive)
REMARK    1  A    between atoms: C_7  and  C_8 
REMARK    2  A    between atoms: C_8  and  O_9 
ROOT
HETATM    1  C   UNL     1     -36.259  40.519 -54.009  1.00  0.00     0.199 A 
HETATM    2  C   UNL     1     -36.133  42.076 -53.924  1.00  0.00     0.266 A 
HETATM    3  O   UNL     1     -35.812  42.743 -52.951  1.00  0.00    -0.269 OA
HETATM    4  N   UNL     1     -36.519  42.595 -55.159  1.00  0.00    -0.323 N 
HETATM    5  C   UNL     1     -36.885  41.584 -56.035  1.00  0.00     0.045 A 
HETATM    6  C   UNL     1     -36.743  40.333 -55.427  1.00  0.00     0.019 A 
HETATM    7  C   UNL     1     -37.349  41.737 -57.326  1.00  0.00     0.032 A 
HETATM    8  C   UNL     1     -37.683  40.577 -58.031  1.00  0.00     0.026 A 
HETATM    9  C   UNL     1     -37.549  39.313 -57.431  1.00  0.00     0.034 A 
HETATM   10 CL   UNL     1     -37.976  37.904 -58.324  1.00  0.00    -0.084 Cl
HETATM   11  C   UNL     1     -37.082  39.179 -56.121  1.00  0.00     0.037 A 
HETATM   12  H   UNL     1     -36.558  43.585 -55.347  1.00  0.00     0.169 HD
ENDROOT
BRANCH   1  13
HETATM   13  C   UNL     1     -34.957  39.763 -53.870  1.00  0.00     0.025 A 
HETATM   14  C   UNL     1     -34.639  38.851 -52.860  1.00  0.00     0.016 A 
HETATM   15  C   UNL     1     -35.420  38.365 -51.690  1.00  0.00     0.069 C 
HETATM   16  N   UNL     1     -33.367  38.392 -53.082  1.00  0.00    -0.359 N 
HETATM   17  H   UNL     1     -32.881  37.723 -52.502  1.00  0.00     0.166 HD
HETATM   18  C   UNL     1     -32.834  38.962 -54.208  1.00  0.00     0.043 A 
HETATM   19  C   UNL     1     -33.798  39.822 -54.735  1.00  0.00     0.003 A 
HETATM   20  C   UNL     1     -31.572  38.773 -54.786  1.00  0.00     0.030 A 
HETATM   21  C   UNL     1     -33.466  40.524 -55.917  1.00  0.00     0.014 A 
HETATM   22  C   UNL     1     -32.208  40.351 -56.507  1.00  0.00     0.001 A 
HETATM   23  C   UNL     1     -31.274  39.487 -55.948  1.00  0.00     0.002 A 
ENDBRANCH   1  13
BRANCH   1  24
HETATM   24  O   UNL     1     -37.263  40.082 -53.097  1.00  0.00    -0.371 OA
HETATM   25  H   UNL     1     -37.964  40.753 -53.176  1.00  0.00     0.212 HD
ENDBRANCH   1  24
TORSDOF 2
ENDMDL
MODEL 8
REMARK VINA RESULT:      -7.2      3.639      5.084
REMARK  2 active torsions:
REMARK  status: ('A' for Active; 'I' for Inactive)
REMARK    1  A    between atoms: C_7  and  C_8 
REMARK    2  A    between atoms: C_8  and  O_9 
ROOT
HETATM    1  C   UNL     1     -41.979  59.605 -52.427  1.00  0.00     0.199 A 
HETATM    2  C   UNL     1     -41.919  60.109 -53.907  1.00  0.00     0.266 A 
HETATM    3  O   UNL     1     -41.330  59.591 -54.845  1.00  0.00    -0.269 OA
HETATM    4  N   UNL     1     -42.615  61.316 -53.966  1.00  0.00    -0.323 N 
HETATM    5  C   UNL     1     -43.117  61.667 -52.721  1.00  0.00     0.045 A 
HETATM    6  C   UNL     1     -42.790  60.695 -51.770  1.00  0.00     0.019 A 
HETATM    7  C   UNL     1     -43.826  62.808 -52.407  1.00  0.00     0.032 A 
HETATM    8  C   UNL     1     -44.220  62.974 -51.076  1.00  0.00     0.026 A 
HETATM    9  C   UNL     1     -43.896  62.008 -50.108  1.00  0.00     0.034 A 
HETATM   10 CL   UNL     1     -44.390  62.247 -48.477  1.00  0.00    -0.084 Cl
HETATM   11  C   UNL     1     -43.172  60.861 -50.445  1.00  0.00     0.037 A 
HETATM   12  H   UNL     1     -42.692  61.862 -54.811  1.00  0.00     0.169 HD
ENDROOT
BRANCH   1  13
HETATM   13  C   UNL     1     -42.719  58.302 -52.226  1.00  0.00     0.025 A 
HETATM   14  C   UNL     1     -43.914  57.931 -52.848  1.00  0.00     0.016 A 
HETATM   15  C   UNL     1     -44.773  58.641 -53.836  1.00  0.00     0.069 C 
HETATM   16  N   UNL     1     -44.264  56.686 -52.396  1.00  0.00    -0.359 N 
HETATM   17  H   UNL     1     -45.088  56.174 -52.680  1.00  0.00     0.166 HD
HETATM   18  C   UNL     1     -43.338  56.215 -51.503  1.00  0.00     0.043 A 
HETATM   19  C   UNL     1     -42.353  57.194 -51.371  1.00  0.00     0.003 A 
HETATM   20  C   UNL     1     -43.314  54.998 -50.808  1.00  0.00     0.030 A 
HETATM   21  C   UNL     1     -41.279  56.920 -50.493  1.00  0.00     0.014 A 
HETATM   22  C   UNL     1     -41.239  55.710 -49.787  1.00  0.00     0.001 A 
HETATM   23  C   UNL     1     -42.244  54.763 -49.943  1.00  0.00     0.002 A 
ENDBRANCH   1  13
BRANCH   1  24
HETATM   24  O   UNL     1     -40.661  59.592 -51.886  1.00  0.00    -0.371 OA
HETATM   25  H   UNL     1     -40.388  58.660 -51.946  1.00  0.00     0.212 HD
ENDBRANCH   1  24
TORSDOF 2
ENDMDL
MODEL 9
REMARK VINA RESULT:      -7.1      3.052      6.216
REMARK  2 active torsions:
REMARK  status: ('A' for Active; 'I' for Inactive)
REMARK    1  A    between atoms: C_7  and  C_8 
REMARK    2  A    between atoms: C_8  and  O_9 
ROOT
HETATM    1  C   UNL     1     -43.189  56.422 -53.913  1.00  0.00     0.199 A 
HETATM    2  C   UNL     1     -42.816  56.629 -55.418  1.00  0.00     0.266 A 
HETATM    3  O   UNL     1     -43.352  57.380 -56.220  1.00  0.00    -0.269 OA
HETATM    4  N   UNL     1     -41.782  55.742 -55.718  1.00  0.00    -0.323 N 
HETATM    5  C   UNL     1     -41.435  54.983 -54.610  1.00  0.00     0.045 A 
HETATM    6  C   UNL     1     -42.217  55.342 -53.507  1.00  0.00     0.019 A 
HETATM    7  C   UNL     1     -40.478  53.990 -54.554  1.00  0.00     0.032 A 
HETATM    8  C   UNL     1     -40.305  53.332 -53.333  1.00  0.00     0.026 A 
HETATM    9  C   UNL     1     -41.086  53.679 -52.217  1.00  0.00     0.034 A 
HETATM   10 CL   UNL     1     -40.852  52.843 -50.730  1.00  0.00    -0.084 Cl
HETATM   11  C   UNL     1     -42.053  54.684 -52.294  1.00  0.00     0.037 A 
HETATM   12  H   UNL     1     -41.385  55.657 -56.642  1.00  0.00     0.169 HD
ENDROOT
BRANCH   1  13
HETATM   13  C   UNL     1     -42.938  57.619 -53.023  1.00  0.00     0.025 A 
HETATM   14  C   UNL     1     -41.727  58.302 -52.885  1.00  0.00     0.016 A 
HETATM   15  C   UNL     1     -40.399  58.091 -53.524  1.00  0.00     0.069 C 
HETATM   16  N   UNL     1     -41.907  59.316 -51.982  1.00  0.00    -0.359 N 
HETATM   17  H   UNL     1     -41.194  59.969 -51.691  1.00  0.00     0.166 HD
HETATM   18  C   UNL     1     -43.198  59.334 -51.522  1.00  0.00     0.043 A 
HETATM   19  C   UNL     1     -43.878  58.291 -52.152  1.00  0.00     0.003 A 
HETATM   20  C   UNL     1     -43.799  60.198 -50.597  1.00  0.00     0.030 A 
HETATM   21  C   UNL     1     -45.245  58.119 -51.831  1.00  0.00     0.014 A 
HETATM   22  C   UNL     1     -45.862  58.971 -50.905  1.00  0.00     0.001 A 
HETATM   23  C   UNL     1     -45.147  59.995 -50.296  1.00  0.00     0.002 A 
ENDBRANCH   1  13
BRANCH   1  24
HETATM   24  O   UNL     1     -44.522  55.927 -53.828  1.00  0.00    -0.371 OA
HETATM   25  H   UNL     1     -44.482  55.253 -53.126  1.00  0.00     0.212 HD
ENDBRANCH   1  24
TORSDOF 2
ENDMDL
MODEL 10
REMARK VINA RESULT:      -6.8      3.492      6.072
REMARK  2 active torsions:
REMARK  status: ('A' for Active; 'I' for Inactive)
REMARK    1  A    between atoms: C_7  and  C_8 
REMARK    2  A    between atoms: C_8  and  O_9 
ROOT
HETATM    1  C   UNL     1     -41.294  58.769 -52.408  1.00  0.00     0.199 A 
HETATM    2  C   UNL     1     -41.076  59.048 -50.885  1.00  0.00     0.266 A 
HETATM    3  O   UNL     1     -40.881  60.129 -50.347  1.00  0.00    -0.269 OA
HETATM    4  N   UNL     1     -41.078  57.817 -50.230  1.00  0.00    -0.323 N 
HETATM    5  C   UNL     1     -41.264  56.773 -51.125  1.00  0.00     0.045 A 
HETATM    6  C   UNL     1     -41.412  57.265 -52.426  1.00  0.00     0.019 A 
HETATM    7  C   UNL     1     -41.288  55.425 -50.830  1.00  0.00     0.032 A 
HETATM    8  C   UNL     1     -41.468  54.537 -51.895  1.00  0.00     0.026 A 
HETATM    9  C   UNL     1     -41.614  55.017 -53.208  1.00  0.00     0.034 A 
HETATM   10 CL   UNL     1     -41.826  53.896 -54.497  1.00  0.00    -0.084 Cl
HETATM   11  C   UNL     1     -41.582  56.385 -53.487  1.00  0.00     0.037 A 
HETATM   12  H   UNL     1     -40.921  57.725 -49.238  1.00  0.00     0.169 HD
ENDROOT
BRANCH   1  13
HETATM   13  C   UNL     1     -42.574  59.333 -52.984  1.00  0.00     0.025 A 
HETATM   14  C   UNL     1     -42.773  59.738 -54.307  1.00  0.00     0.016 A 
HETATM   15  C   UNL     1     -41.860  59.741 -55.484  1.00  0.00     0.069 C 
HETATM   16  N   UNL     1     -44.058  60.195 -54.427  1.00  0.00    -0.359 N 
HETATM   17  H   UNL     1     -44.471  60.553 -55.277  1.00  0.00     0.166 HD
HETATM   18  C   UNL     1     -44.722  60.100 -53.232  1.00  0.00     0.043 A 
HETATM   19  C   UNL     1     -43.831  59.561 -52.304  1.00  0.00     0.003 A 
HETATM   20  C   UNL     1     -46.040  60.456 -52.917  1.00  0.00     0.030 A 
HETATM   21  C   UNL     1     -44.305  59.364 -50.986  1.00  0.00     0.014 A 
HETATM   22  C   UNL     1     -45.619  59.717 -50.652  1.00  0.00     0.001 A 
HETATM   23  C   UNL     1     -46.474  60.256 -51.606  1.00  0.00     0.002 A 
ENDBRANCH   1  13
BRANCH   1  24
HETATM   24  O   UNL     1     -40.131  59.170 -53.126  1.00  0.00    -0.371 OA
HETATM   25  H   UNL     1     -39.394  58.938 -52.534  1.00  0.00     0.212 HD
ENDBRANCH   1  24
TORSDOF 2
ENDMDL
