MODEL 1
REMARK VINA RESULT:      -8.5      0.000      0.000
REMARK  3 active torsions:
REMARK  status: ('A' for Active; 'I' for Inactive)
REMARK    1  A    between atoms: C_4  and  C_5 
REMARK    2  A    between atoms: C_11  and  C_12 
REMARK    3  A    between atoms: C_21  and  N_22 
ROOT
HETATM    1  C   UNL     1     -40.201  53.400 -50.727  1.00  0.00     0.098 A 
HETATM    2  N   UNL     1     -39.475  53.763 -49.653  1.00  0.00    -0.172 NA
HETATM    3  N   UNL     1     -39.858  55.029 -49.397  1.00  0.00    -0.256 N 
HETATM    4  H   UNL     1     -39.441  55.517 -48.612  1.00  0.00     0.191 HD
HETATM    5  C   UNL     1     -40.787  55.486 -50.272  1.00  0.00     0.175 A 
HETATM    6  C   UNL     1     -41.019  54.477 -51.168  1.00  0.00     0.036 A 
HETATM    7  C   UNL     1     -41.948  54.687 -52.335  1.00  0.00     0.076 C 
HETATM    8  C   UNL     1     -42.684  56.032 -52.124  1.00  0.00     0.063 C 
HETATM    9  C   UNL     1     -43.874  56.307 -53.028  1.00  0.00     0.020 C 
HETATM   10  N   UNL     1     -44.862  56.535 -53.777  1.00  0.00    -0.096 N 
HETATM   11  C   UNL     1     -42.360  56.935 -51.159  1.00  0.00     0.139 C 
HETATM   12  O   UNL     1     -41.333  56.693 -50.232  1.00  0.00    -0.279 OA
ENDROOT
BRANCH   7  13
HETATM   13  C   UNL     1     -41.150  54.506 -53.681  1.00  0.00     0.003 C 
HETATM   14  C   UNL     1     -40.595  55.809 -54.289  1.00  0.00     0.032 C 
HETATM   15  C   UNL     1     -41.459  56.417 -55.347  1.00  0.00    -0.030 C 
HETATM   16  C   UNL     1     -42.420  55.745 -55.993  1.00  0.00    -0.031 C 
HETATM   17  C   UNL     1     -42.749  54.308 -55.743  1.00  0.00     0.027 C 
HETATM   18  C   UNL     1     -41.840  53.611 -54.732  1.00  0.00     0.009 C 
ENDBRANCH   7  13
BRANCH  11  19
HETATM   19  N   UNL     1     -42.986  58.142 -50.951  1.00  0.00    -0.282 NA
HETATM   20  H   UNL     1     -43.755  58.139 -50.286  1.00  0.00     0.126 HD
HETATM   21  H   UNL     1     -42.324  58.897 -50.795  1.00  0.00     0.126 HD
ENDBRANCH  11  19
BRANCH   1  22
HETATM   22  C   UNL     1     -40.055  52.074 -51.321  1.00  0.00    -0.005 A 
HETATM   23  C   UNL     1     -39.768  51.928 -52.685  1.00  0.00     0.014 A 
HETATM   24  C   UNL     1     -39.577  50.657 -53.233  1.00  0.00     0.001 A 
HETATM   25  C   UNL     1     -39.673  49.527 -52.424  1.00  0.00     0.000 A 
HETATM   26  C   UNL     1     -39.969  49.661 -51.067  1.00  0.00     0.001 A 
HETATM   27  C   UNL     1     -40.165  50.930 -50.519  1.00  0.00     0.014 A 
ENDBRANCH   1  22
TORSDOF 3
ENDMDL
MODEL 2
REMARK VINA RESULT:      -8.1      2.466      3.807
REMARK  3 active torsions:
REMARK  status: ('A' for Active; 'I' for Inactive)
REMARK    1  A    between atoms: C_4  and  C_5 
REMARK    2  A    between atoms: C_11  and  C_12 
REMARK    3  A    between atoms: C_21  and  N_22 
ROOT
HETATM    1  C   UNL     1     -42.964  54.278 -51.697  1.00  0.00     0.098 A 
HETATM    2  N   UNL     1     -43.684  53.659 -50.743  1.00  0.00    -0.172 NA
HETATM    3  N   UNL     1     -44.512  54.611 -50.270  1.00  0.00    -0.256 N 
HETATM    4  H   UNL     1     -45.165  54.370 -49.534  1.00  0.00     0.191 HD
HETATM    5  C   UNL     1     -44.336  55.810 -50.877  1.00  0.00     0.175 A 
HETATM    6  C   UNL     1     -43.326  55.652 -51.787  1.00  0.00     0.036 A 
HETATM    7  C   UNL     1     -42.819  56.826 -52.582  1.00  0.00     0.076 C 
HETATM    8  C   UNL     1     -43.786  58.012 -52.351  1.00  0.00     0.063 C 
HETATM    9  C   UNL     1     -43.632  59.208 -53.277  1.00  0.00     0.020 C 
HETATM   10  N   UNL     1     -43.505  60.200 -54.045  1.00  0.00    -0.096 N 
HETATM   11  C   UNL     1     -44.778  58.018 -51.420  1.00  0.00     0.139 C 
HETATM   12  O   UNL     1     -45.032  56.905 -50.602  1.00  0.00    -0.279 OA
ENDROOT
BRANCH   7  13
HETATM   13  C   UNL     1     -41.297  57.064 -52.256  1.00  0.00     0.003 C 
HETATM   14  C   UNL     1     -40.964  57.183 -50.757  1.00  0.00     0.032 C 
HETATM   15  C   UNL     1     -40.882  58.587 -50.249  1.00  0.00    -0.030 C 
HETATM   16  C   UNL     1     -40.730  59.653 -51.044  1.00  0.00    -0.031 C 
HETATM   17  C   UNL     1     -40.621  59.576 -52.533  1.00  0.00     0.027 C 
HETATM   18  C   UNL     1     -40.612  58.158 -53.102  1.00  0.00     0.009 C 
ENDBRANCH   7  13
BRANCH  11  19
HETATM   19  N   UNL     1     -45.646  59.058 -51.182  1.00  0.00    -0.282 NA
HETATM   20  H   UNL     1     -45.241  59.894 -50.770  1.00  0.00     0.126 HD
HETATM   21  H   UNL     1     -46.240  59.254 -51.984  1.00  0.00     0.126 HD
ENDBRANCH  11  19
BRANCH   1  22
HETATM   22  C   UNL     1     -41.933  53.565 -52.445  1.00  0.00    -0.005 A 
HETATM   23  C   UNL     1     -41.977  53.504 -53.844  1.00  0.00     0.014 A 
HETATM   24  C   UNL     1     -40.957  52.865 -54.554  1.00  0.00     0.001 A 
HETATM   25  C   UNL     1     -39.889  52.285 -53.872  1.00  0.00     0.000 A 
HETATM   26  C   UNL     1     -39.843  52.332 -52.478  1.00  0.00     0.001 A 
HETATM   27  C   UNL     1     -40.864  52.965 -51.767  1.00  0.00     0.014 A 
ENDBRANCH   1  22
TORSDOF 3
ENDMDL
MODEL 3
REMARK VINA RESULT:      -8.1      1.688      2.400
REMARK  3 active torsions:
REMARK  status: ('A' for Active; 'I' for Inactive)
REMARK    1  A    between atoms: C_4  and  C_5 
REMARK    2  A    between atoms: C_11  and  C_12 
REMARK    3  A    between atoms: C_21  and  N_22 
ROOT
HETATM    1  C   UNL     1     -41.715  54.142 -51.513  1.00  0.00     0.098 A 
HETATM    2  N   UNL     1     -41.585  54.107 -50.174  1.00  0.00    -0.172 NA
HETATM    3  N   UNL     1     -42.359  55.117 -49.731  1.00  0.00    -0.256 N 
HETATM    4  H   UNL     1     -42.423  55.283 -48.733  1.00  0.00     0.191 HD
HETATM    5  C   UNL     1     -42.963  55.798 -50.735  1.00  0.00     0.175 A 
HETATM    6  C   UNL     1     -42.554  55.222 -51.908  1.00  0.00     0.036 A 
HETATM    7  C   UNL     1     -42.979  55.796 -53.234  1.00  0.00     0.076 C 
HETATM    8  C   UNL     1     -44.068  56.862 -52.965  1.00  0.00     0.063 C 
HETATM    9  C   UNL     1     -44.843  57.365 -54.172  1.00  0.00     0.020 C 
HETATM   10  N   UNL     1     -45.488  57.781 -55.173  1.00  0.00    -0.096 N 
HETATM   11  C   UNL     1     -44.395  57.323 -51.727  1.00  0.00     0.139 C 
HETATM   12  O   UNL     1     -43.782  56.826 -50.565  1.00  0.00    -0.279 OA
ENDROOT
BRANCH   7  13
HETATM   13  C   UNL     1     -41.706  56.254 -54.041  1.00  0.00     0.003 C 
HETATM   14  C   UNL     1     -41.098  57.595 -53.589  1.00  0.00     0.032 C 
HETATM   15  C   UNL     1     -41.540  58.778 -54.390  1.00  0.00    -0.030 C 
HETATM   16  C   UNL     1     -42.098  58.683 -55.602  1.00  0.00    -0.031 C 
HETATM   17  C   UNL     1     -42.348  57.389 -56.309  1.00  0.00     0.027 C 
HETATM   18  C   UNL     1     -41.836  56.151 -55.575  1.00  0.00     0.009 C 
ENDBRANCH   7  13
BRANCH  11  19
HETATM   19  N   UNL     1     -45.349  58.276 -51.455  1.00  0.00    -0.282 NA
HETATM   20  H   UNL     1     -45.205  58.825 -50.612  1.00  0.00     0.126 HD
HETATM   21  H   UNL     1     -45.570  58.843 -52.269  1.00  0.00     0.126 HD
ENDBRANCH  11  19
BRANCH   1  22
HETATM   22  C   UNL     1     -41.004  53.192 -52.364  1.00  0.00    -0.005 A 
HETATM   23  C   UNL     1     -39.936  52.440 -51.861  1.00  0.00     0.014 A 
HETATM   24  C   UNL     1     -39.297  51.494 -52.667  1.00  0.00     0.001 A 
HETATM   25  C   UNL     1     -39.721  51.296 -53.980  1.00  0.00     0.000 A 
HETATM   26  C   UNL     1     -40.778  52.049 -54.493  1.00  0.00     0.001 A 
HETATM   27  C   UNL     1     -41.414  52.997 -53.690  1.00  0.00     0.014 A 
ENDBRANCH   1  22
TORSDOF 3
ENDMDL
MODEL 4
REMARK VINA RESULT:      -8.0      2.659      6.606
REMARK  3 active torsions:
REMARK  status: ('A' for Active; 'I' for Inactive)
REMARK    1  A    between atoms: C_4  and  C_5 
REMARK    2  A    between atoms: C_11  and  C_12 
REMARK    3  A    between atoms: C_21  and  N_22 
ROOT
HETATM    1  C   UNL     1     -44.208  57.739 -56.497  1.00  0.00     0.098 A 
HETATM    2  N   UNL     1     -45.410  58.335 -56.608  1.00  0.00    -0.172 NA
HETATM    3  N   UNL     1     -45.831  58.489 -55.338  1.00  0.00    -0.256 N 
HETATM    4  H   UNL     1     -46.728  58.931 -55.170  1.00  0.00     0.191 HD
HETATM    5  C   UNL     1     -44.951  58.003 -54.428  1.00  0.00     0.175 A 
HETATM    6  C   UNL     1     -43.899  57.482 -55.132  1.00  0.00     0.036 A 
HETATM    7  C   UNL     1     -42.773  56.780 -54.419  1.00  0.00     0.076 C 
HETATM    8  C   UNL     1     -42.943  57.023 -52.901  1.00  0.00     0.063 C 
HETATM    9  C   UNL     1     -41.766  56.651 -52.014  1.00  0.00     0.020 C 
HETATM   10  N   UNL     1     -40.789  56.344 -51.279  1.00  0.00    -0.096 N 
HETATM   11  C   UNL     1     -44.046  57.588 -52.338  1.00  0.00     0.139 C 
HETATM   12  O   UNL     1     -45.125  58.042 -53.115  1.00  0.00    -0.279 OA
ENDROOT
BRANCH   7  13
HETATM   13  C   UNL     1     -42.695  55.283 -54.905  1.00  0.00     0.003 C 
HETATM   14  C   UNL     1     -43.067  54.234 -53.840  1.00  0.00     0.032 C 
HETATM   15  C   UNL     1     -41.900  53.643 -53.117  1.00  0.00    -0.030 C 
HETATM   16  C   UNL     1     -40.642  53.705 -53.570  1.00  0.00    -0.031 C 
HETATM   17  C   UNL     1     -40.245  54.367 -54.850  1.00  0.00     0.027 C 
HETATM   18  C   UNL     1     -41.410  54.914 -55.675  1.00  0.00     0.009 C 
ENDBRANCH   7  13
BRANCH  11  19
HETATM   19  N   UNL     1     -44.233  57.809 -50.993  1.00  0.00    -0.282 NA
HETATM   20  H   UNL     1     -45.055  57.377 -50.579  1.00  0.00     0.126 HD
HETATM   21  H   UNL     1     -43.384  57.652 -50.456  1.00  0.00     0.126 HD
ENDBRANCH  11  19
BRANCH   1  22
HETATM   22  C   UNL     1     -43.427  57.391 -57.681  1.00  0.00    -0.005 A 
HETATM   23  C   UNL     1     -43.645  56.181 -58.352  1.00  0.00     0.014 A 
HETATM   24  C   UNL     1     -42.930  55.881 -59.515  1.00  0.00     0.001 A 
HETATM   25  C   UNL     1     -41.995  56.786 -60.012  1.00  0.00     0.000 A 
HETATM   26  C   UNL     1     -41.764  57.989 -59.345  1.00  0.00     0.001 A 
HETATM   27  C   UNL     1     -42.473  58.288 -58.180  1.00  0.00     0.014 A 
ENDBRANCH   1  22
TORSDOF 3
ENDMDL
MODEL 5
REMARK VINA RESULT:      -8.0      2.148      4.341
REMARK  3 active torsions:
REMARK  status: ('A' for Active; 'I' for Inactive)
REMARK    1  A    between atoms: C_4  and  C_5 
REMARK    2  A    between atoms: C_11  and  C_12 
REMARK    3  A    between atoms: C_21  and  N_22 
ROOT
HETATM    1  C   UNL     1     -42.158  53.620 -54.622  1.00  0.00     0.098 A 
HETATM    2  N   UNL     1     -43.066  53.627 -55.616  1.00  0.00    -0.172 NA
HETATM    3  N   UNL     1     -43.756  54.770 -55.437  1.00  0.00    -0.256 N 
HETATM    4  H   UNL     1     -44.503  54.997 -56.084  1.00  0.00     0.191 HD
HETATM    5  C   UNL     1     -43.330  55.480 -54.364  1.00  0.00     0.175 A 
HETATM    6  C   UNL     1     -42.317  54.762 -53.788  1.00  0.00     0.036 A 
HETATM    7  C   UNL     1     -41.672  55.235 -52.512  1.00  0.00     0.076 C 
HETATM    8  C   UNL     1     -42.173  56.670 -52.227  1.00  0.00     0.063 C 
HETATM    9  C   UNL     1     -41.435  57.449 -51.150  1.00  0.00     0.020 C 
HETATM   10  N   UNL     1     -40.823  58.095 -50.257  1.00  0.00    -0.096 N 
HETATM   11  C   UNL     1     -43.182  57.276 -52.910  1.00  0.00     0.139 C 
HETATM   12  O   UNL     1     -43.836  56.644 -53.980  1.00  0.00    -0.279 OA
ENDROOT
BRANCH   7  13
HETATM   13  C   UNL     1     -41.888  54.158 -51.383  1.00  0.00     0.003 C 
HETATM   14  C   UNL     1     -42.416  54.714 -50.047  1.00  0.00     0.032 C 
HETATM   15  C   UNL     1     -41.356  54.989 -49.028  1.00  0.00    -0.030 C 
HETATM   16  C   UNL     1     -40.124  54.471 -49.086  1.00  0.00    -0.031 C 
HETATM   17  C   UNL     1     -39.651  53.555 -50.169  1.00  0.00     0.027 C 
HETATM   18  C   UNL     1     -40.718  53.170 -51.192  1.00  0.00     0.009 C 
ENDBRANCH   7  13
BRANCH  11  19
HETATM   19  N   UNL     1     -43.658  58.545 -52.675  1.00  0.00    -0.282 NA
HETATM   20  H   UNL     1     -43.154  59.303 -53.127  1.00  0.00     0.126 HD
HETATM   21  H   UNL     1     -44.666  58.606 -52.794  1.00  0.00     0.126 HD
ENDBRANCH  11  19
BRANCH   1  22
HETATM   22  C   UNL     1     -41.215  52.515 -54.470  1.00  0.00    -0.005 A 
HETATM   23  C   UNL     1     -39.860  52.760 -54.212  1.00  0.00     0.014 A 
HETATM   24  C   UNL     1     -38.976  51.696 -54.015  1.00  0.00     0.001 A 
HETATM   25  C   UNL     1     -39.440  50.384 -54.075  1.00  0.00     0.000 A 
HETATM   26  C   UNL     1     -40.785  50.130 -54.342  1.00  0.00     0.001 A 
HETATM   27  C   UNL     1     -41.669  51.192 -54.545  1.00  0.00     0.014 A 
ENDBRANCH   1  22
TORSDOF 3
ENDMDL
MODEL 6
REMARK VINA RESULT:      -7.7      2.927      4.611
REMARK  3 active torsions:
REMARK  status: ('A' for Active; 'I' for Inactive)
REMARK    1  A    between atoms: C_4  and  C_5 
REMARK    2  A    between atoms: C_11  and  C_12 
REMARK    3  A    between atoms: C_21  and  N_22 
ROOT
HETATM    1  C   UNL     1     -42.073  56.701 -53.385  1.00  0.00     0.098 A 
HETATM    2  N   UNL     1     -41.663  57.372 -52.292  1.00  0.00    -0.172 NA
HETATM    3  N   UNL     1     -42.396  58.501 -52.290  1.00  0.00    -0.256 N 
HETATM    4  H   UNL     1     -42.262  59.172 -51.542  1.00  0.00     0.191 HD
HETATM    5  C   UNL     1     -43.245  58.579 -53.345  1.00  0.00     0.175 A 
HETATM    6  C   UNL     1     -43.051  57.451 -54.096  1.00  0.00     0.036 A 
HETATM    7  C   UNL     1     -43.785  57.261 -55.397  1.00  0.00     0.076 C 
HETATM    8  C   UNL     1     -44.867  58.363 -55.500  1.00  0.00     0.063 C 
HETATM    9  C   UNL     1     -45.912  58.192 -56.591  1.00  0.00     0.020 C 
HETATM   10  N   UNL     1     -46.780  58.050 -57.494  1.00  0.00    -0.096 N 
HETATM   11  C   UNL     1     -44.959  59.423 -54.653  1.00  0.00     0.139 C 
HETATM   12  O   UNL     1     -44.082  59.583 -53.568  1.00  0.00    -0.279 OA
ENDROOT
BRANCH   7  13
HETATM   13  C   UNL     1     -42.747  57.158 -56.577  1.00  0.00     0.003 C 
HETATM   14  C   UNL     1     -42.480  58.478 -57.325  1.00  0.00     0.032 C 
HETATM   15  C   UNL     1     -43.281  58.655 -58.575  1.00  0.00    -0.030 C 
HETATM   16  C   UNL     1     -43.888  57.647 -59.213  1.00  0.00    -0.031 C 
HETATM   17  C   UNL     1     -43.842  56.222 -58.761  1.00  0.00     0.027 C 
HETATM   18  C   UNL     1     -42.965  55.969 -57.535  1.00  0.00     0.009 C 
ENDBRANCH   7  13
BRANCH  11  19
HETATM   19  N   UNL     1     -45.900  60.423 -54.724  1.00  0.00    -0.282 NA
HETATM   20  H   UNL     1     -46.199  60.692 -55.657  1.00  0.00     0.126 HD
HETATM   21  H   UNL     1     -46.675  60.269 -54.084  1.00  0.00     0.126 HD
ENDBRANCH  11  19
BRANCH   1  22
HETATM   22  C   UNL     1     -41.491  55.410 -53.740  1.00  0.00    -0.005 A 
HETATM   23  C   UNL     1     -41.962  54.227 -53.156  1.00  0.00     0.014 A 
HETATM   24  C   UNL     1     -41.435  52.992 -53.542  1.00  0.00     0.001 A 
HETATM   25  C   UNL     1     -40.436  52.932 -54.511  1.00  0.00     0.000 A 
HETATM   26  C   UNL     1     -39.953  54.105 -55.091  1.00  0.00     0.001 A 
HETATM   27  C   UNL     1     -40.475  55.340 -54.702  1.00  0.00     0.014 A 
ENDBRANCH   1  22
TORSDOF 3
ENDMDL
MODEL 7
REMARK VINA RESULT:      -7.5     13.874     16.055
REMARK  3 active torsions:
REMARK  status: ('A' for Active; 'I' for Inactive)
REMARK    1  A    between atoms: C_4  and  C_5 
REMARK    2  A    between atoms: C_11  and  C_12 
REMARK    3  A    between atoms: C_21  and  N_22 
ROOT
HETATM    1  C   UNL     1     -37.969  41.140 -55.534  1.00  0.00     0.098 A 
HETATM    2  N   UNL     1     -39.166  41.382 -54.968  1.00  0.00    -0.172 NA
HETATM    3  N   UNL     1     -38.935  41.313 -53.643  1.00  0.00    -0.256 N 
HETATM    4  H   UNL     1     -39.706  41.470 -53.002  1.00  0.00     0.191 HD
HETATM    5  C   UNL     1     -37.644  41.024 -53.347  1.00  0.00     0.175 A 
HETATM    6  C   UNL     1     -36.987  40.875 -54.539  1.00  0.00     0.036 A 
HETATM    7  C   UNL     1     -35.538  40.464 -54.569  1.00  0.00     0.076 C 
HETATM    8  C   UNL     1     -34.992  40.532 -53.123  1.00  0.00     0.063 C 
HETATM    9  C   UNL     1     -33.484  40.437 -52.958  1.00  0.00     0.020 C 
HETATM   10  N   UNL     1     -32.233  40.360 -52.822  1.00  0.00    -0.096 N 
HETATM   11  C   UNL     1     -35.770  40.720 -52.022  1.00  0.00     0.139 C 
HETATM   12  O   UNL     1     -37.158  40.910 -52.119  1.00  0.00    -0.279 OA
ENDROOT
BRANCH   7  13
HETATM   13  C   UNL     1     -35.397  39.092 -55.330  1.00  0.00     0.003 C 
HETATM   14  C   UNL     1     -34.933  37.910 -54.457  1.00  0.00     0.032 C 
HETATM   15  C   UNL     1     -33.464  37.637 -54.513  1.00  0.00    -0.030 C 
HETATM   16  C   UNL     1     -32.664  38.094 -55.484  1.00  0.00    -0.031 C 
HETATM   17  C   UNL     1     -33.134  38.928 -56.632  1.00  0.00     0.027 C 
HETATM   18  C   UNL     1     -34.643  39.167 -56.674  1.00  0.00     0.009 C 
ENDBRANCH   7  13
BRANCH  11  19
HETATM   19  N   UNL     1     -35.318  40.774 -50.724  1.00  0.00    -0.282 NA
HETATM   20  H   UNL     1     -35.154  39.879 -50.270  1.00  0.00     0.126 HD
HETATM   21  H   UNL     1     -34.548  41.427 -50.612  1.00  0.00     0.126 HD
ENDBRANCH  11  19
BRANCH   1  22
HETATM   22  C   UNL     1     -37.813  41.118 -56.985  1.00  0.00    -0.005 A 
HETATM   23  C   UNL     1     -37.177  42.172 -57.654  1.00  0.00     0.014 A 
HETATM   24  C   UNL     1     -36.984  42.116 -59.036  1.00  0.00     0.001 A 
HETATM   25  C   UNL     1     -37.425  41.009 -59.758  1.00  0.00     0.000 A 
HETATM   26  C   UNL     1     -38.070  39.959 -59.103  1.00  0.00     0.001 A 
HETATM   27  C   UNL     1     -38.268  40.016 -57.722  1.00  0.00     0.014 A 
ENDBRANCH   1  22
TORSDOF 3
ENDMDL
MODEL 8
REMARK VINA RESULT:      -7.4      2.967      4.639
REMARK  3 active torsions:
REMARK  status: ('A' for Active; 'I' for Inactive)
REMARK    1  A    between atoms: C_4  and  C_5 
REMARK    2  A    between atoms: C_11  and  C_12 
REMARK    3  A    between atoms: C_21  and  N_22 
ROOT
HETATM    1  C   UNL     1     -41.319  54.030 -52.823  1.00  0.00     0.098 A 
HETATM    2  N   UNL     1     -41.358  52.845 -53.461  1.00  0.00    -0.172 NA
HETATM    3  N   UNL     1     -41.672  53.155 -54.733  1.00  0.00    -0.256 N 
HETATM    4  H   UNL     1     -41.753  52.407 -55.413  1.00  0.00     0.191 HD
HETATM    5  C   UNL     1     -41.847  54.485 -54.924  1.00  0.00     0.175 A 
HETATM    6  C   UNL     1     -41.657  55.090 -53.710  1.00  0.00     0.036 A 
HETATM    7  C   UNL     1     -41.862  56.574 -53.552  1.00  0.00     0.076 C 
HETATM    8  C   UNL     1     -42.029  57.185 -54.963  1.00  0.00     0.063 C 
HETATM    9  C   UNL     1     -41.960  58.701 -55.062  1.00  0.00     0.020 C 
HETATM   10  N   UNL     1     -41.902  59.958 -55.144  1.00  0.00    -0.096 N 
HETATM   11  C   UNL     1     -42.178  56.452 -56.100  1.00  0.00     0.139 C 
HETATM   12  O   UNL     1     -42.152  55.048 -56.085  1.00  0.00    -0.279 OA
ENDROOT
BRANCH   7  13
HETATM   13  C   UNL     1     -43.015  56.837 -52.511  1.00  0.00     0.003 C 
HETATM   14  C   UNL     1     -44.396  57.124 -53.130  1.00  0.00     0.032 C 
HETATM   15  C   UNL     1     -44.726  58.576 -53.264  1.00  0.00    -0.030 C 
HETATM   16  C   UNL     1     -44.092  59.543 -52.590  1.00  0.00    -0.031 C 
HETATM   17  C   UNL     1     -42.980  59.297 -51.622  1.00  0.00     0.027 C 
HETATM   18  C   UNL     1     -42.657  57.823 -51.380  1.00  0.00     0.009 C 
ENDBRANCH   7  13
BRANCH  11  19
HETATM   19  N   UNL     1     -42.339  56.965 -57.366  1.00  0.00    -0.282 NA
HETATM   20  H   UNL     1     -41.502  57.335 -57.809  1.00  0.00     0.126 HD
HETATM   21  H   UNL     1     -42.868  56.341 -57.970  1.00  0.00     0.126 HD
ENDBRANCH  11  19
BRANCH   1  22
HETATM   22  C   UNL     1     -41.016  54.108 -51.397  1.00  0.00    -0.005 A 
HETATM   23  C   UNL     1     -39.701  53.974 -50.935  1.00  0.00     0.014 A 
HETATM   24  C   UNL     1     -39.414  54.104 -49.573  1.00  0.00     0.001 A 
HETATM   25  C   UNL     1     -40.439  54.369 -48.667  1.00  0.00     0.000 A 
HETATM   26  C   UNL     1     -41.754  54.494 -49.116  1.00  0.00     0.001 A 
HETATM   27  C   UNL     1     -42.042  54.359 -50.475  1.00  0.00     0.014 A 
ENDBRANCH   1  22
TORSDOF 3
ENDMDL
MODEL 9
REMARK VINA RESULT:      -7.3      2.875      4.668
REMARK  3 active torsions:
REMARK  status: ('A' for Active; 'I' for Inactive)
REMARK    1  A    between atoms: C_4  and  C_5 
REMARK    2  A    between atoms: C_11  and  C_12 
REMARK    3  A    between atoms: C_21  and  N_22 
ROOT
HETATM    1  C   UNL     1     -42.114  53.973 -54.483  1.00  0.00     0.098 A 
HETATM    2  N   UNL     1     -42.820  53.247 -55.370  1.00  0.00    -0.172 NA
HETATM    3  N   UNL     1     -43.517  54.158 -56.076  1.00  0.00    -0.256 N 
HETATM    4  H   UNL     1     -44.127  53.839 -56.820  1.00  0.00     0.191 HD
HETATM    5  C   UNL     1     -43.292  55.429 -55.663  1.00  0.00     0.175 A 
HETATM    6  C   UNL     1     -42.413  55.358 -54.616  1.00  0.00     0.036 A 
HETATM    7  C   UNL     1     -42.013  56.600 -53.864  1.00  0.00     0.076 C 
HETATM    8  C   UNL     1     -42.542  57.824 -54.650  1.00  0.00     0.063 C 
HETATM    9  C   UNL     1     -42.010  59.185 -54.231  1.00  0.00     0.020 C 
HETATM   10  N   UNL     1     -41.568  60.314 -53.884  1.00  0.00    -0.096 N 
HETATM   11  C   UNL     1     -43.397  57.742 -55.705  1.00  0.00     0.139 C 
HETATM   12  O   UNL     1     -43.847  56.507 -56.199  1.00  0.00    -0.279 OA
ENDROOT
BRANCH   7  13
HETATM   13  C   UNL     1     -42.450  56.467 -52.357  1.00  0.00     0.003 C 
HETATM   14  C   UNL     1     -43.916  56.846 -52.070  1.00  0.00     0.032 C 
HETATM   15  C   UNL     1     -44.112  58.247 -51.588  1.00  0.00    -0.030 C 
HETATM   16  C   UNL     1     -43.126  59.001 -51.086  1.00  0.00    -0.031 C 
HETATM   17  C   UNL     1     -41.711  58.539 -50.941  1.00  0.00     0.027 C 
HETATM   18  C   UNL     1     -41.470  57.083 -51.337  1.00  0.00     0.009 C 
ENDBRANCH   7  13
BRANCH  11  19
HETATM   19  N   UNL     1     -43.894  58.809 -56.416  1.00  0.00    -0.282 NA
HETATM   20  H   UNL     1     -43.278  59.202 -57.123  1.00  0.00     0.126 HD
HETATM   21  H   UNL     1     -44.837  58.640 -56.756  1.00  0.00     0.126 HD
ENDBRANCH  11  19
BRANCH   1  22
HETATM   22  C   UNL     1     -41.230  53.329 -53.516  1.00  0.00    -0.005 A 
HETATM   23  C   UNL     1     -41.389  53.550 -52.142  1.00  0.00     0.014 A 
HETATM   24  C   UNL     1     -40.572  52.887 -51.222  1.00  0.00     0.001 A 
HETATM   25  C   UNL     1     -39.594  52.002 -51.669  1.00  0.00     0.000 A 
HETATM   26  C   UNL     1     -39.421  51.783 -53.035  1.00  0.00     0.001 A 
HETATM   27  C   UNL     1     -40.232  52.449 -53.956  1.00  0.00     0.014 A 
ENDBRANCH   1  22
TORSDOF 3
ENDMDL
MODEL 10
REMARK VINA RESULT:      -7.3     13.696     15.980
REMARK  3 active torsions:
REMARK  status: ('A' for Active; 'I' for Inactive)
REMARK    1  A    between atoms: C_4  and  C_5 
REMARK    2  A    between atoms: C_11  and  C_12 
REMARK    3  A    between atoms: C_21  and  N_22 
ROOT
HETATM    1  C   UNL     1     -32.633  39.955 -53.384  1.00  0.00     0.098 A 
HETATM    2  N   UNL     1     -32.114  40.467 -52.253  1.00  0.00    -0.172 NA
HETATM    3  N   UNL     1     -33.096  41.238 -51.747  1.00  0.00    -0.256 N 
HETATM    4  H   UNL     1     -32.933  41.731 -50.876  1.00  0.00     0.191 HD
HETATM    5  C   UNL     1     -34.210  41.246 -52.519  1.00  0.00     0.175 A 
HETATM    6  C   UNL     1     -33.948  40.453 -53.604  1.00  0.00     0.036 A 
HETATM    7  C   UNL     1     -34.958  40.310 -54.712  1.00  0.00     0.076 C 
HETATM    8  C   UNL     1     -36.282  40.957 -54.238  1.00  0.00     0.063 C 
HETATM    9  C   UNL     1     -37.517  40.677 -55.077  1.00  0.00     0.020 C 
HETATM   10  N   UNL     1     -38.542  40.443 -55.773  1.00  0.00    -0.096 N 
HETATM   11  C   UNL     1     -36.403  41.703 -53.106  1.00  0.00     0.139 C 
HETATM   12  O   UNL     1     -35.319  41.916 -52.239  1.00  0.00    -0.279 OA
ENDROOT
BRANCH   7  13
HETATM   13  C   UNL     1     -34.339  40.841 -56.059  1.00  0.00     0.003 C 
HETATM   14  C   UNL     1     -34.870  42.211 -56.524  1.00  0.00     0.032 C 
HETATM   15  C   UNL     1     -35.978  42.140 -57.524  1.00  0.00    -0.030 C 
HETATM   16  C   UNL     1     -36.253  41.048 -58.248  1.00  0.00    -0.031 C 
HETATM   17  C   UNL     1     -35.489  39.766 -58.150  1.00  0.00     0.027 C 
HETATM   18  C   UNL     1     -34.289  39.807 -57.204  1.00  0.00     0.009 C 
ENDBRANCH   7  13
BRANCH  11  19
HETATM   19  N   UNL     1     -37.560  42.300 -52.663  1.00  0.00    -0.282 NA
HETATM   20  H   UNL     1     -38.137  41.746 -52.035  1.00  0.00     0.126 HD
HETATM   21  H   UNL     1     -37.402  43.247 -52.331  1.00  0.00     0.126 HD
ENDBRANCH  11  19
BRANCH   1  22
HETATM   22  C   UNL     1     -31.851  39.062 -54.235  1.00  0.00    -0.005 A 
HETATM   23  C   UNL     1     -31.132  39.562 -55.328  1.00  0.00     0.014 A 
HETATM   24  C   UNL     1     -30.344  38.708 -56.104  1.00  0.00     0.001 A 
HETATM   25  C   UNL     1     -30.271  37.352 -55.792  1.00  0.00     0.000 A 
HETATM   26  C   UNL     1     -30.992  36.843 -54.712  1.00  0.00     0.001 A 
HETATM   27  C   UNL     1     -31.784  37.694 -53.939  1.00  0.00     0.014 A 
ENDBRANCH   1  22
TORSDOF 3
ENDMDL
