MODEL 1
REMARK VINA RESULT:      -8.0      0.000      0.000
REMARK  6 active torsions:
REMARK  status: ('A' for Active; 'I' for Inactive)
REMARK    1  A    between atoms: C_7  and  S_8 
REMARK    2  A    between atoms: S_8  and  C_9 
REMARK    3  A    between atoms: C_9  and  C_10 
REMARK    4  A    between atoms: C_18  and  C_19 
REMARK    5  A    between atoms: C_29  and  C_30 
REMARK    6  A    between atoms: C_30  and  O_31 
ROOT
HETATM    1  C   UNL     1     -46.789  61.982 -51.543  1.00  0.00     0.070 C 
HETATM    2  C   UNL     1     -46.096  60.763 -52.097  1.00  0.00     0.037 A 
HETATM    3  N   UNL     1     -46.061  60.670 -53.482  1.00  0.00    -0.192 N 
HETATM    4  C   UNL     1     -45.471  59.660 -54.144  1.00  0.00     0.726 A 
HETATM    5  N   UNL     1     -44.906  58.629 -53.443  1.00  0.00    -0.082 N 
HETATM    6  N   UNL     1     -44.407  57.689 -54.277  1.00  0.00    -0.128 NA
HETATM    7  C   UNL     1     -44.635  58.264 -55.467  1.00  0.00     0.226 A 
HETATM    8  N   UNL     1     -45.303  59.462 -55.423  1.00  0.00    -0.035 NA
HETATM    9  C   UNL     1     -44.886  58.550 -51.970  1.00  0.00     0.204 A 
HETATM   10  C   UNL     1     -45.544  59.779 -51.345  1.00  0.00     0.070 A 
HETATM   11  H   UNL     1     -46.460  61.437 -54.017  1.00  0.00     0.184 HD
ENDROOT
BRANCH   9  12
HETATM   12  C   UNL     1     -43.455  58.327 -51.461  1.00  0.00    -0.017 A 
HETATM   13  C   UNL     1     -42.997  57.057 -50.984  1.00  0.00    -0.017 A 
HETATM   14  C   UNL     1     -41.677  56.963 -50.467  1.00  0.00    -0.025 A 
HETATM   15  C   UNL     1     -43.769  55.866 -50.973  1.00  0.00     0.013 A 
HETATM   16  C   UNL     1     -41.191  55.744 -49.967  1.00  0.00     0.012 A 
HETATM   17  C   UNL     1     -40.847  58.092 -50.444  1.00  0.00     0.012 A 
HETATM   18  C   UNL     1     -41.983  54.599 -49.964  1.00  0.00     0.001 A 
HETATM   19  C   UNL     1     -43.272  54.660 -50.468  1.00  0.00     0.001 A 
HETATM   20  C   UNL     1     -41.295  59.321 -50.912  1.00  0.00     0.002 A 
HETATM   21  C   UNL     1     -42.586  59.440 -51.408  1.00  0.00     0.010 A 
ENDBRANCH   9  12
BRANCH  10  22
HETATM   22  C   UNL     1     -45.496  59.886 -49.875  1.00  0.00     0.293 C 
HETATM   23  O   UNL     1     -46.090  59.138 -49.113  1.00  0.00    -0.259 OA
BRANCH  22  24
HETATM   24  O   UNL     1     -44.696  60.920 -49.524  1.00  0.00    -0.323 OA
HETATM   25  C   UNL     1     -44.905  61.367 -48.182  1.00  0.00     0.213 C 
ENDBRANCH  22  24
ENDBRANCH  10  22
BRANCH   7  26
HETATM   26  S   UNL     1     -44.085  57.610 -56.983  1.00  0.00    -0.083 SA
BRANCH  26  27
HETATM   27  C   UNL     1     -42.332  57.298 -56.643  1.00  0.00     0.123 C 
BRANCH  27  28
HETATM   28  C   UNL     1     -42.167  56.097 -55.737  1.00  0.00    -0.027 A 
HETATM   29  C   UNL     1     -41.469  56.150 -54.518  1.00  0.00     0.041 A 
HETATM   30 CL   UNL     1     -40.683  57.590 -53.975  1.00  0.00    -0.084 Cl
HETATM   31  C   UNL     1     -41.388  55.022 -53.694  1.00  0.00     0.024 A 
HETATM   32  C   UNL     1     -42.001  53.828 -54.073  1.00  0.00     0.002 A 
HETATM   33  C   UNL     1     -42.696  53.759 -55.277  1.00  0.00     0.001 A 
HETATM   34  C   UNL     1     -42.782  54.883 -56.099  1.00  0.00     0.009 A 
ENDBRANCH  27  28
ENDBRANCH  26  27
ENDBRANCH   7  26
TORSDOF 6
ENDMDL
MODEL 2
REMARK VINA RESULT:      -7.8      3.370      5.841
REMARK  6 active torsions:
REMARK  status: ('A' for Active; 'I' for Inactive)
REMARK    1  A    between atoms: C_7  and  S_8 
REMARK    2  A    between atoms: S_8  and  C_9 
REMARK    3  A    between atoms: C_9  and  C_10 
REMARK    4  A    between atoms: C_18  and  C_19 
REMARK    5  A    between atoms: C_29  and  C_30 
REMARK    6  A    between atoms: C_30  and  O_31 
ROOT
HETATM    1  C   UNL     1     -45.730  58.742 -51.090  1.00  0.00     0.070 C 
HETATM    2  C   UNL     1     -44.463  58.065 -51.547  1.00  0.00     0.037 A 
HETATM    3  N   UNL     1     -43.802  57.316 -50.583  1.00  0.00    -0.192 N 
HETATM    4  C   UNL     1     -42.667  56.635 -50.821  1.00  0.00     0.726 A 
HETATM    5  N   UNL     1     -42.084  56.702 -52.056  1.00  0.00    -0.082 N 
HETATM    6  N   UNL     1     -40.932  55.994 -52.090  1.00  0.00    -0.128 NA
HETATM    7  C   UNL     1     -40.931  55.460 -50.859  1.00  0.00     0.226 A 
HETATM    8  N   UNL     1     -41.968  55.848 -50.049  1.00  0.00    -0.035 NA
HETATM    9  C   UNL     1     -42.631  57.480 -53.183  1.00  0.00     0.204 A 
HETATM   10  C   UNL     1     -43.941  58.163 -52.794  1.00  0.00     0.070 A 
HETATM   11  H   UNL     1     -44.233  57.241 -49.665  1.00  0.00     0.184 HD
ENDROOT
BRANCH   9  12
HETATM   12  C   UNL     1     -42.777  56.596 -54.430  1.00  0.00    -0.017 A 
HETATM   13  C   UNL     1     -42.580  57.097 -55.756  1.00  0.00    -0.017 A 
HETATM   14  C   UNL     1     -42.805  56.220 -56.851  1.00  0.00    -0.025 A 
HETATM   15  C   UNL     1     -42.183  58.422 -56.075  1.00  0.00     0.013 A 
HETATM   16  C   UNL     1     -42.646  56.672 -58.173  1.00  0.00     0.012 A 
HETATM   17  C   UNL     1     -43.196  54.894 -56.625  1.00  0.00     0.012 A 
HETATM   18  C   UNL     1     -42.265  57.983 -58.444  1.00  0.00     0.001 A 
HETATM   19  C   UNL     1     -42.032  58.857 -57.395  1.00  0.00     0.001 A 
HETATM   20  C   UNL     1     -43.382  54.411 -55.335  1.00  0.00     0.002 A 
HETATM   21  C   UNL     1     -43.183  55.253 -54.250  1.00  0.00     0.010 A 
ENDBRANCH   9  12
BRANCH  10  22
HETATM   22  C   UNL     1     -44.658  58.887 -53.860  1.00  0.00     0.293 C 
HETATM   23  O   UNL     1     -45.509  58.384 -54.578  1.00  0.00    -0.259 OA
BRANCH  22  24
HETATM   24  O   UNL     1     -44.231  60.172 -53.900  1.00  0.00    -0.323 OA
HETATM   25  C   UNL     1     -45.295  61.124 -53.853  1.00  0.00     0.213 C 
ENDBRANCH  22  24
ENDBRANCH  10  22
BRANCH   7  26
HETATM   26  S   UNL     1     -39.757  54.302 -50.305  1.00  0.00    -0.083 SA
BRANCH  26  27
HETATM   27  C   UNL     1     -40.636  52.734 -50.535  1.00  0.00     0.123 C 
BRANCH  27  28
HETATM   28  C   UNL     1     -40.310  52.128 -51.883  1.00  0.00    -0.027 A 
HETATM   29  C   UNL     1     -39.801  50.827 -52.033  1.00  0.00     0.041 A 
HETATM   30 CL   UNL     1     -39.446  49.820 -50.674  1.00  0.00    -0.084 Cl
HETATM   31  C   UNL     1     -39.563  50.298 -53.307  1.00  0.00     0.024 A 
HETATM   32  C   UNL     1     -39.829  51.058 -54.445  1.00  0.00     0.002 A 
HETATM   33  C   UNL     1     -40.333  52.348 -54.314  1.00  0.00     0.001 A 
HETATM   34  C   UNL     1     -40.575  52.878 -53.045  1.00  0.00     0.009 A 
ENDBRANCH  27  28
ENDBRANCH  26  27
ENDBRANCH   7  26
TORSDOF 6
ENDMDL
MODEL 3
REMARK VINA RESULT:      -7.6      4.496      7.611
REMARK  6 active torsions:
REMARK  status: ('A' for Active; 'I' for Inactive)
REMARK    1  A    between atoms: C_7  and  S_8 
REMARK    2  A    between atoms: S_8  and  C_9 
REMARK    3  A    between atoms: C_9  and  C_10 
REMARK    4  A    between atoms: C_18  and  C_19 
REMARK    5  A    between atoms: C_29  and  C_30 
REMARK    6  A    between atoms: C_30  and  O_31 
ROOT
HETATM    1  C   UNL     1     -41.073  62.236 -58.930  1.00  0.00     0.070 C 
HETATM    2  C   UNL     1     -41.567  60.985 -58.250  1.00  0.00     0.037 A 
HETATM    3  N   UNL     1     -41.385  60.939 -56.875  1.00  0.00    -0.192 N 
HETATM    4  C   UNL     1     -41.779  59.907 -56.107  1.00  0.00     0.726 A 
HETATM    5  N   UNL     1     -42.351  58.810 -56.690  1.00  0.00    -0.082 N 
HETATM    6  N   UNL     1     -42.636  57.862 -55.769  1.00  0.00    -0.128 NA
HETATM    7  C   UNL     1     -42.282  58.495 -54.640  1.00  0.00     0.226 A 
HETATM    8  N   UNL     1     -41.734  59.741 -54.814  1.00  0.00    -0.035 NA
HETATM    9  C   UNL     1     -42.587  58.677 -58.140  1.00  0.00     0.204 A 
HETATM   10  C   UNL     1     -42.138  59.933 -58.886  1.00  0.00     0.070 A 
HETATM   11  H   UNL     1     -40.978  61.754 -56.424  1.00  0.00     0.184 HD
ENDROOT
BRANCH   9  12
HETATM   12  C   UNL     1     -44.053  58.319 -58.420  1.00  0.00    -0.017 A 
HETATM   13  C   UNL     1     -44.435  57.134 -59.126  1.00  0.00    -0.017 A 
HETATM   14  C   UNL     1     -45.813  56.922 -59.398  1.00  0.00    -0.025 A 
HETATM   15  C   UNL     1     -43.535  56.142 -59.596  1.00  0.00     0.013 A 
HETATM   16  C   UNL     1     -46.235  55.784 -60.107  1.00  0.00     0.012 A 
HETATM   17  C   UNL     1     -46.768  57.851 -58.966  1.00  0.00     0.012 A 
HETATM   18  C   UNL     1     -45.320  54.839 -60.561  1.00  0.00     0.001 A 
HETATM   19  C   UNL     1     -43.970  55.016 -60.304  1.00  0.00     0.001 A 
HETATM   20  C   UNL     1     -46.393  58.998 -58.277  1.00  0.00     0.002 A 
HETATM   21  C   UNL     1     -45.051  59.234 -58.013  1.00  0.00     0.010 A 
ENDBRANCH   9  12
BRANCH  10  22
HETATM   22  C   UNL     1     -42.416  59.983 -60.334  1.00  0.00     0.293 C 
HETATM   23  O   UNL     1     -41.806  59.338 -61.172  1.00  0.00    -0.259 OA
BRANCH  22  24
HETATM   24  O   UNL     1     -43.441  60.837 -60.567  1.00  0.00    -0.323 OA
HETATM   25  C   UNL     1     -44.383  60.343 -61.523  1.00  0.00     0.213 C 
ENDBRANCH  22  24
ENDBRANCH  10  22
BRANCH   7  26
HETATM   26  S   UNL     1     -42.539  57.852 -53.045  1.00  0.00    -0.083 SA
BRANCH  26  27
HETATM   27  C   UNL     1     -43.414  56.305 -53.399  1.00  0.00     0.123 C 
BRANCH  27  28
HETATM   28  C   UNL     1     -42.467  55.126 -53.336  1.00  0.00    -0.027 A 
HETATM   29  C   UNL     1     -42.309  54.216 -54.394  1.00  0.00     0.041 A 
HETATM   30 CL   UNL     1     -43.235  54.332 -55.849  1.00  0.00    -0.084 Cl
HETATM   31  C   UNL     1     -41.382  53.171 -54.302  1.00  0.00     0.024 A 
HETATM   32  C   UNL     1     -40.602  53.021 -53.156  1.00  0.00     0.002 A 
HETATM   33  C   UNL     1     -40.746  53.914 -52.099  1.00  0.00     0.001 A 
HETATM   34  C   UNL     1     -41.667  54.959 -52.189  1.00  0.00     0.009 A 
ENDBRANCH  27  28
ENDBRANCH  26  27
ENDBRANCH   7  26
TORSDOF 6
ENDMDL
MODEL 4
REMARK VINA RESULT:      -7.6      4.022      6.776
REMARK  6 active torsions:
REMARK  status: ('A' for Active; 'I' for Inactive)
REMARK    1  A    between atoms: C_7  and  S_8 
REMARK    2  A    between atoms: S_8  and  C_9 
REMARK    3  A    between atoms: C_9  and  C_10 
REMARK    4  A    between atoms: C_18  and  C_19 
REMARK    5  A    between atoms: C_29  and  C_30 
REMARK    6  A    between atoms: C_30  and  O_31 
ROOT
HETATM    1  C   UNL     1     -43.280  62.125 -55.132  1.00  0.00     0.070 C 
HETATM    2  C   UNL     1     -42.981  60.670 -55.388  1.00  0.00     0.037 A 
HETATM    3  N   UNL     1     -43.281  59.804 -54.346  1.00  0.00    -0.192 N 
HETATM    4  C   UNL     1     -43.093  58.473 -54.408  1.00  0.00     0.726 A 
HETATM    5  N   UNL     1     -42.535  57.920 -55.528  1.00  0.00    -0.082 N 
HETATM    6  N   UNL     1     -42.383  56.584 -55.387  1.00  0.00    -0.128 NA
HETATM    7  C   UNL     1     -42.949  56.393 -54.186  1.00  0.00     0.226 A 
HETATM    8  N   UNL     1     -43.376  57.532 -53.550  1.00  0.00    -0.035 NA
HETATM    9  C   UNL     1     -42.125  58.698 -56.713  1.00  0.00     0.204 A 
HETATM   10  C   UNL     1     -42.436  60.182 -56.530  1.00  0.00     0.070 A 
HETATM   11  H   UNL     1     -43.713  60.197 -53.513  1.00  0.00     0.184 HD
ENDROOT
BRANCH   9  12
HETATM   12  C   UNL     1     -42.756  58.117 -57.986  1.00  0.00    -0.017 A 
HETATM   13  C   UNL     1     -44.172  57.990 -58.154  1.00  0.00    -0.017 A 
HETATM   14  C   UNL     1     -44.661  57.378 -59.339  1.00  0.00    -0.025 A 
HETATM   15  C   UNL     1     -45.145  58.422 -57.215  1.00  0.00     0.013 A 
HETATM   16  C   UNL     1     -46.042  57.210 -59.540  1.00  0.00     0.012 A 
HETATM   17  C   UNL     1     -43.768  56.925 -60.320  1.00  0.00     0.012 A 
HETATM   18  C   UNL     1     -46.964  57.639 -58.589  1.00  0.00     0.001 A 
HETATM   19  C   UNL     1     -46.516  58.246 -57.428  1.00  0.00     0.001 A 
HETATM   20  C   UNL     1     -42.395  57.055 -60.153  1.00  0.00     0.002 A 
HETATM   21  C   UNL     1     -41.893  57.637 -58.997  1.00  0.00     0.010 A 
ENDBRANCH   9  12
BRANCH  10  22
HETATM   22  C   UNL     1     -42.178  61.065 -57.683  1.00  0.00     0.293 C 
HETATM   23  O   UNL     1     -43.051  61.523 -58.404  1.00  0.00    -0.259 OA
BRANCH  22  24
HETATM   24  O   UNL     1     -40.846  61.281 -57.797  1.00  0.00    -0.323 OA
HETATM   25  C   UNL     1     -40.519  62.313 -58.730  1.00  0.00     0.213 C 
ENDBRANCH  22  24
ENDBRANCH  10  22
BRANCH   7  26
HETATM   26  S   UNL     1     -43.206  54.827 -53.472  1.00  0.00    -0.083 SA
BRANCH  26  27
HETATM   27  C   UNL     1     -41.786  54.685 -52.355  1.00  0.00     0.123 C 
BRANCH  27  28
HETATM   28  C   UNL     1     -40.961  53.461 -52.690  1.00  0.00    -0.027 A 
HETATM   29  C   UNL     1     -40.149  52.806 -51.748  1.00  0.00     0.041 A 
HETATM   30 CL   UNL     1     -39.976  53.384 -50.129  1.00  0.00    -0.084 Cl
HETATM   31  C   UNL     1     -39.445  51.648 -52.099  1.00  0.00     0.024 A 
HETATM   32  C   UNL     1     -39.541  51.129 -53.389  1.00  0.00     0.002 A 
HETATM   33  C   UNL     1     -40.342  51.765 -54.333  1.00  0.00     0.001 A 
HETATM   34  C   UNL     1     -41.048  52.918 -53.986  1.00  0.00     0.009 A 
ENDBRANCH  27  28
ENDBRANCH  26  27
ENDBRANCH   7  26
TORSDOF 6
ENDMDL
MODEL 5
REMARK VINA RESULT:      -7.4      4.558      7.354
REMARK  6 active torsions:
REMARK  status: ('A' for Active; 'I' for Inactive)
REMARK    1  A    between atoms: C_7  and  S_8 
REMARK    2  A    between atoms: S_8  and  C_9 
REMARK    3  A    between atoms: C_9  and  C_10 
REMARK    4  A    between atoms: C_18  and  C_19 
REMARK    5  A    between atoms: C_29  and  C_30 
REMARK    6  A    between atoms: C_30  and  O_31 
ROOT
HETATM    1  C   UNL     1     -44.768  55.447 -60.390  1.00  0.00     0.070 C 
HETATM    2  C   UNL     1     -44.322  56.105 -59.109  1.00  0.00     0.037 A 
HETATM    3  N   UNL     1     -43.538  55.322 -58.274  1.00  0.00    -0.192 N 
HETATM    4  C   UNL     1     -43.041  55.753 -57.101  1.00  0.00     0.726 A 
HETATM    5  N   UNL     1     -43.346  57.011 -56.658  1.00  0.00    -0.082 N 
HETATM    6  N   UNL     1     -42.797  57.247 -55.445  1.00  0.00    -0.128 NA
HETATM    7  C   UNL     1     -42.106  56.112 -55.258  1.00  0.00     0.226 A 
HETATM    8  N   UNL     1     -42.250  55.168 -56.244  1.00  0.00    -0.035 NA
HETATM    9  C   UNL     1     -44.194  57.961 -57.402  1.00  0.00     0.204 A 
HETATM   10  C   UNL     1     -44.652  57.365 -58.732  1.00  0.00     0.070 A 
HETATM   11  H   UNL     1     -43.286  54.391 -58.597  1.00  0.00     0.184 HD
ENDROOT
BRANCH   9  12
HETATM   12  C   UNL     1     -43.475  59.306 -57.576  1.00  0.00    -0.017 A 
HETATM   13  C   UNL     1     -44.024  60.540 -57.100  1.00  0.00    -0.017 A 
HETATM   14  C   UNL     1     -43.318  61.743 -57.369  1.00  0.00    -0.025 A 
HETATM   15  C   UNL     1     -45.240  60.665 -56.379  1.00  0.00     0.013 A 
HETATM   16  C   UNL     1     -43.827  62.981 -56.940  1.00  0.00     0.012 A 
HETATM   17  C   UNL     1     -42.107  61.709 -58.072  1.00  0.00     0.012 A 
HETATM   18  C   UNL     1     -45.030  63.063 -56.244  1.00  0.00     0.001 A 
HETATM   19  C   UNL     1     -45.735  61.905 -55.962  1.00  0.00     0.001 A 
HETATM   20  C   UNL     1     -41.577  60.508 -58.529  1.00  0.00     0.002 A 
HETATM   21  C   UNL     1     -42.256  59.321 -58.291  1.00  0.00     0.010 A 
ENDBRANCH   9  12
BRANCH  10  22
HETATM   22  C   UNL     1     -45.418  58.249 -59.630  1.00  0.00     0.293 C 
HETATM   23  O   UNL     1     -44.934  58.850 -60.577  1.00  0.00    -0.259 OA
BRANCH  22  24
HETATM   24  O   UNL     1     -46.715  58.271 -59.243  1.00  0.00    -0.323 OA
HETATM   25  C   UNL     1     -47.296  59.576 -59.284  1.00  0.00     0.213 C 
ENDBRANCH  22  24
ENDBRANCH  10  22
BRANCH   7  26
HETATM   26  S   UNL     1     -41.038  55.836 -53.913  1.00  0.00    -0.083 SA
BRANCH  26  27
HETATM   27  C   UNL     1     -41.850  54.455 -53.065  1.00  0.00     0.123 C 
BRANCH  27  28
HETATM   28  C   UNL     1     -40.981  53.216 -53.104  1.00  0.00    -0.027 A 
HETATM   29  C   UNL     1     -40.180  52.811 -52.023  1.00  0.00     0.041 A 
HETATM   30 CL   UNL     1     -40.074  53.732 -50.565  1.00  0.00    -0.084 Cl
HETATM   31  C   UNL     1     -39.434  51.629 -52.094  1.00  0.00     0.024 A 
HETATM   32  C   UNL     1     -39.476  50.838 -53.241  1.00  0.00     0.002 A 
HETATM   33  C   UNL     1     -40.264  51.226 -54.321  1.00  0.00     0.001 A 
HETATM   34  C   UNL     1     -41.013  52.402 -54.252  1.00  0.00     0.009 A 
ENDBRANCH  27  28
ENDBRANCH  26  27
ENDBRANCH   7  26
TORSDOF 6
ENDMDL
MODEL 6
REMARK VINA RESULT:      -7.4      3.017      5.263
REMARK  6 active torsions:
REMARK  status: ('A' for Active; 'I' for Inactive)
REMARK    1  A    between atoms: C_7  and  S_8 
REMARK    2  A    between atoms: S_8  and  C_9 
REMARK    3  A    between atoms: C_9  and  C_10 
REMARK    4  A    between atoms: C_18  and  C_19 
REMARK    5  A    between atoms: C_29  and  C_30 
REMARK    6  A    between atoms: C_30  and  O_31 
ROOT
HETATM    1  C   UNL     1     -42.436  59.232 -58.130  1.00  0.00     0.070 C 
HETATM    2  C   UNL     1     -42.785  58.336 -56.969  1.00  0.00     0.037 A 
HETATM    3  N   UNL     1     -42.147  57.103 -56.951  1.00  0.00    -0.192 N 
HETATM    4  C   UNL     1     -42.329  56.188 -55.983  1.00  0.00     0.726 A 
HETATM    5  N   UNL     1     -43.218  56.437 -54.974  1.00  0.00    -0.082 N 
HETATM    6  N   UNL     1     -43.299  55.387 -54.126  1.00  0.00    -0.128 NA
HETATM    7  C   UNL     1     -42.366  54.574 -54.644  1.00  0.00     0.226 A 
HETATM    8  N   UNL     1     -41.767  55.025 -55.793  1.00  0.00    -0.035 NA
HETATM    9  C   UNL     1     -44.006  57.678 -54.860  1.00  0.00     0.204 A 
HETATM   10  C   UNL     1     -43.671  58.648 -55.992  1.00  0.00     0.070 A 
HETATM   11  H   UNL     1     -41.469  56.910 -57.684  1.00  0.00     0.184 HD
ENDROOT
BRANCH   9  12
HETATM   12  C   UNL     1     -43.824  58.309 -53.472  1.00  0.00    -0.017 A 
HETATM   13  C   UNL     1     -42.535  58.596 -52.920  1.00  0.00    -0.017 A 
HETATM   14  C   UNL     1     -42.464  59.116 -51.600  1.00  0.00    -0.025 A 
HETATM   15  C   UNL     1     -41.300  58.390 -53.588  1.00  0.00     0.013 A 
HETATM   16  C   UNL     1     -41.220  59.392 -51.007  1.00  0.00     0.012 A 
HETATM   17  C   UNL     1     -43.637  59.352 -50.871  1.00  0.00     0.012 A 
HETATM   18  C   UNL     1     -40.030  59.167 -51.692  1.00  0.00     0.001 A 
HETATM   19  C   UNL     1     -40.070  58.667 -52.983  1.00  0.00     0.001 A 
HETATM   20  C   UNL     1     -44.886  59.076 -51.413  1.00  0.00     0.002 A 
HETATM   21  C   UNL     1     -44.980  58.553 -52.695  1.00  0.00     0.010 A 
ENDBRANCH   9  12
BRANCH  10  22
HETATM   22  C   UNL     1     -44.306  59.978 -55.941  1.00  0.00     0.293 C 
HETATM   23  O   UNL     1     -43.746  60.991 -55.550  1.00  0.00    -0.259 OA
BRANCH  22  24
HETATM   24  O   UNL     1     -45.577  59.888 -56.398  1.00  0.00    -0.323 OA
HETATM   25  C   UNL     1     -45.950  60.974 -57.250  1.00  0.00     0.213 C 
ENDBRANCH  22  24
ENDBRANCH  10  22
BRANCH   7  26
HETATM   26  S   UNL     1     -41.868  53.076 -53.912  1.00  0.00    -0.083 SA
BRANCH  26  27
HETATM   27  C   UNL     1     -40.345  53.562 -53.058  1.00  0.00     0.123 C 
BRANCH  27  28
HETATM   28  C   UNL     1     -40.643  54.012 -51.644  1.00  0.00    -0.027 A 
HETATM   29  C   UNL     1     -40.515  53.166 -50.530  1.00  0.00     0.041 A 
HETATM   30 CL   UNL     1     -40.056  51.507 -50.687  1.00  0.00    -0.084 Cl
HETATM   31  C   UNL     1     -40.756  53.649 -49.238  1.00  0.00     0.024 A 
HETATM   32  C   UNL     1     -41.128  54.977 -49.041  1.00  0.00     0.002 A 
HETATM   33  C   UNL     1     -41.260  55.829 -50.134  1.00  0.00     0.001 A 
HETATM   34  C   UNL     1     -41.017  55.352 -51.423  1.00  0.00     0.009 A 
ENDBRANCH  27  28
ENDBRANCH  26  27
ENDBRANCH   7  26
TORSDOF 6
ENDMDL
MODEL 7
REMARK VINA RESULT:      -7.2      3.150      5.170
REMARK  6 active torsions:
REMARK  status: ('A' for Active; 'I' for Inactive)
REMARK    1  A    between atoms: C_7  and  S_8 
REMARK    2  A    between atoms: S_8  and  C_9 
REMARK    3  A    between atoms: C_9  and  C_10 
REMARK    4  A    between atoms: C_18  and  C_19 
REMARK    5  A    between atoms: C_29  and  C_30 
REMARK    6  A    between atoms: C_30  and  O_31 
ROOT
HETATM    1  C   UNL     1     -42.303  59.895 -58.267  1.00  0.00     0.070 C 
HETATM    2  C   UNL     1     -42.666  59.033 -57.084  1.00  0.00     0.037 A 
HETATM    3  N   UNL     1     -42.309  57.696 -57.185  1.00  0.00    -0.192 N 
HETATM    4  C   UNL     1     -42.542  56.791 -56.218  1.00  0.00     0.726 A 
HETATM    5  N   UNL     1     -43.205  57.168 -55.083  1.00  0.00    -0.082 N 
HETATM    6  N   UNL     1     -43.387  56.116 -54.253  1.00  0.00    -0.128 NA
HETATM    7  C   UNL     1     -42.731  55.154 -54.920  1.00  0.00     0.226 A 
HETATM    8  N   UNL     1     -42.219  55.529 -56.137  1.00  0.00    -0.035 NA
HETATM    9  C   UNL     1     -43.687  58.538 -54.829  1.00  0.00     0.204 A 
HETATM   10  C   UNL     1     -43.318  59.473 -55.980  1.00  0.00     0.070 A 
HETATM   11  H   UNL     1     -41.798  57.403 -58.014  1.00  0.00     0.184 HD
ENDROOT
BRANCH   9  12
HETATM   12  C   UNL     1     -43.180  59.047 -53.472  1.00  0.00    -0.017 A 
HETATM   13  C   UNL     1     -44.058  59.567 -52.468  1.00  0.00    -0.017 A 
HETATM   14  C   UNL     1     -43.489  60.079 -51.271  1.00  0.00    -0.025 A 
HETATM   15  C   UNL     1     -45.472  59.626 -52.575  1.00  0.00     0.013 A 
HETATM   16  C   UNL     1     -44.309  60.620 -50.265  1.00  0.00     0.012 A 
HETATM   17  C   UNL     1     -42.101  60.056 -51.083  1.00  0.00     0.012 A 
HETATM   18  C   UNL     1     -45.692  60.669 -50.412  1.00  0.00     0.001 A 
HETATM   19  C   UNL     1     -46.273  60.171 -51.567  1.00  0.00     0.001 A 
HETATM   20  C   UNL     1     -41.254  59.546 -52.059  1.00  0.00     0.002 A 
HETATM   21  C   UNL     1     -41.785  59.054 -53.243  1.00  0.00     0.010 A 
ENDBRANCH   9  12
BRANCH  10  22
HETATM   22  C   UNL     1     -43.641  60.902 -55.809  1.00  0.00     0.293 C 
HETATM   23  O   UNL     1     -42.815  61.768 -55.566  1.00  0.00    -0.259 OA
BRANCH  22  24
HETATM   24  O   UNL     1     -44.973  61.085 -55.973  1.00  0.00    -0.323 OA
HETATM   25  C   UNL     1     -45.293  62.245 -56.744  1.00  0.00     0.213 C 
ENDBRANCH  22  24
ENDBRANCH  10  22
BRANCH   7  26
HETATM   26  S   UNL     1     -42.464  53.551 -54.299  1.00  0.00    -0.083 SA
BRANCH  26  27
HETATM   27  C   UNL     1     -40.685  53.573 -53.952  1.00  0.00     0.123 C 
BRANCH  27  28
HETATM   28  C   UNL     1     -40.223  52.227 -53.435  1.00  0.00    -0.027 A 
HETATM   29  C   UNL     1     -39.849  52.011 -52.098  1.00  0.00     0.041 A 
HETATM   30 CL   UNL     1     -39.829  53.288 -50.934  1.00  0.00    -0.084 Cl
HETATM   31  C   UNL     1     -39.477  50.734 -51.661  1.00  0.00     0.024 A 
HETATM   32  C   UNL     1     -39.473  49.660 -52.548  1.00  0.00     0.002 A 
HETATM   33  C   UNL     1     -39.841  49.857 -53.876  1.00  0.00     0.001 A 
HETATM   34  C   UNL     1     -40.216  51.128 -54.315  1.00  0.00     0.009 A 
ENDBRANCH  27  28
ENDBRANCH  26  27
ENDBRANCH   7  26
TORSDOF 6
ENDMDL
MODEL 8
REMARK VINA RESULT:      -7.0      3.393      5.514
REMARK  6 active torsions:
REMARK  status: ('A' for Active; 'I' for Inactive)
REMARK    1  A    between atoms: C_7  and  S_8 
REMARK    2  A    between atoms: S_8  and  C_9 
REMARK    3  A    between atoms: C_9  and  C_10 
REMARK    4  A    between atoms: C_18  and  C_19 
REMARK    5  A    between atoms: C_29  and  C_30 
REMARK    6  A    between atoms: C_30  and  O_31 
ROOT
HETATM    1  C   UNL     1     -42.110  59.099 -58.815  1.00  0.00     0.070 C 
HETATM    2  C   UNL     1     -42.658  58.393 -57.601  1.00  0.00     0.037 A 
HETATM    3  N   UNL     1     -42.105  57.150 -57.330  1.00  0.00    -0.192 N 
HETATM    4  C   UNL     1     -42.464  56.390 -56.280  1.00  0.00     0.726 A 
HETATM    5  N   UNL     1     -43.458  56.818 -55.443  1.00  0.00    -0.082 N 
HETATM    6  N   UNL     1     -43.710  55.905 -54.479  1.00  0.00    -0.128 NA
HETATM    7  C   UNL     1     -42.771  54.987 -54.752  1.00  0.00     0.226 A 
HETATM    8  N   UNL     1     -42.004  55.244 -55.860  1.00  0.00    -0.035 NA
HETATM    9  C   UNL     1     -44.176  58.096 -55.605  1.00  0.00     0.204 A 
HETATM   10  C   UNL     1     -43.641  58.879 -56.803  1.00  0.00     0.070 A 
HETATM   11  H   UNL     1     -41.352  56.825 -57.932  1.00  0.00     0.184 HD
ENDROOT
BRANCH   9  12
HETATM   12  C   UNL     1     -44.134  58.910 -54.304  1.00  0.00    -0.017 A 
HETATM   13  C   UNL     1     -42.936  59.074 -53.537  1.00  0.00    -0.017 A 
HETATM   14  C   UNL     1     -43.010  59.787 -52.311  1.00  0.00    -0.025 A 
HETATM   15  C   UNL     1     -41.662  58.565 -53.901  1.00  0.00     0.013 A 
HETATM   16  C   UNL     1     -41.866  59.955 -51.512  1.00  0.00     0.012 A 
HETATM   17  C   UNL     1     -44.229  60.325 -51.880  1.00  0.00     0.012 A 
HETATM   18  C   UNL     1     -40.635  59.431 -51.898  1.00  0.00     0.001 A 
HETATM   19  C   UNL     1     -40.533  58.738 -53.093  1.00  0.00     0.001 A 
HETATM   20  C   UNL     1     -45.388  60.167 -52.630  1.00  0.00     0.002 A 
HETATM   21  C   UNL     1     -45.344  59.461 -53.824  1.00  0.00     0.010 A 
ENDBRANCH   9  12
BRANCH  10  22
HETATM   22  C   UNL     1     -44.194  60.229 -57.019  1.00  0.00     0.293 C 
HETATM   23  O   UNL     1     -43.592  61.264 -56.776  1.00  0.00    -0.259 OA
BRANCH  22  24
HETATM   24  O   UNL     1     -45.445  60.128 -57.528  1.00  0.00    -0.323 OA
HETATM   25  C   UNL     1     -46.307  61.195 -57.126  1.00  0.00     0.213 C 
ENDBRANCH  22  24
ENDBRANCH  10  22
BRANCH   7  26
HETATM   26  S   UNL     1     -42.463  53.589 -53.763  1.00  0.00    -0.083 SA
BRANCH  26  27
HETATM   27  C   UNL     1     -40.658  53.452 -53.855  1.00  0.00     0.123 C 
BRANCH  27  28
HETATM   28  C   UNL     1     -40.196  52.101 -53.352  1.00  0.00    -0.027 A 
HETATM   29  C   UNL     1     -39.836  51.866 -52.015  1.00  0.00     0.041 A 
HETATM   30 CL   UNL     1     -39.836  53.125 -50.831  1.00  0.00    -0.084 Cl
HETATM   31  C   UNL     1     -39.464  50.584 -51.593  1.00  0.00     0.024 A 
HETATM   32  C   UNL     1     -39.444  49.524 -52.497  1.00  0.00     0.002 A 
HETATM   33  C   UNL     1     -39.797  49.740 -53.826  1.00  0.00     0.001 A 
HETATM   34  C   UNL     1     -40.173  51.016 -54.249  1.00  0.00     0.009 A 
ENDBRANCH  27  28
ENDBRANCH  26  27
ENDBRANCH   7  26
TORSDOF 6
ENDMDL
MODEL 9
REMARK VINA RESULT:      -6.9      4.159      6.386
REMARK  6 active torsions:
REMARK  status: ('A' for Active; 'I' for Inactive)
REMARK    1  A    between atoms: C_7  and  S_8 
REMARK    2  A    between atoms: S_8  and  C_9 
REMARK    3  A    between atoms: C_9  and  C_10 
REMARK    4  A    between atoms: C_18  and  C_19 
REMARK    5  A    between atoms: C_29  and  C_30 
REMARK    6  A    between atoms: C_30  and  O_31 
ROOT
HETATM    1  C   UNL     1     -43.279  53.918 -55.643  1.00  0.00     0.070 C 
HETATM    2  C   UNL     1     -42.972  55.394 -55.612  1.00  0.00     0.037 A 
HETATM    3  N   UNL     1     -43.356  56.109 -56.737  1.00  0.00    -0.192 N 
HETATM    4  C   UNL     1     -43.174  57.435 -56.873  1.00  0.00     0.726 A 
HETATM    5  N   UNL     1     -42.537  58.135 -55.885  1.00  0.00    -0.082 N 
HETATM    6  N   UNL     1     -42.406  59.438 -56.219  1.00  0.00    -0.128 NA
HETATM    7  C   UNL     1     -43.062  59.465 -57.389  1.00  0.00     0.226 A 
HETATM    8  N   UNL     1     -43.528  58.251 -57.828  1.00  0.00    -0.035 NA
HETATM    9  C   UNL     1     -42.032  57.526 -54.640  1.00  0.00     0.204 A 
HETATM   10  C   UNL     1     -42.345  56.031 -54.593  1.00  0.00     0.070 A 
HETATM   11  H   UNL     1     -43.848  55.607 -57.473  1.00  0.00     0.184 HD
ENDROOT
BRANCH   9  12
HETATM   12  C   UNL     1     -42.569  58.278 -53.414  1.00  0.00    -0.017 A 
HETATM   13  C   UNL     1     -41.713  58.775 -52.380  1.00  0.00    -0.017 A 
HETATM   14  C   UNL     1     -42.307  59.397 -51.249  1.00  0.00    -0.025 A 
HETATM   15  C   UNL     1     -40.297  58.686 -52.384  1.00  0.00     0.013 A 
HETATM   16  C   UNL     1     -41.510  59.881 -50.198  1.00  0.00     0.012 A 
HETATM   17  C   UNL     1     -43.700  59.529 -51.167  1.00  0.00     0.012 A 
HETATM   18  C   UNL     1     -40.123  59.766 -50.235  1.00  0.00     0.001 A 
HETATM   19  C   UNL     1     -39.517  59.170 -51.328  1.00  0.00     0.001 A 
HETATM   20  C   UNL     1     -44.526  59.048 -52.176  1.00  0.00     0.002 A 
HETATM   21  C   UNL     1     -43.970  58.423 -53.283  1.00  0.00     0.010 A 
ENDBRANCH   9  12
BRANCH  10  22
HETATM   22  C   UNL     1     -41.994  55.315 -53.353  1.00  0.00     0.293 C 
HETATM   23  O   UNL     1     -40.855  55.010 -53.036  1.00  0.00    -0.259 OA
BRANCH  22  24
HETATM   24  O   UNL     1     -43.120  55.068 -52.641  1.00  0.00    -0.323 OA
HETATM   25  C   UNL     1     -42.984  55.360 -51.248  1.00  0.00     0.213 C 
ENDBRANCH  22  24
ENDBRANCH  10  22
BRANCH   7  26
HETATM   26  S   UNL     1     -43.384  60.918 -58.289  1.00  0.00    -0.083 SA
BRANCH  26  27
HETATM   27  C   UNL     1     -42.650  60.533 -59.900  1.00  0.00     0.123 C 
BRANCH  27  28
HETATM   28  C   UNL     1     -41.498  61.468 -60.202  1.00  0.00    -0.027 A 
HETATM   29  C   UNL     1     -41.218  61.943 -61.494  1.00  0.00     0.041 A 
HETATM   30 CL   UNL     1     -42.138  61.449 -62.872  1.00  0.00    -0.084 Cl
HETATM   31  C   UNL     1     -40.170  62.845 -61.709  1.00  0.00     0.024 A 
HETATM   32  C   UNL     1     -39.390  63.285 -60.642  1.00  0.00     0.002 A 
HETATM   33  C   UNL     1     -39.654  62.824 -59.355  1.00  0.00     0.001 A 
HETATM   34  C   UNL     1     -40.701  61.927 -59.136  1.00  0.00     0.009 A 
ENDBRANCH  27  28
ENDBRANCH  26  27
ENDBRANCH   7  26
TORSDOF 6
ENDMDL
MODEL 10
REMARK VINA RESULT:      -6.8      3.272      5.710
REMARK  6 active torsions:
REMARK  status: ('A' for Active; 'I' for Inactive)
REMARK    1  A    between atoms: C_7  and  S_8 
REMARK    2  A    between atoms: S_8  and  C_9 
REMARK    3  A    between atoms: C_9  and  C_10 
REMARK    4  A    between atoms: C_18  and  C_19 
REMARK    5  A    between atoms: C_29  and  C_30 
REMARK    6  A    between atoms: C_30  and  O_31 
ROOT
HETATM    1  C   UNL     1     -43.824  57.308 -58.088  1.00  0.00     0.070 C 
HETATM    2  C   UNL     1     -43.910  57.200 -56.587  1.00  0.00     0.037 A 
HETATM    3  N   UNL     1     -43.423  56.020 -56.043  1.00  0.00    -0.192 N 
HETATM    4  C   UNL     1     -43.408  55.762 -54.723  1.00  0.00     0.726 A 
HETATM    5  N   UNL     1     -43.935  56.673 -53.849  1.00  0.00    -0.082 N 
HETATM    6  N   UNL     1     -43.872  56.220 -52.577  1.00  0.00    -0.128 NA
HETATM    7  C   UNL     1     -43.218  55.062 -52.755  1.00  0.00     0.226 A 
HETATM    8  N   UNL     1     -42.936  54.742 -54.060  1.00  0.00    -0.035 NA
HETATM    9  C   UNL     1     -44.525  57.961 -54.259  1.00  0.00     0.204 A 
HETATM   10  C   UNL     1     -44.436  58.148 -55.773  1.00  0.00     0.070 A 
HETATM   11  H   UNL     1     -43.011  55.340 -56.677  1.00  0.00     0.184 HD
ENDROOT
BRANCH   9  12
HETATM   12  C   UNL     1     -43.883  59.121 -53.485  1.00  0.00    -0.017 A 
HETATM   13  C   UNL     1     -44.655  60.069 -52.740  1.00  0.00    -0.017 A 
HETATM   14  C   UNL     1     -43.978  61.149 -52.112  1.00  0.00    -0.025 A 
HETATM   15  C   UNL     1     -46.064  60.026 -52.583  1.00  0.00     0.013 A 
HETATM   16  C   UNL     1     -44.694  62.117 -51.388  1.00  0.00     0.012 A 
HETATM   17  C   UNL     1     -42.585  61.264 -52.215  1.00  0.00     0.012 A 
HETATM   18  C   UNL     1     -46.079  62.046 -51.266  1.00  0.00     0.001 A 
HETATM   19  C   UNL     1     -46.764  60.999 -51.861  1.00  0.00     0.001 A 
HETATM   20  C   UNL     1     -41.840  60.339 -52.936  1.00  0.00     0.002 A 
HETATM   21  C   UNL     1     -42.481  59.283 -53.571  1.00  0.00     0.010 A 
ENDBRANCH   9  12
BRANCH  10  22
HETATM   22  C   UNL     1     -44.890  59.443 -56.313  1.00  0.00     0.293 C 
HETATM   23  O   UNL     1     -44.143  60.369 -56.593  1.00  0.00    -0.259 OA
BRANCH  22  24
HETATM   24  O   UNL     1     -46.237  59.428 -56.449  1.00  0.00    -0.323 OA
HETATM   25  C   UNL     1     -46.688  60.020 -57.669  1.00  0.00     0.213 C 
ENDBRANCH  22  24
ENDBRANCH  10  22
BRANCH   7  26
HETATM   26  S   UNL     1     -42.684  54.038 -51.454  1.00  0.00    -0.083 SA
BRANCH  26  27
HETATM   27  C   UNL     1     -40.893  53.982 -51.729  1.00  0.00     0.123 C 
BRANCH  27  28
HETATM   28  C   UNL     1     -40.418  52.553 -51.878  1.00  0.00    -0.027 A 
HETATM   29  C   UNL     1     -40.075  51.987 -53.117  1.00  0.00     0.041 A 
HETATM   30 CL   UNL     1     -40.223  52.865 -54.598  1.00  0.00    -0.084 Cl
HETATM   31  C   UNL     1     -39.593  50.675 -53.191  1.00  0.00     0.024 A 
HETATM   32  C   UNL     1     -39.447  49.912 -52.034  1.00  0.00     0.002 A 
HETATM   33  C   UNL     1     -39.783  50.457 -50.798  1.00  0.00     0.001 A 
HETATM   34  C   UNL     1     -40.260  51.767 -50.720  1.00  0.00     0.009 A 
ENDBRANCH  27  28
ENDBRANCH  26  27
ENDBRANCH   7  26
TORSDOF 6
ENDMDL
