MODEL 1
REMARK VINA RESULT:      -8.3      0.000      0.000
REMARK  8 active torsions:
REMARK  status: ('A' for Active; 'I' for Inactive)
REMARK    1  A    between atoms: C_4  and  C_5 
REMARK    2  A    between atoms: C_5  and  N_6 
REMARK       I    between atoms: N_6  and  C_7 
REMARK    3  A    between atoms: C_7  and  C_8 
REMARK    4  A    between atoms: C_11  and  C_12 
REMARK    5  A    between atoms: C_12  and  O_13 
REMARK    6  A    between atoms: O_13  and  C_14 
REMARK    7  A    between atoms: C_25  and  C_26 
REMARK    8  A    between atoms: C_26  and  O_27 
ROOT
HETATM    1  N   UNL     1     -44.281  56.920 -54.190  1.00  0.00    -0.351 N 
HETATM    2  C   UNL     1     -43.389  57.275 -53.208  1.00  0.00     0.251 C 
HETATM    3  O   UNL     1     -43.069  58.439 -52.993  1.00  0.00    -0.268 OA
HETATM    4  H   UNL     1     -44.438  55.958 -54.466  1.00  0.00     0.163 HD
ENDROOT
BRANCH   2   5
HETATM    5  C   UNL     1     -42.772  56.170 -52.422  1.00  0.00     0.032 A 
HETATM    6  C   UNL     1     -41.650  56.467 -51.639  1.00  0.00     0.017 A 
HETATM    7  C   UNL     1     -41.017  55.467 -50.899  1.00  0.00     0.010 A 
HETATM    8  C   UNL     1     -41.497  54.151 -50.930  1.00  0.00    -0.034 A 
HETATM    9  C   UNL     1     -42.646  53.864 -51.682  1.00  0.00     0.010 A 
HETATM   10  C   UNL     1     -43.280  54.866 -52.426  1.00  0.00     0.017 A 
BRANCH   8  11
HETATM   11  C   UNL     1     -40.796  53.070 -50.142  1.00  0.00     0.214 C 
BRANCH  11  12
HETATM   12  O   UNL     1     -39.583  52.731 -50.809  1.00  0.00    -0.347 OA
BRANCH  12  13
HETATM   13  C   UNL     1     -39.644  51.711 -51.718  1.00  0.00     0.069 A 
HETATM   14  C   UNL     1     -39.555  50.346 -51.434  1.00  0.00     0.037 A 
HETATM   15  C   UNL     1     -39.636  49.406 -52.466  1.00  0.00     0.003 A 
HETATM   16  C   UNL     1     -39.803  49.823 -53.785  1.00  0.00     0.000 A 
HETATM   17  C   UNL     1     -39.889  51.182 -54.076  1.00  0.00     0.003 A 
HETATM   18  C   UNL     1     -39.810  52.120 -53.044  1.00  0.00     0.037 A 
ENDBRANCH  12  13
ENDBRANCH  11  12
ENDBRANCH   8  11
ENDBRANCH   2   5
BRANCH   1  19
HETATM   19  C   UNL     1     -44.835  57.918 -55.079  1.00  0.00     0.182 C 
BRANCH  19  20
HETATM   20  C   UNL     1     -44.211  57.878 -56.458  1.00  0.00     0.052 A 
HETATM   21  N   UNL     1     -45.021  57.657 -57.530  1.00  0.00    -0.256 NA
HETATM   22  C   UNL     1     -44.456  57.617 -58.767  1.00  0.00     0.040 A 
HETATM   23  C   UNL     1     -45.415  57.376 -59.897  1.00  0.00     0.071 C 
HETATM   24  C   UNL     1     -43.080  57.781 -58.984  1.00  0.00    -0.006 A 
HETATM   25  C   UNL     1     -42.279  58.008 -57.856  1.00  0.00     0.014 A 
HETATM   26  C   UNL     1     -42.841  58.056 -56.586  1.00  0.00     0.029 A 
BRANCH  24  27
HETATM   27  C   UNL     1     -42.466  57.769 -60.364  1.00  0.00     0.149 C 
HETATM   28  C   UNL     1     -41.920  59.141 -60.744  1.00  0.00     0.044 C 
BRANCH  27  29
HETATM   29  O   UNL     1     -41.398  56.820 -60.410  1.00  0.00    -0.391 OA
HETATM   30  H   UNL     1     -40.622  57.237 -59.999  1.00  0.00     0.210 HD
ENDBRANCH  27  29
ENDBRANCH  24  27
ENDBRANCH  19  20
ENDBRANCH   1  19
TORSDOF 8
ENDMDL
MODEL 2
REMARK VINA RESULT:      -8.2      4.609      7.112
REMARK  8 active torsions:
REMARK  status: ('A' for Active; 'I' for Inactive)
REMARK    1  A    between atoms: C_4  and  C_5 
REMARK    2  A    between atoms: C_5  and  N_6 
REMARK       I    between atoms: N_6  and  C_7 
REMARK    3  A    between atoms: C_7  and  C_8 
REMARK    4  A    between atoms: C_11  and  C_12 
REMARK    5  A    between atoms: C_12  and  O_13 
REMARK    6  A    between atoms: O_13  and  C_14 
REMARK    7  A    between atoms: C_25  and  C_26 
REMARK    8  A    between atoms: C_26  and  O_27 
ROOT
HETATM    1  N   UNL     1     -44.762  57.917 -50.881  1.00  0.00    -0.351 N 
HETATM    2  C   UNL     1     -43.572  57.698 -51.530  1.00  0.00     0.251 C 
HETATM    3  O   UNL     1     -43.136  58.458 -52.389  1.00  0.00    -0.268 OA
HETATM    4  H   UNL     1     -45.194  57.225 -50.280  1.00  0.00     0.163 HD
ENDROOT
BRANCH   2   5
HETATM    5  C   UNL     1     -42.829  56.454 -51.183  1.00  0.00     0.032 A 
HETATM    6  C   UNL     1     -41.667  56.576 -50.411  1.00  0.00     0.017 A 
HETATM    7  C   UNL     1     -40.919  55.446 -50.075  1.00  0.00     0.010 A 
HETATM    8  C   UNL     1     -41.321  54.175 -50.504  1.00  0.00    -0.034 A 
HETATM    9  C   UNL     1     -42.509  54.051 -51.241  1.00  0.00     0.010 A 
HETATM   10  C   UNL     1     -43.259  55.183 -51.581  1.00  0.00     0.017 A 
BRANCH   8  11
HETATM   11  C   UNL     1     -40.497  52.959 -50.153  1.00  0.00     0.214 C 
BRANCH  11  12
HETATM   12  O   UNL     1     -39.460  52.815 -51.119  1.00  0.00    -0.347 OA
BRANCH  12  13
HETATM   13  C   UNL     1     -39.673  51.909 -52.121  1.00  0.00     0.069 A 
HETATM   14  C   UNL     1     -40.047  52.204 -53.434  1.00  0.00     0.037 A 
HETATM   15  C   UNL     1     -40.228  51.174 -54.363  1.00  0.00     0.003 A 
HETATM   16  C   UNL     1     -40.039  49.846 -53.984  1.00  0.00     0.000 A 
HETATM   17  C   UNL     1     -39.668  49.545 -52.676  1.00  0.00     0.003 A 
HETATM   18  C   UNL     1     -39.486  50.575 -51.750  1.00  0.00     0.037 A 
ENDBRANCH  12  13
ENDBRANCH  11  12
ENDBRANCH   8  11
ENDBRANCH   2   5
BRANCH   1  19
HETATM   19  C   UNL     1     -45.605  59.036 -51.243  1.00  0.00     0.182 C 
BRANCH  19  20
HETATM   20  C   UNL     1     -45.456  60.206 -50.293  1.00  0.00     0.052 A 
HETATM   21  N   UNL     1     -45.686  59.998 -48.967  1.00  0.00    -0.256 NA
HETATM   22  C   UNL     1     -45.557  61.053 -48.118  1.00  0.00     0.040 A 
HETATM   23  C   UNL     1     -45.820  60.742 -46.672  1.00  0.00     0.071 C 
HETATM   24  C   UNL     1     -45.209  62.342 -48.548  1.00  0.00    -0.006 A 
HETATM   25  C   UNL     1     -44.979  62.517 -49.920  1.00  0.00     0.014 A 
HETATM   26  C   UNL     1     -45.103  61.448 -50.800  1.00  0.00     0.029 A 
BRANCH  24  27
HETATM   27  C   UNL     1     -45.035  63.501 -47.594  1.00  0.00     0.149 C 
HETATM   28  C   UNL     1     -44.070  64.542 -48.151  1.00  0.00     0.044 C 
BRANCH  27  29
HETATM   29  O   UNL     1     -46.298  64.125 -47.355  1.00  0.00    -0.391 OA
HETATM   30  H   UNL     1     -46.976  63.584 -47.794  1.00  0.00     0.210 HD
ENDBRANCH  27  29
ENDBRANCH  24  27
ENDBRANCH  19  20
ENDBRANCH   1  19
TORSDOF 8
ENDMDL
MODEL 3
REMARK VINA RESULT:      -8.1      1.429      2.264
REMARK  8 active torsions:
REMARK  status: ('A' for Active; 'I' for Inactive)
REMARK    1  A    between atoms: C_4  and  C_5 
REMARK    2  A    between atoms: C_5  and  N_6 
REMARK       I    between atoms: N_6  and  C_7 
REMARK    3  A    between atoms: C_7  and  C_8 
REMARK    4  A    between atoms: C_11  and  C_12 
REMARK    5  A    between atoms: C_12  and  O_13 
REMARK    6  A    between atoms: O_13  and  C_14 
REMARK    7  A    between atoms: C_25  and  C_26 
REMARK    8  A    between atoms: C_26  and  O_27 
ROOT
HETATM    1  N   UNL     1     -44.037  57.324 -54.021  1.00  0.00    -0.351 N 
HETATM    2  C   UNL     1     -43.998  57.257 -52.650  1.00  0.00     0.251 C 
HETATM    3  O   UNL     1     -44.634  58.022 -51.931  1.00  0.00    -0.268 OA
HETATM    4  H   UNL     1     -43.407  56.795 -54.613  1.00  0.00     0.163 HD
ENDROOT
BRANCH   2   5
HETATM    5  C   UNL     1     -43.100  56.233 -52.046  1.00  0.00     0.032 A 
HETATM    6  C   UNL     1     -43.520  54.897 -52.068  1.00  0.00     0.017 A 
HETATM    7  C   UNL     1     -42.730  53.898 -51.497  1.00  0.00     0.010 A 
HETATM    8  C   UNL     1     -41.506  54.218 -50.894  1.00  0.00    -0.034 A 
HETATM    9  C   UNL     1     -41.069  55.551 -50.911  1.00  0.00     0.010 A 
HETATM   10  C   UNL     1     -41.861  56.554 -51.481  1.00  0.00     0.017 A 
BRANCH   8  11
HETATM   11  C   UNL     1     -40.665  53.134 -50.261  1.00  0.00     0.214 C 
BRANCH  11  12
HETATM   12  O   UNL     1     -39.544  52.877 -51.101  1.00  0.00    -0.347 OA
BRANCH  12  13
HETATM   13  C   UNL     1     -39.656  51.834 -51.979  1.00  0.00     0.069 A 
HETATM   14  C   UNL     1     -39.494  50.480 -51.676  1.00  0.00     0.037 A 
HETATM   15  C   UNL     1     -39.642  49.513 -52.676  1.00  0.00     0.003 A 
HETATM   16  C   UNL     1     -39.949  49.893 -53.981  1.00  0.00     0.000 A 
HETATM   17  C   UNL     1     -40.109  51.241 -54.290  1.00  0.00     0.003 A 
HETATM   18  C   UNL     1     -39.963  52.206 -53.291  1.00  0.00     0.037 A 
ENDBRANCH  12  13
ENDBRANCH  11  12
ENDBRANCH   8  11
ENDBRANCH   2   5
BRANCH   1  19
HETATM   19  C   UNL     1     -44.787  58.365 -54.688  1.00  0.00     0.182 C 
BRANCH  19  20
HETATM   20  C   UNL     1     -45.052  58.048 -56.144  1.00  0.00     0.052 A 
HETATM   21  N   UNL     1     -44.049  57.495 -56.881  1.00  0.00    -0.256 NA
HETATM   22  C   UNL     1     -44.290  57.216 -58.190  1.00  0.00     0.040 A 
HETATM   23  C   UNL     1     -43.137  56.602 -58.932  1.00  0.00     0.071 C 
HETATM   24  C   UNL     1     -45.517  57.482 -58.815  1.00  0.00    -0.006 A 
HETATM   25  C   UNL     1     -46.525  58.050 -58.025  1.00  0.00     0.014 A 
HETATM   26  C   UNL     1     -46.297  58.337 -56.685  1.00  0.00     0.029 A 
BRANCH  24  27
HETATM   27  C   UNL     1     -45.786  57.138 -60.262  1.00  0.00     0.149 C 
HETATM   28  C   UNL     1     -47.106  56.391 -60.421  1.00  0.00     0.044 C 
BRANCH  27  29
HETATM   29  O   UNL     1     -45.838  58.335 -61.042  1.00  0.00    -0.391 OA
HETATM   30  H   UNL     1     -45.742  59.084 -60.430  1.00  0.00     0.210 HD
ENDBRANCH  27  29
ENDBRANCH  24  27
ENDBRANCH  19  20
ENDBRANCH   1  19
TORSDOF 8
ENDMDL
MODEL 4
REMARK VINA RESULT:      -7.9      2.711      3.661
REMARK  8 active torsions:
REMARK  status: ('A' for Active; 'I' for Inactive)
REMARK    1  A    between atoms: C_4  and  C_5 
REMARK    2  A    between atoms: C_5  and  N_6 
REMARK       I    between atoms: N_6  and  C_7 
REMARK    3  A    between atoms: C_7  and  C_8 
REMARK    4  A    between atoms: C_11  and  C_12 
REMARK    5  A    between atoms: C_12  and  O_13 
REMARK    6  A    between atoms: O_13  and  C_14 
REMARK    7  A    between atoms: C_25  and  C_26 
REMARK    8  A    between atoms: C_26  and  O_27 
ROOT
HETATM    1  N   UNL     1     -42.244  56.835 -57.541  1.00  0.00    -0.351 N 
HETATM    2  C   UNL     1     -42.797  55.660 -57.091  1.00  0.00     0.251 C 
HETATM    3  O   UNL     1     -43.589  55.003 -57.759  1.00  0.00    -0.268 OA
HETATM    4  H   UNL     1     -41.707  57.451 -56.943  1.00  0.00     0.163 HD
ENDROOT
BRANCH   2   5
HETATM    5  C   UNL     1     -42.431  55.222 -55.715  1.00  0.00     0.032 A 
HETATM    6  C   UNL     1     -41.302  55.799 -55.120  1.00  0.00     0.017 A 
HETATM    7  C   UNL     1     -40.900  55.410 -53.841  1.00  0.00     0.010 A 
HETATM    8  C   UNL     1     -41.619  54.437 -53.136  1.00  0.00    -0.034 A 
HETATM    9  C   UNL     1     -42.773  53.891 -53.717  1.00  0.00     0.010 A 
HETATM   10  C   UNL     1     -43.177  54.279 -55.001  1.00  0.00     0.017 A 
BRANCH   8  11
HETATM   11  C   UNL     1     -41.167  54.008 -51.760  1.00  0.00     0.214 C 
BRANCH  11  12
HETATM   12  O   UNL     1     -39.859  53.452 -51.862  1.00  0.00    -0.347 OA
BRANCH  12  13
HETATM   13  C   UNL     1     -39.776  52.125 -52.183  1.00  0.00     0.069 A 
HETATM   14  C   UNL     1     -39.714  51.590 -53.472  1.00  0.00     0.037 A 
HETATM   15  C   UNL     1     -39.628  50.206 -53.656  1.00  0.00     0.003 A 
HETATM   16  C   UNL     1     -39.606  49.351 -52.556  1.00  0.00     0.000 A 
HETATM   17  C   UNL     1     -39.671  49.878 -51.268  1.00  0.00     0.003 A 
HETATM   18  C   UNL     1     -39.755  51.260 -51.086  1.00  0.00     0.037 A 
ENDBRANCH  12  13
ENDBRANCH  11  12
ENDBRANCH   8  11
ENDBRANCH   2   5
BRANCH   1  19
HETATM   19  C   UNL     1     -42.637  57.395 -58.815  1.00  0.00     0.182 C 
BRANCH  19  20
HETATM   20  C   UNL     1     -42.189  58.831 -58.982  1.00  0.00     0.052 A 
HETATM   21  N   UNL     1     -42.195  59.372 -60.232  1.00  0.00    -0.256 NA
HETATM   22  C   UNL     1     -41.786  60.661 -60.378  1.00  0.00     0.040 A 
HETATM   23  C   UNL     1     -41.828  61.186 -61.784  1.00  0.00     0.071 C 
HETATM   24  C   UNL     1     -41.350  61.450 -59.304  1.00  0.00    -0.006 A 
HETATM   25  C   UNL     1     -41.359  60.860 -58.033  1.00  0.00     0.014 A 
HETATM   26  C   UNL     1     -41.778  59.545 -57.866  1.00  0.00     0.029 A 
BRANCH  24  27
HETATM   27  C   UNL     1     -40.929  62.893 -59.470  1.00  0.00     0.149 C 
HETATM   28  C   UNL     1     -41.335  63.734 -58.265  1.00  0.00     0.044 C 
BRANCH  27  29
HETATM   29  O   UNL     1     -39.511  62.968 -59.627  1.00  0.00    -0.391 OA
HETATM   30  H   UNL     1     -39.327  63.010 -60.581  1.00  0.00     0.210 HD
ENDBRANCH  27  29
ENDBRANCH  24  27
ENDBRANCH  19  20
ENDBRANCH   1  19
TORSDOF 8
ENDMDL
MODEL 5
REMARK VINA RESULT:      -7.6     15.168     17.651
REMARK  8 active torsions:
REMARK  status: ('A' for Active; 'I' for Inactive)
REMARK    1  A    between atoms: C_4  and  C_5 
REMARK    2  A    between atoms: C_5  and  N_6 
REMARK       I    between atoms: N_6  and  C_7 
REMARK    3  A    between atoms: C_7  and  C_8 
REMARK    4  A    between atoms: C_11  and  C_12 
REMARK    5  A    between atoms: C_12  and  O_13 
REMARK    6  A    between atoms: O_13  and  C_14 
REMARK    7  A    between atoms: C_25  and  C_26 
REMARK    8  A    between atoms: C_26  and  O_27 
ROOT
HETATM    1  N   UNL     1     -34.639  41.778 -54.456  1.00  0.00    -0.351 N 
HETATM    2  C   UNL     1     -35.062  41.793 -53.150  1.00  0.00     0.251 C 
HETATM    3  O   UNL     1     -36.046  42.426 -52.780  1.00  0.00    -0.268 OA
HETATM    4  H   UNL     1     -33.752  41.378 -54.740  1.00  0.00     0.163 HD
ENDROOT
BRANCH   2   5
HETATM    5  C   UNL     1     -34.242  41.037 -52.162  1.00  0.00     0.032 A 
HETATM    6  C   UNL     1     -34.853  40.643 -50.965  1.00  0.00     0.017 A 
HETATM    7  C   UNL     1     -34.126  39.952 -49.995  1.00  0.00     0.010 A 
HETATM    8  C   UNL     1     -32.776  39.642 -50.204  1.00  0.00    -0.034 A 
HETATM    9  C   UNL     1     -32.179  40.002 -51.422  1.00  0.00     0.010 A 
HETATM   10  C   UNL     1     -32.905  40.697 -52.395  1.00  0.00     0.017 A 
BRANCH   8  11
HETATM   11  C   UNL     1     -31.991  38.910 -49.141  1.00  0.00     0.214 C 
BRANCH  11  12
HETATM   12  O   UNL     1     -31.042  39.809 -48.575  1.00  0.00    -0.347 OA
BRANCH  12  13
HETATM   13  C   UNL     1     -30.871  39.753 -47.219  1.00  0.00     0.069 A 
HETATM   14  C   UNL     1     -30.032  40.570 -46.459  1.00  0.00     0.037 A 
HETATM   15  C   UNL     1     -29.957  40.404 -45.072  1.00  0.00     0.003 A 
HETATM   16  C   UNL     1     -30.716  39.422 -44.439  1.00  0.00     0.000 A 
HETATM   17  C   UNL     1     -31.553  38.602 -45.192  1.00  0.00     0.003 A 
HETATM   18  C   UNL     1     -31.628  38.769 -46.577  1.00  0.00     0.037 A 
ENDBRANCH  12  13
ENDBRANCH  11  12
ENDBRANCH   8  11
ENDBRANCH   2   5
BRANCH   1  19
HETATM   19  C   UNL     1     -35.306  42.581 -55.458  1.00  0.00     0.182 C 
BRANCH  19  20
HETATM   20  C   UNL     1     -35.798  41.758 -56.629  1.00  0.00     0.052 A 
HETATM   21  N   UNL     1     -35.202  40.559 -56.875  1.00  0.00    -0.256 NA
HETATM   22  C   UNL     1     -35.643  39.825 -57.932  1.00  0.00     0.040 A 
HETATM   23  C   UNL     1     -34.941  38.512 -58.133  1.00  0.00     0.071 C 
HETATM   24  C   UNL     1     -36.674  40.253 -58.782  1.00  0.00    -0.006 A 
HETATM   25  C   UNL     1     -37.264  41.491 -58.496  1.00  0.00     0.014 A 
HETATM   26  C   UNL     1     -36.827  42.252 -57.418  1.00  0.00     0.029 A 
BRANCH  24  27
HETATM   27  C   UNL     1     -37.181  39.416 -59.934  1.00  0.00     0.149 C 
HETATM   28  C   UNL     1     -38.574  38.862 -59.650  1.00  0.00     0.044 C 
BRANCH  27  29
HETATM   29  O   UNL     1     -37.234  40.209 -61.122  1.00  0.00    -0.391 OA
HETATM   30  H   UNL     1     -38.140  40.146 -61.471  1.00  0.00     0.210 HD
ENDBRANCH  27  29
ENDBRANCH  24  27
ENDBRANCH  19  20
ENDBRANCH   1  19
TORSDOF 8
ENDMDL
MODEL 6
REMARK VINA RESULT:      -7.6      1.930      2.500
REMARK  8 active torsions:
REMARK  status: ('A' for Active; 'I' for Inactive)
REMARK    1  A    between atoms: C_4  and  C_5 
REMARK    2  A    between atoms: C_5  and  N_6 
REMARK       I    between atoms: N_6  and  C_7 
REMARK    3  A    between atoms: C_7  and  C_8 
REMARK    4  A    between atoms: C_11  and  C_12 
REMARK    5  A    between atoms: C_12  and  O_13 
REMARK    6  A    between atoms: O_13  and  C_14 
REMARK    7  A    between atoms: C_25  and  C_26 
REMARK    8  A    between atoms: C_26  and  O_27 
ROOT
HETATM    1  N   UNL     1     -42.501  58.800 -53.681  1.00  0.00    -0.351 N 
HETATM    2  C   UNL     1     -41.596  58.714 -52.652  1.00  0.00     0.251 C 
HETATM    3  O   UNL     1     -40.975  59.685 -52.233  1.00  0.00    -0.268 OA
HETATM    4  H   UNL     1     -42.906  57.984 -54.125  1.00  0.00     0.163 HD
ENDROOT
BRANCH   2   5
HETATM    5  C   UNL     1     -41.349  57.362 -52.078  1.00  0.00     0.032 A 
HETATM    6  C   UNL     1     -41.327  56.269 -52.954  1.00  0.00     0.017 A 
HETATM    7  C   UNL     1     -41.123  54.977 -52.468  1.00  0.00     0.010 A 
HETATM    8  C   UNL     1     -40.938  54.754 -51.097  1.00  0.00    -0.034 A 
HETATM    9  C   UNL     1     -40.919  55.855 -50.227  1.00  0.00     0.010 A 
HETATM   10  C   UNL     1     -41.126  57.151 -50.713  1.00  0.00     0.017 A 
BRANCH   8  11
HETATM   11  C   UNL     1     -40.737  53.351 -50.577  1.00  0.00     0.214 C 
BRANCH  11  12
HETATM   12  O   UNL     1     -39.518  52.838 -51.107  1.00  0.00    -0.347 OA
BRANCH  12  13
HETATM   13  C   UNL     1     -39.612  51.741 -51.919  1.00  0.00     0.069 A 
HETATM   14  C   UNL     1     -39.480  50.408 -51.523  1.00  0.00     0.037 A 
HETATM   15  C   UNL     1     -39.603  49.379 -52.463  1.00  0.00     0.003 A 
HETATM   16  C   UNL     1     -39.855  49.677 -53.801  1.00  0.00     0.000 A 
HETATM   17  C   UNL     1     -39.984  51.004 -54.203  1.00  0.00     0.003 A 
HETATM   18  C   UNL     1     -39.863  52.030 -53.263  1.00  0.00     0.037 A 
ENDBRANCH  12  13
ENDBRANCH  11  12
ENDBRANCH   8  11
ENDBRANCH   2   5
BRANCH   1  19
HETATM   19  C   UNL     1     -42.712  60.051 -54.376  1.00  0.00     0.182 C 
BRANCH  19  20
HETATM   20  C   UNL     1     -42.548  59.918 -55.875  1.00  0.00     0.052 A 
HETATM   21  N   UNL     1     -41.803  60.850 -56.531  1.00  0.00    -0.256 NA
HETATM   22  C   UNL     1     -41.662  60.730 -57.879  1.00  0.00     0.040 A 
HETATM   23  C   UNL     1     -40.821  61.792 -58.528  1.00  0.00     0.071 C 
HETATM   24  C   UNL     1     -42.257  59.699 -58.620  1.00  0.00    -0.006 A 
HETATM   25  C   UNL     1     -43.015  58.758 -57.910  1.00  0.00     0.014 A 
HETATM   26  C   UNL     1     -43.165  58.864 -56.533  1.00  0.00     0.029 A 
BRANCH  24  27
HETATM   27  C   UNL     1     -42.068  59.553 -60.113  1.00  0.00     0.149 C 
HETATM   28  C   UNL     1     -42.005  58.087 -60.526  1.00  0.00     0.044 C 
BRANCH  27  29
HETATM   29  O   UNL     1     -43.152  60.180 -60.801  1.00  0.00    -0.391 OA
HETATM   30  H   UNL     1     -43.784  59.482 -61.043  1.00  0.00     0.210 HD
ENDBRANCH  27  29
ENDBRANCH  24  27
ENDBRANCH  19  20
ENDBRANCH   1  19
TORSDOF 8
ENDMDL
MODEL 7
REMARK VINA RESULT:      -7.6      2.296      3.563
REMARK  8 active torsions:
REMARK  status: ('A' for Active; 'I' for Inactive)
REMARK    1  A    between atoms: C_4  and  C_5 
REMARK    2  A    between atoms: C_5  and  N_6 
REMARK       I    between atoms: N_6  and  C_7 
REMARK    3  A    between atoms: C_7  and  C_8 
REMARK    4  A    between atoms: C_11  and  C_12 
REMARK    5  A    between atoms: C_12  and  O_13 
REMARK    6  A    between atoms: O_13  and  C_14 
REMARK    7  A    between atoms: C_25  and  C_26 
REMARK    8  A    between atoms: C_26  and  O_27 
ROOT
HETATM    1  N   UNL     1     -44.048  57.101 -57.633  1.00  0.00    -0.351 N 
HETATM    2  C   UNL     1     -43.233  55.995 -57.635  1.00  0.00     0.251 C 
HETATM    3  O   UNL     1     -42.929  55.398 -58.663  1.00  0.00    -0.268 OA
HETATM    4  H   UNL     1     -44.417  57.508 -56.782  1.00  0.00     0.163 HD
ENDROOT
BRANCH   2   5
HETATM    5  C   UNL     1     -42.755  55.504 -56.313  1.00  0.00     0.032 A 
HETATM    6  C   UNL     1     -43.244  54.275 -55.852  1.00  0.00     0.017 A 
HETATM    7  C   UNL     1     -42.848  53.776 -54.610  1.00  0.00     0.010 A 
HETATM    8  C   UNL     1     -41.955  54.497 -53.807  1.00  0.00    -0.034 A 
HETATM    9  C   UNL     1     -41.434  55.707 -54.289  1.00  0.00     0.010 A 
HETATM   10  C   UNL     1     -41.832  56.210 -55.534  1.00  0.00     0.017 A 
BRANCH   8  11
HETATM   11  C   UNL     1     -41.546  53.960 -52.456  1.00  0.00     0.214 C 
BRANCH  11  12
HETATM   12  O   UNL     1     -40.192  53.524 -52.530  1.00  0.00    -0.347 OA
BRANCH  12  13
HETATM   13  C   UNL     1     -39.975  52.174 -52.475  1.00  0.00     0.069 A 
HETATM   14  C   UNL     1     -39.757  51.420 -51.320  1.00  0.00     0.037 A 
HETATM   15  C   UNL     1     -39.551  50.039 -51.410  1.00  0.00     0.003 A 
HETATM   16  C   UNL     1     -39.559  49.407 -52.652  1.00  0.00     0.000 A 
HETATM   17  C   UNL     1     -39.772  50.154 -53.807  1.00  0.00     0.003 A 
HETATM   18  C   UNL     1     -39.980  51.532 -53.716  1.00  0.00     0.037 A 
ENDBRANCH  12  13
ENDBRANCH  11  12
ENDBRANCH   8  11
ENDBRANCH   2   5
BRANCH   1  19
HETATM   19  C   UNL     1     -44.653  57.573 -58.859  1.00  0.00     0.182 C 
BRANCH  19  20
HETATM   20  C   UNL     1     -43.886  58.720 -59.482  1.00  0.00     0.052 A 
HETATM   21  N   UNL     1     -44.360  59.985 -59.314  1.00  0.00    -0.256 NA
HETATM   22  C   UNL     1     -43.671  61.012 -59.880  1.00  0.00     0.040 A 
HETATM   23  C   UNL     1     -44.254  62.376 -59.643  1.00  0.00     0.071 C 
HETATM   24  C   UNL     1     -42.504  60.825 -60.634  1.00  0.00    -0.006 A 
HETATM   25  C   UNL     1     -42.045  59.509 -60.784  1.00  0.00     0.014 A 
HETATM   26  C   UNL     1     -42.736  58.449 -60.210  1.00  0.00     0.029 A 
BRANCH  24  27
HETATM   27  C   UNL     1     -41.725  61.975 -61.231  1.00  0.00     0.149 C 
HETATM   28  C   UNL     1     -40.567  62.391 -60.330  1.00  0.00     0.044 C 
BRANCH  27  29
HETATM   29  O   UNL     1     -41.203  61.596 -62.506  1.00  0.00    -0.391 OA
HETATM   30  H   UNL     1     -41.881  61.807 -63.171  1.00  0.00     0.210 HD
ENDBRANCH  27  29
ENDBRANCH  24  27
ENDBRANCH  19  20
ENDBRANCH   1  19
TORSDOF 8
ENDMDL
MODEL 8
REMARK VINA RESULT:      -7.6     15.062     18.780
REMARK  8 active torsions:
REMARK  status: ('A' for Active; 'I' for Inactive)
REMARK    1  A    between atoms: C_4  and  C_5 
REMARK    2  A    between atoms: C_5  and  N_6 
REMARK       I    between atoms: N_6  and  C_7 
REMARK    3  A    between atoms: C_7  and  C_8 
REMARK    4  A    between atoms: C_11  and  C_12 
REMARK    5  A    between atoms: C_12  and  O_13 
REMARK    6  A    between atoms: O_13  and  C_14 
REMARK    7  A    between atoms: C_25  and  C_26 
REMARK    8  A    between atoms: C_26  and  O_27 
ROOT
HETATM    1  N   UNL     1     -36.355  41.389 -54.834  1.00  0.00    -0.351 N 
HETATM    2  C   UNL     1     -35.776  41.929 -55.957  1.00  0.00     0.251 C 
HETATM    3  O   UNL     1     -35.023  42.896 -55.913  1.00  0.00    -0.268 OA
HETATM    4  H   UNL     1     -37.085  40.687 -54.878  1.00  0.00     0.163 HD
ENDROOT
BRANCH   2   5
HETATM    5  C   UNL     1     -36.136  41.317 -57.266  1.00  0.00     0.032 A 
HETATM    6  C   UNL     1     -36.838  42.103 -58.189  1.00  0.00     0.017 A 
HETATM    7  C   UNL     1     -37.221  41.575 -59.422  1.00  0.00     0.010 A 
HETATM    8  C   UNL     1     -36.909  40.250 -59.755  1.00  0.00    -0.034 A 
HETATM    9  C   UNL     1     -36.170  39.478 -58.847  1.00  0.00     0.010 A 
HETATM   10  C   UNL     1     -35.787  40.006 -57.608  1.00  0.00     0.017 A 
BRANCH   8  11
HETATM   11  C   UNL     1     -37.343  39.680 -61.084  1.00  0.00     0.214 C 
BRANCH  11  12
HETATM   12  O   UNL     1     -37.844  38.363 -60.874  1.00  0.00    -0.347 OA
BRANCH  12  13
HETATM   13  C   UNL     1     -39.093  38.092 -61.363  1.00  0.00     0.069 A 
HETATM   14  C   UNL     1     -39.418  37.830 -62.696  1.00  0.00     0.037 A 
HETATM   15  C   UNL     1     -40.743  37.565 -63.058  1.00  0.00     0.003 A 
HETATM   16  C   UNL     1     -41.747  37.562 -62.093  1.00  0.00     0.000 A 
HETATM   17  C   UNL     1     -41.431  37.825 -60.763  1.00  0.00     0.003 A 
HETATM   18  C   UNL     1     -40.107  38.089 -60.402  1.00  0.00     0.037 A 
ENDBRANCH  12  13
ENDBRANCH  11  12
ENDBRANCH   8  11
ENDBRANCH   2   5
BRANCH   1  19
HETATM   19  C   UNL     1     -36.156  41.996 -53.536  1.00  0.00     0.182 C 
BRANCH  19  20
HETATM   20  C   UNL     1     -35.038  41.340 -52.754  1.00  0.00     0.052 A 
HETATM   21  N   UNL     1     -34.026  40.745 -53.444  1.00  0.00    -0.256 NA
HETATM   22  C   UNL     1     -33.027  40.151 -52.737  1.00  0.00     0.040 A 
HETATM   23  C   UNL     1     -31.945  39.524 -53.569  1.00  0.00     0.071 C 
HETATM   24  C   UNL     1     -32.999  40.116 -51.335  1.00  0.00    -0.006 A 
HETATM   25  C   UNL     1     -34.057  40.739 -50.660  1.00  0.00     0.014 A 
HETATM   26  C   UNL     1     -35.084  41.354 -51.367  1.00  0.00     0.029 A 
BRANCH  24  27
HETATM   27  C   UNL     1     -31.868  39.483 -50.558  1.00  0.00     0.149 C 
HETATM   28  C   UNL     1     -31.918  39.873 -49.084  1.00  0.00     0.044 C 
BRANCH  27  29
HETATM   29  O   UNL     1     -31.946  38.060 -50.661  1.00  0.00    -0.391 OA
HETATM   30  H   UNL     1     -31.919  37.702 -49.757  1.00  0.00     0.210 HD
ENDBRANCH  27  29
ENDBRANCH  24  27
ENDBRANCH  19  20
ENDBRANCH   1  19
TORSDOF 8
ENDMDL
MODEL 9
REMARK VINA RESULT:      -7.5      2.637      3.787
REMARK  8 active torsions:
REMARK  status: ('A' for Active; 'I' for Inactive)
REMARK    1  A    between atoms: C_4  and  C_5 
REMARK    2  A    between atoms: C_5  and  N_6 
REMARK       I    between atoms: N_6  and  C_7 
REMARK    3  A    between atoms: C_7  and  C_8 
REMARK    4  A    between atoms: C_11  and  C_12 
REMARK    5  A    between atoms: C_12  and  O_13 
REMARK    6  A    between atoms: O_13  and  C_14 
REMARK    7  A    between atoms: C_25  and  C_26 
REMARK    8  A    between atoms: C_26  and  O_27 
ROOT
HETATM    1  N   UNL     1     -42.311  56.910 -57.464  1.00  0.00    -0.351 N 
HETATM    2  C   UNL     1     -42.757  55.671 -57.071  1.00  0.00     0.251 C 
HETATM    3  O   UNL     1     -43.455  54.961 -57.787  1.00  0.00    -0.268 OA
HETATM    4  H   UNL     1     -41.860  57.557 -56.828  1.00  0.00     0.163 HD
ENDROOT
BRANCH   2   5
HETATM    5  C   UNL     1     -42.395  55.226 -55.697  1.00  0.00     0.032 A 
HETATM    6  C   UNL     1     -41.256  55.785 -55.103  1.00  0.00     0.017 A 
HETATM    7  C   UNL     1     -40.857  55.388 -53.826  1.00  0.00     0.010 A 
HETATM    8  C   UNL     1     -41.590  54.425 -53.120  1.00  0.00    -0.034 A 
HETATM    9  C   UNL     1     -42.753  53.898 -53.700  1.00  0.00     0.010 A 
HETATM   10  C   UNL     1     -43.153  54.293 -54.982  1.00  0.00     0.017 A 
BRANCH   8  11
HETATM   11  C   UNL     1     -41.141  53.987 -51.746  1.00  0.00     0.214 C 
BRANCH  11  12
HETATM   12  O   UNL     1     -39.837  53.423 -51.849  1.00  0.00    -0.347 OA
BRANCH  12  13
HETATM   13  C   UNL     1     -39.760  52.119 -52.255  1.00  0.00     0.069 A 
HETATM   14  C   UNL     1     -39.751  51.665 -53.577  1.00  0.00     0.037 A 
HETATM   15  C   UNL     1     -39.665  50.296 -53.850  1.00  0.00     0.003 A 
HETATM   16  C   UNL     1     -39.588  49.375 -52.807  1.00  0.00     0.000 A 
HETATM   17  C   UNL     1     -39.599  49.821 -51.488  1.00  0.00     0.003 A 
HETATM   18  C   UNL     1     -39.684  51.188 -51.216  1.00  0.00     0.037 A 
ENDBRANCH  12  13
ENDBRANCH  11  12
ENDBRANCH   8  11
ENDBRANCH   2   5
BRANCH   1  19
HETATM   19  C   UNL     1     -42.716  57.471 -58.735  1.00  0.00     0.182 C 
BRANCH  19  20
HETATM   20  C   UNL     1     -44.035  58.209 -58.650  1.00  0.00     0.052 A 
HETATM   21  N   UNL     1     -44.063  59.416 -58.019  1.00  0.00    -0.256 NA
HETATM   22  C   UNL     1     -45.251  60.074 -57.940  1.00  0.00     0.040 A 
HETATM   23  C   UNL     1     -45.198  61.400 -57.236  1.00  0.00     0.071 C 
HETATM   24  C   UNL     1     -46.445  59.562 -58.468  1.00  0.00    -0.006 A 
HETATM   25  C   UNL     1     -46.376  58.318 -59.111  1.00  0.00     0.014 A 
HETATM   26  C   UNL     1     -45.170  57.635 -59.203  1.00  0.00     0.029 A 
BRANCH  24  27
HETATM   27  C   UNL     1     -47.753  60.315 -58.405  1.00  0.00     0.149 C 
HETATM   28  C   UNL     1     -48.462  60.315 -59.756  1.00  0.00     0.044 C 
BRANCH  27  29
HETATM   29  O   UNL     1     -48.613  59.713 -57.434  1.00  0.00    -0.391 OA
HETATM   30  H   UNL     1     -48.150  59.743 -56.580  1.00  0.00     0.210 HD
ENDBRANCH  27  29
ENDBRANCH  24  27
ENDBRANCH  19  20
ENDBRANCH   1  19
TORSDOF 8
ENDMDL
MODEL 10
REMARK VINA RESULT:      -7.4      5.406      8.218
REMARK  8 active torsions:
REMARK  status: ('A' for Active; 'I' for Inactive)
REMARK    1  A    between atoms: C_4  and  C_5 
REMARK    2  A    between atoms: C_5  and  N_6 
REMARK       I    between atoms: N_6  and  C_7 
REMARK    3  A    between atoms: C_7  and  C_8 
REMARK    4  A    between atoms: C_11  and  C_12 
REMARK    5  A    between atoms: C_12  and  O_13 
REMARK    6  A    between atoms: O_13  and  C_14 
REMARK    7  A    between atoms: C_25  and  C_26 
REMARK    8  A    between atoms: C_26  and  O_27 
ROOT
HETATM    1  N   UNL     1     -43.411  60.477 -50.935  1.00  0.00    -0.351 N 
HETATM    2  C   UNL     1     -42.248  59.754 -50.840  1.00  0.00     0.251 C 
HETATM    3  O   UNL     1     -41.191  60.247 -50.457  1.00  0.00    -0.268 OA
HETATM    4  H   UNL     1     -44.245  60.117 -51.384  1.00  0.00     0.163 HD
ENDROOT
BRANCH   2   5
HETATM    5  C   UNL     1     -42.298  58.329 -51.270  1.00  0.00     0.032 A 
HETATM    6  C   UNL     1     -41.102  57.600 -51.271  1.00  0.00     0.017 A 
HETATM    7  C   UNL     1     -41.086  56.267 -51.686  1.00  0.00     0.010 A 
HETATM    8  C   UNL     1     -42.266  55.641 -52.108  1.00  0.00    -0.034 A 
HETATM    9  C   UNL     1     -43.470  56.361 -52.066  1.00  0.00     0.010 A 
HETATM   10  C   UNL     1     -43.487  57.698 -51.652  1.00  0.00     0.017 A 
BRANCH   8  11
HETATM   11  C   UNL     1     -42.238  54.204 -52.573  1.00  0.00     0.214 C 
BRANCH  11  12
HETATM   12  O   UNL     1     -40.971  53.943 -53.170  1.00  0.00    -0.347 OA
BRANCH  12  13
HETATM   13  C   UNL     1     -40.490  52.666 -53.063  1.00  0.00     0.069 A 
HETATM   14  C   UNL     1     -39.922  52.092 -51.924  1.00  0.00     0.037 A 
HETATM   15  C   UNL     1     -39.472  50.768 -51.953  1.00  0.00     0.003 A 
HETATM   16  C   UNL     1     -39.585  50.014 -53.119  1.00  0.00     0.000 A 
HETATM   17  C   UNL     1     -40.148  50.581 -54.259  1.00  0.00     0.003 A 
HETATM   18  C   UNL     1     -40.599  51.903 -54.228  1.00  0.00     0.037 A 
ENDBRANCH  12  13
ENDBRANCH  11  12
ENDBRANCH   8  11
ENDBRANCH   2   5
BRANCH   1  19
HETATM   19  C   UNL     1     -43.424  61.896 -50.653  1.00  0.00     0.182 C 
BRANCH  19  20
HETATM   20  C   UNL     1     -44.101  62.221 -49.339  1.00  0.00     0.052 A 
HETATM   21  N   UNL     1     -44.684  61.207 -48.642  1.00  0.00    -0.256 NA
HETATM   22  C   UNL     1     -45.297  61.503 -47.464  1.00  0.00     0.040 A 
HETATM   23  C   UNL     1     -45.909  60.331 -46.752  1.00  0.00     0.071 C 
HETATM   24  C   UNL     1     -45.363  62.804 -46.944  1.00  0.00    -0.006 A 
HETATM   25  C   UNL     1     -44.751  63.821 -47.689  1.00  0.00     0.014 A 
HETATM   26  C   UNL     1     -44.118  63.534 -48.892  1.00  0.00     0.029 A 
BRANCH  24  27
HETATM   27  C   UNL     1     -46.017  63.120 -45.618  1.00  0.00     0.149 C 
HETATM   28  C   UNL     1     -44.991  63.575 -44.585  1.00  0.00     0.044 C 
BRANCH  27  29
HETATM   29  O   UNL     1     -46.986  64.156 -45.791  1.00  0.00    -0.391 OA
HETATM   30  H   UNL     1     -47.752  63.931 -45.235  1.00  0.00     0.210 HD
ENDBRANCH  27  29
ENDBRANCH  24  27
ENDBRANCH  19  20
ENDBRANCH   1  19
TORSDOF 8
ENDMDL
