MODEL 1
REMARK VINA RESULT:      -9.1      0.000      0.000
REMARK  7 active torsions:
REMARK  status: ('A' for Active; 'I' for Inactive)
REMARK       I    between atoms: C_2  and  N_3 
REMARK    1  A    between atoms: N_3  and  C_4 
REMARK    2  A    between atoms: C_7  and  N_8 
REMARK       I    between atoms: N_8  and  C_9 
REMARK    3  A    between atoms: C_9  and  C_10 
REMARK    4  A    between atoms: C_10  and  S_11 
REMARK    5  A    between atoms: S_11  and  C_12 
REMARK    6  A    between atoms: N_13  and  N_14 
REMARK    7  A    between atoms: C_20  and  C_21 
ROOT
HETATM    1  C   UNL     1     -43.348  60.367 -52.860  1.00  0.00     0.206 A 
HETATM    2  N   UNL     1     -42.949  59.128 -53.295  1.00  0.00    -0.234 N 
HETATM    3  C   UNL     1     -42.773  58.386 -52.146  1.00  0.00     0.197 A 
HETATM    4  C   UNL     1     -42.386  57.020 -52.050  1.00  0.00     0.101 A 
HETATM    5  N   UNL     1     -42.593  56.292 -50.915  1.00  0.00    -0.274 N 
HETATM    6  H   UNL     1     -43.021  56.607 -50.051  1.00  0.00     0.189 HD
HETATM    7  N   UNL     1     -42.181  55.016 -51.002  1.00  0.00    -0.174 NA
HETATM    8  C   UNL     1     -41.631  54.922 -52.225  1.00  0.00     0.089 A 
HETATM    9  C   UNL     1     -41.760  56.157 -52.921  1.00  0.00     0.069 A 
HETATM   10  N   UNL     1     -43.054  59.141 -51.096  1.00  0.00    -0.125 NA
HETATM   11  N   UNL     1     -43.385  60.398 -51.547  1.00  0.00    -0.121 NA
ENDROOT
BRANCH   1  12
HETATM   12  S   UNL     1     -43.797  61.648 -53.934  1.00  0.00    -0.080 SA
BRANCH  12  13
HETATM   13  C   UNL     1     -45.488  61.150 -54.379  1.00  0.00     0.185 C 
BRANCH  13  14
HETATM   14  C   UNL     1     -45.545  60.677 -55.827  1.00  0.00     0.231 C 
HETATM   15  N   UNL     1     -45.698  59.305 -55.940  1.00  0.00    -0.327 N 
HETATM   16  H   UNL     1     -45.614  58.772 -55.076  1.00  0.00     0.169 HD
HETATM   17  O   UNL     1     -45.439  61.475 -56.755  1.00  0.00    -0.272 OA
BRANCH  15  18
HETATM   18  C   UNL     1     -45.746  58.533 -57.115  1.00  0.00     0.034 A 
HETATM   19  C   UNL     1     -46.920  58.134 -57.747  1.00  0.00     0.032 A 
HETATM   20  C   UNL     1     -46.876  57.397 -58.941  1.00  0.00     0.032 A 
HETATM   21  C   UNL     1     -45.657  57.048 -59.519  1.00  0.00     0.034 A 
HETATM   22  C   UNL     1     -44.480  57.405 -58.854  1.00  0.00     0.032 A 
HETATM   23  C   UNL     1     -44.522  58.152 -57.673  1.00  0.00     0.032 A 
BRANCH  21  24
HETATM   24  N   UNL     1     -45.508  56.319 -60.710  1.00  0.00    -0.328 N 
HETATM   25  C   UNL     1     -45.071  55.056 -60.981  1.00  0.00     0.218 C 
HETATM   26  C   UNL     1     -44.820  54.062 -59.884  1.00  0.00     0.117 C 
HETATM   27  O   UNL     1     -44.933  54.727 -62.163  1.00  0.00    -0.274 OA
HETATM   28  H   UNL     1     -45.790  56.788 -61.564  1.00  0.00     0.169 HD
ENDBRANCH  21  24
ENDBRANCH  15  18
ENDBRANCH  13  14
ENDBRANCH  12  13
ENDBRANCH   1  12
BRANCH   2  29
HETATM   29  N   UNL     1     -42.831  58.678 -54.661  1.00  0.00    -0.239 NA
HETATM   30  H   UNL     1     -41.903  58.900 -55.025  1.00  0.00     0.143 HD
HETATM   31  H   UNL     1     -43.479  59.194 -55.256  1.00  0.00     0.143 HD
ENDBRANCH   2  29
BRANCH   8  32
HETATM   32  C   UNL     1     -41.002  53.682 -52.690  1.00  0.00    -0.006 A 
HETATM   33  C   UNL     1     -41.214  53.225 -54.000  1.00  0.00     0.015 A 
HETATM   34  C   UNL     1     -40.626  52.039 -54.449  1.00  0.00     0.024 A 
HETATM   35  C   UNL     1     -39.826  51.295 -53.587  1.00  0.00     0.034 A 
HETATM   36 CL   UNL     1     -39.108  49.830 -54.131  1.00  0.00    -0.084 Cl
HETATM   37  C   UNL     1     -39.605  51.731 -52.282  1.00  0.00     0.024 A 
HETATM   38  C   UNL     1     -40.190  52.920 -51.836  1.00  0.00     0.015 A 
ENDBRANCH   8  32
TORSDOF 7
ENDMDL
MODEL 2
REMARK VINA RESULT:      -8.4      5.472      9.347
REMARK  7 active torsions:
REMARK  status: ('A' for Active; 'I' for Inactive)
REMARK       I    between atoms: C_2  and  N_3 
REMARK    1  A    between atoms: N_3  and  C_4 
REMARK    2  A    between atoms: C_7  and  N_8 
REMARK       I    between atoms: N_8  and  C_9 
REMARK    3  A    between atoms: C_9  and  C_10 
REMARK    4  A    between atoms: C_10  and  S_11 
REMARK    5  A    between atoms: S_11  and  C_12 
REMARK    6  A    between atoms: N_13  and  N_14 
REMARK    7  A    between atoms: C_20  and  C_21 
ROOT
HETATM    1  C   UNL     1     -44.981  59.006 -52.018  1.00  0.00     0.206 A 
HETATM    2  N   UNL     1     -44.342  57.804 -51.836  1.00  0.00    -0.234 N 
HETATM    3  C   UNL     1     -43.421  57.732 -52.861  1.00  0.00     0.197 A 
HETATM    4  C   UNL     1     -42.484  56.689 -53.108  1.00  0.00     0.101 A 
HETATM    5  N   UNL     1     -41.395  56.877 -53.908  1.00  0.00    -0.274 N 
HETATM    6  H   UNL     1     -41.129  57.725 -54.397  1.00  0.00     0.189 HD
HETATM    7  N   UNL     1     -40.609  55.794 -54.021  1.00  0.00    -0.174 NA
HETATM    8  C   UNL     1     -41.239  54.843 -53.311  1.00  0.00     0.089 A 
HETATM    9  C   UNL     1     -42.413  55.375 -52.705  1.00  0.00     0.069 A 
HETATM   10  N   UNL     1     -43.510  58.824 -53.601  1.00  0.00    -0.125 NA
HETATM   11  N   UNL     1     -44.515  59.611 -53.087  1.00  0.00    -0.121 NA
ENDROOT
BRANCH   1  12
HETATM   12  S   UNL     1     -46.171  59.620 -50.923  1.00  0.00    -0.080 SA
BRANCH  12  13
HETATM   13  C   UNL     1     -46.211  61.373 -51.400  1.00  0.00     0.185 C 
BRANCH  13  14
HETATM   14  C   UNL     1     -46.334  62.263 -50.169  1.00  0.00     0.231 C 
HETATM   15  N   UNL     1     -45.453  61.913 -49.160  1.00  0.00    -0.327 N 
HETATM   16  H   UNL     1     -44.940  61.043 -49.295  1.00  0.00     0.169 HD
HETATM   17  O   UNL     1     -47.164  63.168 -50.126  1.00  0.00    -0.272 OA
BRANCH  15  18
HETATM   18  C   UNL     1     -45.325  62.488 -47.882  1.00  0.00     0.034 A 
HETATM   19  C   UNL     1     -44.817  63.761 -47.640  1.00  0.00     0.032 A 
HETATM   20  C   UNL     1     -44.764  64.273 -46.334  1.00  0.00     0.032 A 
HETATM   21  C   UNL     1     -45.215  63.520 -45.252  1.00  0.00     0.034 A 
HETATM   22  C   UNL     1     -45.677  62.222 -45.494  1.00  0.00     0.032 A 
HETATM   23  C   UNL     1     -45.745  61.716 -46.795  1.00  0.00     0.032 A 
BRANCH  21  24
HETATM   24  N   UNL     1     -45.208  63.944 -43.914  1.00  0.00    -0.328 N 
HETATM   25  C   UNL     1     -44.482  63.571 -42.822  1.00  0.00     0.218 C 
HETATM   26  C   UNL     1     -43.300  62.653 -42.945  1.00  0.00     0.117 C 
HETATM   27  O   UNL     1     -44.789  64.048 -41.725  1.00  0.00    -0.274 OA
HETATM   28  H   UNL     1     -45.848  64.694 -43.675  1.00  0.00     0.169 HD
ENDBRANCH  21  24
ENDBRANCH  15  18
ENDBRANCH  13  14
ENDBRANCH  12  13
ENDBRANCH   1  12
BRANCH   2  29
HETATM   29  N   UNL     1     -44.531  56.870 -50.754  1.00  0.00    -0.239 NA
HETATM   30  H   UNL     1     -43.769  56.955 -50.078  1.00  0.00     0.143 HD
HETATM   31  H   UNL     1     -44.469  55.913 -51.102  1.00  0.00     0.143 HD
ENDBRANCH   2  29
BRANCH   8  32
HETATM   32  C   UNL     1     -40.722  53.473 -53.233  1.00  0.00    -0.006 A 
HETATM   33  C   UNL     1     -40.782  52.626 -54.350  1.00  0.00     0.015 A 
HETATM   34  C   UNL     1     -40.302  51.315 -54.283  1.00  0.00     0.024 A 
HETATM   35  C   UNL     1     -39.761  50.838 -53.092  1.00  0.00     0.034 A 
HETATM   36 CL   UNL     1     -39.177  49.223 -53.000  1.00  0.00    -0.084 Cl
HETATM   37  C   UNL     1     -39.695  51.663 -51.971  1.00  0.00     0.024 A 
HETATM   38  C   UNL     1     -40.172  52.976 -52.041  1.00  0.00     0.015 A 
ENDBRANCH   8  32
TORSDOF 7
ENDMDL
MODEL 3
REMARK VINA RESULT:      -8.3      2.267      2.946
REMARK  7 active torsions:
REMARK  status: ('A' for Active; 'I' for Inactive)
REMARK       I    between atoms: C_2  and  N_3 
REMARK    1  A    between atoms: N_3  and  C_4 
REMARK    2  A    between atoms: C_7  and  N_8 
REMARK       I    between atoms: N_8  and  C_9 
REMARK    3  A    between atoms: C_9  and  C_10 
REMARK    4  A    between atoms: C_10  and  S_11 
REMARK    5  A    between atoms: S_11  and  C_12 
REMARK    6  A    between atoms: N_13  and  N_14 
REMARK    7  A    between atoms: C_20  and  C_21 
ROOT
HETATM    1  C   UNL     1     -43.107  59.970 -51.251  1.00  0.00     0.206 A 
HETATM    2  N   UNL     1     -42.375  58.913 -51.732  1.00  0.00    -0.234 N 
HETATM    3  C   UNL     1     -43.224  57.828 -51.656  1.00  0.00     0.197 A 
HETATM    4  C   UNL     1     -42.954  56.490 -52.058  1.00  0.00     0.101 A 
HETATM    5  N   UNL     1     -43.955  55.591 -52.281  1.00  0.00    -0.274 N 
HETATM    6  H   UNL     1     -44.954  55.748 -52.196  1.00  0.00     0.189 HD
HETATM    7  N   UNL     1     -43.524  54.379 -52.669  1.00  0.00    -0.174 NA
HETATM    8  C   UNL     1     -42.184  54.474 -52.645  1.00  0.00     0.089 A 
HETATM    9  C   UNL     1     -41.789  55.794 -52.285  1.00  0.00     0.069 A 
HETATM   10  N   UNL     1     -44.387  58.222 -51.162  1.00  0.00    -0.125 NA
HETATM   11  N   UNL     1     -44.300  59.565 -50.878  1.00  0.00    -0.121 NA
ENDROOT
BRANCH   1  12
HETATM   12  S   UNL     1     -42.518  61.597 -51.230  1.00  0.00    -0.080 SA
BRANCH  12  13
HETATM   13  C   UNL     1     -43.556  62.358 -52.513  1.00  0.00     0.185 C 
BRANCH  13  14
HETATM   14  C   UNL     1     -43.739  61.408 -53.691  1.00  0.00     0.231 C 
HETATM   15  N   UNL     1     -42.565  61.181 -54.388  1.00  0.00    -0.327 N 
HETATM   16  H   UNL     1     -41.771  61.765 -54.131  1.00  0.00     0.169 HD
HETATM   17  O   UNL     1     -44.844  60.941 -53.957  1.00  0.00    -0.272 OA
BRANCH  15  18
HETATM   18  C   UNL     1     -42.380  60.398 -55.543  1.00  0.00     0.034 A 
HETATM   19  C   UNL     1     -42.086  60.913 -56.803  1.00  0.00     0.032 A 
HETATM   20  C   UNL     1     -41.876  60.056 -57.895  1.00  0.00     0.032 A 
HETATM   21  C   UNL     1     -41.959  58.673 -57.743  1.00  0.00     0.034 A 
HETATM   22  C   UNL     1     -42.306  58.162 -56.488  1.00  0.00     0.032 A 
HETATM   23  C   UNL     1     -42.500  59.014 -55.397  1.00  0.00     0.032 A 
BRANCH  21  24
HETATM   24  N   UNL     1     -41.763  57.736 -58.770  1.00  0.00    -0.328 N 
HETATM   25  C   UNL     1     -42.605  57.141 -59.662  1.00  0.00     0.218 C 
HETATM   26  C   UNL     1     -44.027  57.595 -59.819  1.00  0.00     0.117 C 
HETATM   27  O   UNL     1     -42.154  56.245 -60.382  1.00  0.00    -0.274 OA
HETATM   28  H   UNL     1     -40.809  57.427 -58.921  1.00  0.00     0.169 HD
ENDBRANCH  21  24
ENDBRANCH  15  18
ENDBRANCH  13  14
ENDBRANCH  12  13
ENDBRANCH   1  12
BRANCH   2  29
HETATM   29  N   UNL     1     -41.042  58.952 -52.282  1.00  0.00    -0.239 NA
HETATM   30  H   UNL     1     -41.081  58.897 -53.302  1.00  0.00     0.143 HD
HETATM   31  H   UNL     1     -40.520  58.125 -51.993  1.00  0.00     0.143 HD
ENDBRANCH   2  29
BRANCH   8  32
HETATM   32  C   UNL     1     -41.327  53.325 -52.953  1.00  0.00    -0.006 A 
HETATM   33  C   UNL     1     -40.456  52.807 -51.981  1.00  0.00     0.015 A 
HETATM   34  C   UNL     1     -39.628  51.719 -52.268  1.00  0.00     0.024 A 
HETATM   35  C   UNL     1     -39.659  51.142 -53.535  1.00  0.00     0.034 A 
HETATM   36 CL   UNL     1     -38.636  49.808 -53.897  1.00  0.00    -0.084 Cl
HETATM   37  C   UNL     1     -40.515  51.643 -54.513  1.00  0.00     0.024 A 
HETATM   38  C   UNL     1     -41.346  52.730 -54.223  1.00  0.00     0.015 A 
ENDBRANCH   8  32
TORSDOF 7
ENDMDL
MODEL 4
REMARK VINA RESULT:      -8.2      4.310      7.906
REMARK  7 active torsions:
REMARK  status: ('A' for Active; 'I' for Inactive)
REMARK       I    between atoms: C_2  and  N_3 
REMARK    1  A    between atoms: N_3  and  C_4 
REMARK    2  A    between atoms: C_7  and  N_8 
REMARK       I    between atoms: N_8  and  C_9 
REMARK    3  A    between atoms: C_9  and  C_10 
REMARK    4  A    between atoms: C_10  and  S_11 
REMARK    5  A    between atoms: S_11  and  C_12 
REMARK    6  A    between atoms: N_13  and  N_14 
REMARK    7  A    between atoms: C_20  and  C_21 
ROOT
HETATM    1  C   UNL     1     -42.842  60.926 -52.587  1.00  0.00     0.206 A 
HETATM    2  N   UNL     1     -42.565  59.659 -53.038  1.00  0.00    -0.234 N 
HETATM    3  C   UNL     1     -42.294  58.927 -51.900  1.00  0.00     0.197 A 
HETATM    4  C   UNL     1     -41.972  57.543 -51.820  1.00  0.00     0.101 A 
HETATM    5  N   UNL     1     -42.082  56.846 -50.653  1.00  0.00    -0.274 N 
HETATM    6  H   UNL     1     -42.387  57.199 -49.751  1.00  0.00     0.189 HD
HETATM    7  N   UNL     1     -41.752  55.549 -50.759  1.00  0.00    -0.174 NA
HETATM    8  C   UNL     1     -41.358  55.404 -52.035  1.00  0.00     0.089 A 
HETATM    9  C   UNL     1     -41.502  56.633 -52.739  1.00  0.00     0.069 A 
HETATM   10  N   UNL     1     -42.407  59.713 -50.843  1.00  0.00    -0.125 NA
HETATM   11  N   UNL     1     -42.721  60.979 -51.280  1.00  0.00    -0.121 NA
ENDROOT
BRANCH   1  12
HETATM   12  S   UNL     1     -43.346  62.212 -53.629  1.00  0.00    -0.080 SA
BRANCH  12  13
HETATM   13  C   UNL     1     -45.070  61.737 -53.957  1.00  0.00     0.185 C 
BRANCH  13  14
HETATM   14  C   UNL     1     -45.815  61.479 -52.652  1.00  0.00     0.231 C 
HETATM   15  N   UNL     1     -45.762  62.554 -51.781  1.00  0.00    -0.327 N 
HETATM   16  H   UNL     1     -45.135  63.313 -52.042  1.00  0.00     0.169 HD
HETATM   17  O   UNL     1     -46.366  60.401 -52.444  1.00  0.00    -0.272 OA
BRANCH  15  18
HETATM   18  C   UNL     1     -46.300  62.644 -50.483  1.00  0.00     0.034 A 
HETATM   19  C   UNL     1     -45.805  61.956 -49.378  1.00  0.00     0.032 A 
HETATM   20  C   UNL     1     -46.377  62.137 -48.109  1.00  0.00     0.032 A 
HETATM   21  C   UNL     1     -47.452  63.005 -47.927  1.00  0.00     0.034 A 
HETATM   22  C   UNL     1     -47.978  63.654 -49.048  1.00  0.00     0.032 A 
HETATM   23  C   UNL     1     -47.400  63.487 -50.310  1.00  0.00     0.032 A 
BRANCH  21  24
HETATM   24  N   UNL     1     -48.088  63.256 -46.700  1.00  0.00    -0.328 N 
HETATM   25  C   UNL     1     -47.654  63.769 -45.514  1.00  0.00     0.218 C 
HETATM   26  C   UNL     1     -46.295  64.391 -45.380  1.00  0.00     0.117 C 
HETATM   27  O   UNL     1     -48.431  63.756 -44.554  1.00  0.00    -0.274 OA
HETATM   28  H   UNL     1     -49.078  63.041 -46.654  1.00  0.00     0.169 HD
ENDBRANCH  21  24
ENDBRANCH  15  18
ENDBRANCH  13  14
ENDBRANCH  12  13
ENDBRANCH   1  12
BRANCH   2  29
HETATM   29  N   UNL     1     -42.635  59.181 -54.397  1.00  0.00    -0.239 NA
HETATM   30  H   UNL     1     -43.528  59.447 -54.817  1.00  0.00     0.143 HD
HETATM   31  H   UNL     1     -42.629  58.161 -54.411  1.00  0.00     0.143 HD
ENDBRANCH   2  29
BRANCH   8  32
HETATM   32  C   UNL     1     -40.855  54.123 -52.543  1.00  0.00    -0.006 A 
HETATM   33  C   UNL     1     -40.974  53.803 -53.904  1.00  0.00     0.015 A 
HETATM   34  C   UNL     1     -40.508  52.580 -54.396  1.00  0.00     0.024 A 
HETATM   35  C   UNL     1     -39.924  51.663 -53.526  1.00  0.00     0.034 A 
HETATM   36 CL   UNL     1     -39.357  50.153 -54.124  1.00  0.00    -0.084 Cl
HETATM   37  C   UNL     1     -39.799  51.962 -52.171  1.00  0.00     0.024 A 
HETATM   38  C   UNL     1     -40.262  53.188 -51.682  1.00  0.00     0.015 A 
ENDBRANCH   8  32
TORSDOF 7
ENDMDL
MODEL 5
REMARK VINA RESULT:      -8.1      7.382     10.813
REMARK  7 active torsions:
REMARK  status: ('A' for Active; 'I' for Inactive)
REMARK       I    between atoms: C_2  and  N_3 
REMARK    1  A    between atoms: N_3  and  C_4 
REMARK    2  A    between atoms: C_7  and  N_8 
REMARK       I    between atoms: N_8  and  C_9 
REMARK    3  A    between atoms: C_9  and  C_10 
REMARK    4  A    between atoms: C_10  and  S_11 
REMARK    5  A    between atoms: S_11  and  C_12 
REMARK    6  A    between atoms: N_13  and  N_14 
REMARK    7  A    between atoms: C_20  and  C_21 
ROOT
HETATM    1  C   UNL     1     -46.082  61.256 -50.485  1.00  0.00     0.206 A 
HETATM    2  N   UNL     1     -45.853  61.298 -49.132  1.00  0.00    -0.234 N 
HETATM    3  C   UNL     1     -46.116  62.601 -48.766  1.00  0.00     0.197 A 
HETATM    4  C   UNL     1     -46.051  63.161 -47.459  1.00  0.00     0.101 A 
HETATM    5  N   UNL     1     -46.671  64.336 -47.149  1.00  0.00    -0.274 N 
HETATM    6  H   UNL     1     -47.221  64.924 -47.767  1.00  0.00     0.189 HD
HETATM    7  N   UNL     1     -46.520  64.711 -45.868  1.00  0.00    -0.174 NA
HETATM    8  C   UNL     1     -45.724  63.770 -45.333  1.00  0.00     0.089 A 
HETATM    9  C   UNL     1     -45.424  62.767 -46.299  1.00  0.00     0.069 A 
HETATM   10  N   UNL     1     -46.480  63.287 -49.837  1.00  0.00    -0.125 NA
HETATM   11  N   UNL     1     -46.427  62.446 -50.924  1.00  0.00    -0.121 NA
ENDROOT
BRANCH   1  12
HETATM   12  S   UNL     1     -45.987  59.802 -51.418  1.00  0.00    -0.080 SA
BRANCH  12  13
HETATM   13  C   UNL     1     -44.198  59.705 -51.727  1.00  0.00     0.185 C 
BRANCH  13  14
HETATM   14  C   UNL     1     -43.777  58.265 -51.999  1.00  0.00     0.231 C 
HETATM   15  N   UNL     1     -43.152  57.672 -50.915  1.00  0.00    -0.327 N 
HETATM   16  H   UNL     1     -42.924  58.288 -50.137  1.00  0.00     0.169 HD
HETATM   17  O   UNL     1     -43.978  57.747 -53.095  1.00  0.00    -0.272 OA
BRANCH  15  18
HETATM   18  C   UNL     1     -42.602  56.379 -50.833  1.00  0.00     0.034 A 
HETATM   19  C   UNL     1     -43.288  55.211 -51.155  1.00  0.00     0.032 A 
HETATM   20  C   UNL     1     -42.649  53.963 -51.083  1.00  0.00     0.032 A 
HETATM   21  C   UNL     1     -41.317  53.865 -50.687  1.00  0.00     0.034 A 
HETATM   22  C   UNL     1     -40.647  55.035 -50.314  1.00  0.00     0.032 A 
HETATM   23  C   UNL     1     -41.277  56.280 -50.400  1.00  0.00     0.032 A 
BRANCH  21  24
HETATM   24  N   UNL     1     -40.590  52.667 -50.587  1.00  0.00    -0.328 N 
HETATM   25  C   UNL     1     -40.029  51.839 -51.513  1.00  0.00     0.218 C 
HETATM   26  C   UNL     1     -39.939  52.229 -52.960  1.00  0.00     0.117 C 
HETATM   27  O   UNL     1     -39.548  50.770 -51.125  1.00  0.00    -0.274 OA
HETATM   28  H   UNL     1     -40.410  52.327 -49.650  1.00  0.00     0.169 HD
ENDBRANCH  21  24
ENDBRANCH  15  18
ENDBRANCH  13  14
ENDBRANCH  12  13
ENDBRANCH   1  12
BRANCH   2  29
HETATM   29  N   UNL     1     -45.504  60.193 -48.272  1.00  0.00    -0.239 NA
HETATM   30  H   UNL     1     -45.505  59.321 -48.803  1.00  0.00     0.143 HD
HETATM   31  H   UNL     1     -46.221  60.068 -47.556  1.00  0.00     0.143 HD
ENDBRANCH   2  29
BRANCH   8  32
HETATM   32  C   UNL     1     -45.268  63.851 -43.941  1.00  0.00    -0.006 A 
HETATM   33  C   UNL     1     -44.154  63.112 -43.514  1.00  0.00     0.015 A 
HETATM   34  C   UNL     1     -43.719  63.174 -42.187  1.00  0.00     0.024 A 
HETATM   35  C   UNL     1     -44.401  63.973 -41.273  1.00  0.00     0.034 A 
HETATM   36 CL   UNL     1     -43.876  64.047 -39.637  1.00  0.00    -0.084 Cl
HETATM   37  C   UNL     1     -45.511  64.712 -41.678  1.00  0.00     0.024 A 
HETATM   38  C   UNL     1     -45.942  64.652 -43.006  1.00  0.00     0.015 A 
ENDBRANCH   8  32
TORSDOF 7
ENDMDL
MODEL 6
REMARK VINA RESULT:      -8.0      6.646      9.825
REMARK  7 active torsions:
REMARK  status: ('A' for Active; 'I' for Inactive)
REMARK       I    between atoms: C_2  and  N_3 
REMARK    1  A    between atoms: N_3  and  C_4 
REMARK    2  A    between atoms: C_7  and  N_8 
REMARK       I    between atoms: N_8  and  C_9 
REMARK    3  A    between atoms: C_9  and  C_10 
REMARK    4  A    between atoms: C_10  and  S_11 
REMARK    5  A    between atoms: S_11  and  C_12 
REMARK    6  A    between atoms: N_13  and  N_14 
REMARK    7  A    between atoms: C_20  and  C_21 
ROOT
HETATM    1  C   UNL     1     -44.897  60.631 -51.529  1.00  0.00     0.206 A 
HETATM    2  N   UNL     1     -44.521  60.836 -50.225  1.00  0.00    -0.234 N 
HETATM    3  C   UNL     1     -45.603  61.457 -49.635  1.00  0.00     0.197 A 
HETATM    4  C   UNL     1     -45.732  61.861 -48.277  1.00  0.00     0.101 A 
HETATM    5  N   UNL     1     -46.948  62.124 -47.718  1.00  0.00    -0.274 N 
HETATM    6  H   UNL     1     -47.856  62.069 -48.166  1.00  0.00     0.189 HD
HETATM    7  N   UNL     1     -46.888  62.479 -46.424  1.00  0.00    -0.174 NA
HETATM    8  C   UNL     1     -45.575  62.501 -46.140  1.00  0.00     0.089 A 
HETATM    9  C   UNL     1     -44.817  62.099 -47.277  1.00  0.00     0.069 A 
HETATM   10  N   UNL     1     -46.559  61.607 -50.536  1.00  0.00    -0.125 NA
HETATM   11  N   UNL     1     -46.101  61.116 -51.737  1.00  0.00    -0.121 NA
ENDROOT
BRANCH   1  12
HETATM   12  S   UNL     1     -43.916  59.785 -52.676  1.00  0.00    -0.080 SA
BRANCH  12  13
HETATM   13  C   UNL     1     -44.216  58.061 -52.183  1.00  0.00     0.185 C 
BRANCH  13  14
HETATM   14  C   UNL     1     -42.947  57.229 -52.339  1.00  0.00     0.231 C 
HETATM   15  N   UNL     1     -43.205  55.912 -52.677  1.00  0.00    -0.327 N 
HETATM   16  H   UNL     1     -44.182  55.623 -52.645  1.00  0.00     0.169 HD
HETATM   17  O   UNL     1     -41.840  57.727 -52.148  1.00  0.00    -0.272 OA
BRANCH  15  18
HETATM   18  C   UNL     1     -42.280  54.866 -52.856  1.00  0.00     0.034 A 
HETATM   19  C   UNL     1     -41.669  54.171 -51.816  1.00  0.00     0.032 A 
HETATM   20  C   UNL     1     -40.787  53.112 -52.085  1.00  0.00     0.032 A 
HETATM   21  C   UNL     1     -40.504  52.733 -53.395  1.00  0.00     0.034 A 
HETATM   22  C   UNL     1     -41.080  53.467 -54.437  1.00  0.00     0.032 A 
HETATM   23  C   UNL     1     -41.970  54.512 -54.172  1.00  0.00     0.032 A 
BRANCH  21  24
HETATM   24  N   UNL     1     -39.643  51.688 -53.766  1.00  0.00    -0.328 N 
HETATM   25  C   UNL     1     -39.858  50.410 -54.189  1.00  0.00     0.218 C 
HETATM   26  C   UNL     1     -41.233  49.923 -54.542  1.00  0.00     0.117 C 
HETATM   27  O   UNL     1     -38.880  49.669 -54.326  1.00  0.00    -0.274 OA
HETATM   28  H   UNL     1     -38.650  51.893 -53.743  1.00  0.00     0.169 HD
ENDBRANCH  21  24
ENDBRANCH  15  18
ENDBRANCH  13  14
ENDBRANCH  12  13
ENDBRANCH   1  12
BRANCH   2  29
HETATM   29  N   UNL     1     -43.297  60.408 -49.592  1.00  0.00    -0.239 NA
HETATM   30  H   UNL     1     -43.500  59.986 -48.684  1.00  0.00     0.143 HD
HETATM   31  H   UNL     1     -42.710  61.216 -49.383  1.00  0.00     0.143 HD
ENDBRANCH   2  29
BRANCH   8  32
HETATM   32  C   UNL     1     -45.081  62.906 -44.820  1.00  0.00    -0.006 A 
HETATM   33  C   UNL     1     -44.096  62.149 -44.167  1.00  0.00     0.015 A 
HETATM   34  C   UNL     1     -43.627  62.520 -42.903  1.00  0.00     0.024 A 
HETATM   35  C   UNL     1     -44.146  63.652 -42.279  1.00  0.00     0.034 A 
HETATM   36 CL   UNL     1     -43.579  64.109 -40.721  1.00  0.00    -0.084 Cl
HETATM   37  C   UNL     1     -45.126  64.415 -42.911  1.00  0.00     0.024 A 
HETATM   38  C   UNL     1     -45.591  64.044 -44.176  1.00  0.00     0.015 A 
ENDBRANCH   8  32
TORSDOF 7
ENDMDL
MODEL 7
REMARK VINA RESULT:      -8.0      2.060      2.391
REMARK  7 active torsions:
REMARK  status: ('A' for Active; 'I' for Inactive)
REMARK       I    between atoms: C_2  and  N_3 
REMARK    1  A    between atoms: N_3  and  C_4 
REMARK    2  A    between atoms: C_7  and  N_8 
REMARK       I    between atoms: N_8  and  C_9 
REMARK    3  A    between atoms: C_9  and  C_10 
REMARK    4  A    between atoms: C_10  and  S_11 
REMARK    5  A    between atoms: S_11  and  C_12 
REMARK    6  A    between atoms: N_13  and  N_14 
REMARK    7  A    between atoms: C_20  and  C_21 
ROOT
HETATM    1  C   UNL     1     -44.348  60.236 -51.514  1.00  0.00     0.206 A 
HETATM    2  N   UNL     1     -44.042  58.967 -51.941  1.00  0.00    -0.234 N 
HETATM    3  C   UNL     1     -42.910  58.617 -51.235  1.00  0.00     0.197 A 
HETATM    4  C   UNL     1     -42.203  57.384 -51.294  1.00  0.00     0.101 A 
HETATM    5  N   UNL     1     -41.335  57.006 -50.312  1.00  0.00    -0.274 N 
HETATM    6  H   UNL     1     -41.096  57.519 -49.469  1.00  0.00     0.189 HD
HETATM    7  N   UNL     1     -40.765  55.807 -50.519  1.00  0.00    -0.174 NA
HETATM    8  C   UNL     1     -41.239  55.410 -51.712  1.00  0.00     0.089 A 
HETATM    9  C   UNL     1     -42.162  56.367 -52.221  1.00  0.00     0.069 A 
HETATM   10  N   UNL     1     -42.570  59.617 -50.439  1.00  0.00    -0.125 NA
HETATM   11  N   UNL     1     -43.459  60.648 -50.639  1.00  0.00    -0.121 NA
ENDROOT
BRANCH   1  12
HETATM   12  S   UNL     1     -45.758  61.094 -52.032  1.00  0.00    -0.080 SA
BRANCH  12  13
HETATM   13  C   UNL     1     -45.008  62.460 -52.969  1.00  0.00     0.185 C 
BRANCH  13  14
HETATM   14  C   UNL     1     -44.046  61.924 -54.023  1.00  0.00     0.231 C 
HETATM   15  N   UNL     1     -44.589  60.896 -54.775  1.00  0.00    -0.327 N 
HETATM   16  H   UNL     1     -45.485  60.532 -54.456  1.00  0.00     0.169 HD
HETATM   17  O   UNL     1     -42.911  62.382 -54.130  1.00  0.00    -0.272 OA
BRANCH  15  18
HETATM   18  C   UNL     1     -43.970  60.149 -55.795  1.00  0.00     0.034 A 
HETATM   19  C   UNL     1     -42.831  59.369 -55.618  1.00  0.00     0.032 A 
HETATM   20  C   UNL     1     -42.303  58.621 -56.683  1.00  0.00     0.032 A 
HETATM   21  C   UNL     1     -42.905  58.645 -57.939  1.00  0.00     0.034 A 
HETATM   22  C   UNL     1     -44.019  59.470 -58.127  1.00  0.00     0.032 A 
HETATM   23  C   UNL     1     -44.555  60.203 -57.063  1.00  0.00     0.032 A 
BRANCH  21  24
HETATM   24  N   UNL     1     -42.457  57.932 -59.063  1.00  0.00    -0.328 N 
HETATM   25  C   UNL     1     -42.613  56.640 -59.469  1.00  0.00     0.218 C 
HETATM   26  C   UNL     1     -43.564  55.710 -58.773  1.00  0.00     0.117 C 
HETATM   27  O   UNL     1     -41.986  56.260 -60.463  1.00  0.00    -0.274 OA
HETATM   28  H   UNL     1     -41.919  58.456 -59.744  1.00  0.00     0.169 HD
ENDBRANCH  21  24
ENDBRANCH  15  18
ENDBRANCH  13  14
ENDBRANCH  12  13
ENDBRANCH   1  12
BRANCH   2  29
HETATM   29  N   UNL     1     -44.798  58.149 -52.858  1.00  0.00    -0.239 NA
HETATM   30  H   UNL     1     -44.165  57.588 -53.431  1.00  0.00     0.143 HD
HETATM   31  H   UNL     1     -45.302  58.739 -53.520  1.00  0.00     0.143 HD
ENDBRANCH   2  29
BRANCH   8  32
HETATM   32  C   UNL     1     -40.803  54.154 -52.332  1.00  0.00    -0.006 A 
HETATM   33  C   UNL     1     -41.022  53.923 -53.699  1.00  0.00     0.015 A 
HETATM   34  C   UNL     1     -40.620  52.725 -54.296  1.00  0.00     0.024 A 
HETATM   35  C   UNL     1     -40.000  51.744 -53.527  1.00  0.00     0.034 A 
HETATM   36 CL   UNL     1     -39.511  50.264 -54.255  1.00  0.00    -0.084 Cl
HETATM   37  C   UNL     1     -39.775  51.954 -52.168  1.00  0.00     0.024 A 
HETATM   38  C   UNL     1     -40.175  53.155 -51.573  1.00  0.00     0.015 A 
ENDBRANCH   8  32
TORSDOF 7
ENDMDL
MODEL 8
REMARK VINA RESULT:      -8.0      2.795      5.734
REMARK  7 active torsions:
REMARK  status: ('A' for Active; 'I' for Inactive)
REMARK       I    between atoms: C_2  and  N_3 
REMARK    1  A    between atoms: N_3  and  C_4 
REMARK    2  A    between atoms: C_7  and  N_8 
REMARK       I    between atoms: N_8  and  C_9 
REMARK    3  A    between atoms: C_9  and  C_10 
REMARK    4  A    between atoms: C_10  and  S_11 
REMARK    5  A    between atoms: S_11  and  C_12 
REMARK    6  A    between atoms: N_13  and  N_14 
REMARK    7  A    between atoms: C_20  and  C_21 
ROOT
HETATM    1  C   UNL     1     -43.321  57.774 -58.106  1.00  0.00     0.206 A 
HETATM    2  N   UNL     1     -43.064  56.651 -57.359  1.00  0.00    -0.234 N 
HETATM    3  C   UNL     1     -42.283  57.091 -56.311  1.00  0.00     0.197 A 
HETATM    4  C   UNL     1     -41.767  56.316 -55.234  1.00  0.00     0.101 A 
HETATM    5  N   UNL     1     -41.328  56.894 -54.079  1.00  0.00    -0.274 N 
HETATM    6  H   UNL     1     -41.313  57.883 -53.853  1.00  0.00     0.189 HD
HETATM    7  N   UNL     1     -40.887  56.016 -53.163  1.00  0.00    -0.174 NA
HETATM    8  C   UNL     1     -40.992  54.819 -53.765  1.00  0.00     0.089 A 
HETATM    9  C   UNL     1     -41.561  54.966 -55.062  1.00  0.00     0.069 A 
HETATM   10  N   UNL     1     -42.093  58.394 -56.430  1.00  0.00    -0.125 NA
HETATM   11  N   UNL     1     -42.721  58.817 -57.579  1.00  0.00    -0.121 NA
ENDROOT
BRANCH   1  12
HETATM   12  S   UNL     1     -44.355  57.772 -59.493  1.00  0.00    -0.080 SA
BRANCH  12  13
HETATM   13  C   UNL     1     -45.424  59.198 -59.131  1.00  0.00     0.185 C 
BRANCH  13  14
HETATM   14  C   UNL     1     -45.943  59.130 -57.699  1.00  0.00     0.231 C 
HETATM   15  N   UNL     1     -45.326  60.043 -56.859  1.00  0.00    -0.327 N 
HETATM   16  H   UNL     1     -44.525  60.538 -57.246  1.00  0.00     0.169 HD
HETATM   17  O   UNL     1     -46.804  58.315 -57.378  1.00  0.00    -0.272 OA
BRANCH  15  18
HETATM   18  C   UNL     1     -45.529  60.223 -55.477  1.00  0.00     0.034 A 
HETATM   19  C   UNL     1     -46.064  61.374 -54.905  1.00  0.00     0.032 A 
HETATM   20  C   UNL     1     -46.270  61.454 -53.519  1.00  0.00     0.032 A 
HETATM   21  C   UNL     1     -45.942  60.387 -52.686  1.00  0.00     0.034 A 
HETATM   22  C   UNL     1     -45.357  59.253 -53.258  1.00  0.00     0.032 A 
HETATM   23  C   UNL     1     -45.165  59.165 -54.640  1.00  0.00     0.032 A 
BRANCH  21  24
HETATM   24  N   UNL     1     -46.114  60.368 -51.292  1.00  0.00    -0.328 N 
HETATM   25  C   UNL     1     -45.262  60.561 -50.246  1.00  0.00     0.218 C 
HETATM   26  C   UNL     1     -43.864  61.067 -50.457  1.00  0.00     0.117 C 
HETATM   27  O   UNL     1     -45.684  60.357 -49.103  1.00  0.00    -0.274 OA
HETATM   28  H   UNL     1     -47.056  60.198 -50.957  1.00  0.00     0.169 HD
ENDBRANCH  21  24
ENDBRANCH  15  18
ENDBRANCH  13  14
ENDBRANCH  12  13
ENDBRANCH   1  12
BRANCH   2  29
HETATM   29  N   UNL     1     -43.579  55.321 -57.578  1.00  0.00    -0.239 NA
HETATM   30  H   UNL     1     -44.544  55.259 -57.249  1.00  0.00     0.143 HD
HETATM   31  H   UNL     1     -43.063  54.648 -57.010  1.00  0.00     0.143 HD
ENDBRANCH   2  29
BRANCH   8  32
HETATM   32  C   UNL     1     -40.549  53.587 -53.105  1.00  0.00    -0.006 A 
HETATM   33  C   UNL     1     -40.155  52.475 -53.867  1.00  0.00     0.015 A 
HETATM   34  C   UNL     1     -39.741  51.293 -53.247  1.00  0.00     0.024 A 
HETATM   35  C   UNL     1     -39.725  51.210 -51.857  1.00  0.00     0.034 A 
HETATM   36 CL   UNL     1     -39.225  49.754 -51.089  1.00  0.00    -0.084 Cl
HETATM   37  C   UNL     1     -40.114  52.302 -51.084  1.00  0.00     0.024 A 
HETATM   38  C   UNL     1     -40.524  53.486 -51.706  1.00  0.00     0.015 A 
ENDBRANCH   8  32
TORSDOF 7
ENDMDL
MODEL 9
REMARK VINA RESULT:      -7.9      5.201      8.937
REMARK  7 active torsions:
REMARK  status: ('A' for Active; 'I' for Inactive)
REMARK       I    between atoms: C_2  and  N_3 
REMARK    1  A    between atoms: N_3  and  C_4 
REMARK    2  A    between atoms: C_7  and  N_8 
REMARK       I    between atoms: N_8  and  C_9 
REMARK    3  A    between atoms: C_9  and  C_10 
REMARK    4  A    between atoms: C_10  and  S_11 
REMARK    5  A    between atoms: S_11  and  C_12 
REMARK    6  A    between atoms: N_13  and  N_14 
REMARK    7  A    between atoms: C_20  and  C_21 
ROOT
HETATM    1  C   UNL     1     -43.304  58.455 -54.957  1.00  0.00     0.206 A 
HETATM    2  N   UNL     1     -44.070  59.081 -54.005  1.00  0.00    -0.234 N 
HETATM    3  C   UNL     1     -43.171  59.504 -53.047  1.00  0.00     0.197 A 
HETATM    4  C   UNL     1     -43.456  60.232 -51.858  1.00  0.00     0.101 A 
HETATM    5  N   UNL     1     -42.485  60.908 -51.179  1.00  0.00    -0.274 N 
HETATM    6  H   UNL     1     -41.501  60.976 -51.418  1.00  0.00     0.189 HD
HETATM    7  N   UNL     1     -42.930  61.552 -50.088  1.00  0.00    -0.174 NA
HETATM    8  C   UNL     1     -44.235  61.239 -50.020  1.00  0.00     0.089 A 
HETATM    9  C   UNL     1     -44.607  60.427 -51.128  1.00  0.00     0.069 A 
HETATM   10  N   UNL     1     -41.950  59.152 -53.413  1.00  0.00    -0.125 NA
HETATM   11  N   UNL     1     -42.039  58.463 -54.601  1.00  0.00    -0.121 NA
ENDROOT
BRANCH   1  12
HETATM   12  S   UNL     1     -43.955  57.828 -56.432  1.00  0.00    -0.080 SA
BRANCH  12  13
HETATM   13  C   UNL     1     -42.560  56.826 -57.029  1.00  0.00     0.185 C 
BRANCH  13  14
HETATM   14  C   UNL     1     -42.448  55.531 -56.231  1.00  0.00     0.231 C 
HETATM   15  N   UNL     1     -41.369  55.525 -55.363  1.00  0.00    -0.327 N 
HETATM   16  H   UNL     1     -40.714  56.299 -55.456  1.00  0.00     0.169 HD
HETATM   17  O   UNL     1     -43.249  54.616 -56.401  1.00  0.00    -0.272 OA
BRANCH  15  18
HETATM   18  C   UNL     1     -40.946  54.485 -54.514  1.00  0.00     0.034 A 
HETATM   19  C   UNL     1     -40.319  53.320 -54.950  1.00  0.00     0.032 A 
HETATM   20  C   UNL     1     -39.892  52.351 -54.029  1.00  0.00     0.032 A 
HETATM   21  C   UNL     1     -40.087  52.530 -52.662  1.00  0.00     0.034 A 
HETATM   22  C   UNL     1     -40.763  53.676 -52.232  1.00  0.00     0.032 A 
HETATM   23  C   UNL     1     -41.175  54.650 -53.146  1.00  0.00     0.032 A 
BRANCH  21  24
HETATM   24  N   UNL     1     -39.693  51.623 -51.664  1.00  0.00    -0.328 N 
HETATM   25  C   UNL     1     -39.542  50.268 -51.644  1.00  0.00     0.218 C 
HETATM   26  C   UNL     1     -39.612  49.454 -52.903  1.00  0.00     0.117 C 
HETATM   27  O   UNL     1     -39.295  49.725 -50.563  1.00  0.00    -0.274 OA
HETATM   28  H   UNL     1     -39.443  52.022 -50.766  1.00  0.00     0.169 HD
ENDBRANCH  21  24
ENDBRANCH  15  18
ENDBRANCH  13  14
ENDBRANCH  12  13
ENDBRANCH   1  12
BRANCH   2  29
HETATM   29  N   UNL     1     -45.491  59.322 -54.048  1.00  0.00    -0.239 NA
HETATM   30  H   UNL     1     -45.818  59.327 -55.016  1.00  0.00     0.143 HD
HETATM   31  H   UNL     1     -45.699  60.256 -53.694  1.00  0.00     0.143 HD
ENDBRANCH   2  29
BRANCH   8  32
HETATM   32  C   UNL     1     -45.080  61.707 -48.916  1.00  0.00    -0.006 A 
HETATM   33  C   UNL     1     -46.195  62.521 -49.171  1.00  0.00     0.015 A 
HETATM   34  C   UNL     1     -47.000  62.981 -48.125  1.00  0.00     0.024 A 
HETATM   35  C   UNL     1     -46.692  62.635 -46.812  1.00  0.00     0.034 A 
HETATM   36 CL   UNL     1     -47.674  63.205 -45.520  1.00  0.00    -0.084 Cl
HETATM   37  C   UNL     1     -45.587  61.830 -46.539  1.00  0.00     0.024 A 
HETATM   38  C   UNL     1     -44.785  61.368 -47.587  1.00  0.00     0.015 A 
ENDBRANCH   8  32
TORSDOF 7
ENDMDL
MODEL 10
REMARK VINA RESULT:      -7.9      1.613      2.120
REMARK  7 active torsions:
REMARK  status: ('A' for Active; 'I' for Inactive)
REMARK       I    between atoms: C_2  and  N_3 
REMARK    1  A    between atoms: N_3  and  C_4 
REMARK    2  A    between atoms: C_7  and  N_8 
REMARK       I    between atoms: N_8  and  C_9 
REMARK    3  A    between atoms: C_9  and  C_10 
REMARK    4  A    between atoms: C_10  and  S_11 
REMARK    5  A    between atoms: S_11  and  C_12 
REMARK    6  A    between atoms: N_13  and  N_14 
REMARK    7  A    between atoms: C_20  and  C_21 
ROOT
HETATM    1  C   UNL     1     -42.903  60.179 -53.340  1.00  0.00     0.206 A 
HETATM    2  N   UNL     1     -42.606  58.881 -53.673  1.00  0.00    -0.234 N 
HETATM    3  C   UNL     1     -42.299  58.267 -52.476  1.00  0.00     0.197 A 
HETATM    4  C   UNL     1     -41.945  56.904 -52.271  1.00  0.00     0.101 A 
HETATM    5  N   UNL     1     -42.019  56.320 -51.040  1.00  0.00    -0.274 N 
HETATM    6  H   UNL     1     -42.316  56.752 -50.171  1.00  0.00     0.189 HD
HETATM    7  N   UNL     1     -41.662  55.026 -51.028  1.00  0.00    -0.174 NA
HETATM    8  C   UNL     1     -41.287  54.767 -52.292  1.00  0.00     0.089 A 
HETATM    9  C   UNL     1     -41.470  55.920 -53.108  1.00  0.00     0.069 A 
HETATM   10  N   UNL     1     -42.411  59.149 -51.497  1.00  0.00    -0.125 NA
HETATM   11  N   UNL     1     -42.761  60.360 -52.046  1.00  0.00    -0.121 NA
ENDROOT
BRANCH   1  12
HETATM   12  S   UNL     1     -43.454  61.349 -54.490  1.00  0.00    -0.080 SA
BRANCH  12  13
HETATM   13  C   UNL     1     -45.056  60.636 -54.970  1.00  0.00     0.185 C 
BRANCH  13  14
HETATM   14  C   UNL     1     -45.005  60.118 -56.403  1.00  0.00     0.231 C 
HETATM   15  N   UNL     1     -46.249  59.748 -56.886  1.00  0.00    -0.327 N 
HETATM   16  H   UNL     1     -47.007  59.730 -56.206  1.00  0.00     0.169 HD
HETATM   17  O   UNL     1     -43.939  60.039 -57.007  1.00  0.00    -0.272 OA
BRANCH  15  18
HETATM   18  C   UNL     1     -46.561  59.194 -58.142  1.00  0.00     0.034 A 
HETATM   19  C   UNL     1     -46.734  59.935 -59.308  1.00  0.00     0.032 A 
HETATM   20  C   UNL     1     -47.003  59.296 -60.528  1.00  0.00     0.032 A 
HETATM   21  C   UNL     1     -47.107  57.908 -60.600  1.00  0.00     0.034 A 
HETATM   22  C   UNL     1     -46.985  57.171 -59.418  1.00  0.00     0.032 A 
HETATM   23  C   UNL     1     -46.701  57.805 -58.204  1.00  0.00     0.032 A 
BRANCH  21  24
HETATM   24  N   UNL     1     -47.369  57.178 -61.770  1.00  0.00    -0.328 N 
HETATM   25  C   UNL     1     -48.500  56.963 -62.501  1.00  0.00     0.218 C 
HETATM   26  C   UNL     1     -49.766  57.722 -62.226  1.00  0.00     0.117 C 
HETATM   27  O   UNL     1     -48.447  56.158 -63.435  1.00  0.00    -0.274 OA
HETATM   28  H   UNL     1     -46.575  56.716 -62.200  1.00  0.00     0.169 HD
ENDBRANCH  21  24
ENDBRANCH  15  18
ENDBRANCH  13  14
ENDBRANCH  12  13
ENDBRANCH   1  12
BRANCH   2  29
HETATM   29  N   UNL     1     -42.689  58.274 -54.979  1.00  0.00    -0.239 NA
HETATM   30  H   UNL     1     -43.200  58.884 -55.618  1.00  0.00     0.143 HD
HETATM   31  H   UNL     1     -43.241  57.417 -54.933  1.00  0.00     0.143 HD
ENDBRANCH   2  29
BRANCH   8  32
HETATM   32  C   UNL     1     -40.765  53.455 -52.685  1.00  0.00    -0.006 A 
HETATM   33  C   UNL     1     -39.997  52.697 -51.787  1.00  0.00     0.015 A 
HETATM   34  C   UNL     1     -39.486  51.450 -52.156  1.00  0.00     0.024 A 
HETATM   35  C   UNL     1     -39.734  50.951 -53.432  1.00  0.00     0.034 A 
HETATM   36 CL   UNL     1     -39.100  49.421 -53.894  1.00  0.00    -0.084 Cl
HETATM   37  C   UNL     1     -40.492  51.689 -54.338  1.00  0.00     0.024 A 
HETATM   38  C   UNL     1     -41.006  52.935 -53.966  1.00  0.00     0.015 A 
ENDBRANCH   8  32
TORSDOF 7
ENDMDL
