MODEL 1
REMARK VINA RESULT:      -8.8      0.000      0.000
REMARK  2 active torsions:
REMARK  status: ('A' for Active; 'I' for Inactive)
REMARK    1  A    between atoms: C_9  and  C_10 
REMARK       I    between atoms: C_10  and  N_11 
REMARK    2  A    between atoms: N_11  and  C_12 
ROOT
HETATM    1  C   UNL     1     -41.022  54.547 -49.307  1.00  0.00     0.267 C 
HETATM    2  N   UNL     1     -41.447  55.836 -49.218  1.00  0.00    -0.156 N 
HETATM    3  O   UNL     1     -41.080  53.823 -48.302  1.00  0.00    -0.270 OA
HETATM    4  H   UNL     1     -41.752  56.141 -48.300  1.00  0.00     0.187 HD
ENDROOT
BRANCH   1   5
HETATM    5  C   UNL     1     -40.461  53.936 -50.609  1.00  0.00     0.282 C 
HETATM    6  N   UNL     1     -41.469  54.204 -51.733  1.00  0.00    -0.058 N 
HETATM    7  C   UNL     1     -40.992  53.746 -53.057  1.00  0.00     0.272 C 
HETATM    8  H   UNL     1     -42.351  53.736 -51.480  1.00  0.00     0.278 HD
HETATM    9  H   UNL     1     -41.700  55.205 -51.737  1.00  0.00     0.278 HD
HETATM   10  C   UNL     1     -40.457  52.344 -53.029  1.00  0.00    -0.026 A 
HETATM   11  C   UNL     1     -40.095  51.725 -51.815  1.00  0.00    -0.048 A 
HETATM   12  C   UNL     1     -40.260  51.657 -54.236  1.00  0.00     0.009 A 
HETATM   13  C   UNL     1     -39.575  50.422 -51.832  1.00  0.00     0.008 A 
HETATM   14  C   UNL     1     -40.315  52.412 -50.487  1.00  0.00     0.082 C 
HETATM   15  C   UNL     1     -39.393  49.750 -53.039  1.00  0.00     0.001 A 
HETATM   16  C   UNL     1     -39.733  50.366 -54.239  1.00  0.00     0.001 A 
ENDBRANCH   1   5
BRANCH   2  17
HETATM   17  C   UNL     1     -41.563  56.683 -50.286  1.00  0.00     0.708 A 
HETATM   18  N   UNL     1     -40.585  57.212 -50.981  1.00  0.00    -0.062 NA
HETATM   19  C   UNL     1     -41.189  58.002 -51.931  1.00  0.00     0.103 A 
HETATM   20  C   UNL     1     -42.573  57.940 -51.813  1.00  0.00     0.078 A 
HETATM   21  C   UNL     1     -40.618  58.804 -52.927  1.00  0.00     0.034 A 
HETATM   22  N   UNL     1     -42.786  57.080 -50.767  1.00  0.00    -0.188 N 
HETATM   23  C   UNL     1     -43.444  58.649 -52.641  1.00  0.00     0.032 A 
HETATM   24  H   UNL     1     -43.689  56.810 -50.407  1.00  0.00     0.184 HD
HETATM   25  C   UNL     1     -42.858  59.450 -53.628  1.00  0.00     0.002 A 
HETATM   26  C   UNL     1     -41.470  59.527 -53.772  1.00  0.00     0.002 A 
ENDBRANCH   2  17
TORSDOF 2
ENDMDL
MODEL 2
REMARK VINA RESULT:      -8.3      3.884      4.718
REMARK  2 active torsions:
REMARK  status: ('A' for Active; 'I' for Inactive)
REMARK    1  A    between atoms: C_9  and  C_10 
REMARK       I    between atoms: C_10  and  N_11 
REMARK    2  A    between atoms: N_11  and  C_12 
ROOT
HETATM    1  C   UNL     1     -42.970  56.605 -53.292  1.00  0.00     0.267 C 
HETATM    2  N   UNL     1     -43.429  57.496 -54.212  1.00  0.00    -0.156 N 
HETATM    3  O   UNL     1     -43.348  56.705 -52.115  1.00  0.00    -0.270 OA
HETATM    4  H   UNL     1     -44.033  58.229 -53.856  1.00  0.00     0.187 HD
ENDROOT
BRANCH   1   5
HETATM    5  C   UNL     1     -41.988  55.466 -53.644  1.00  0.00     0.282 C 
HETATM    6  N   UNL     1     -42.750  54.419 -54.465  1.00  0.00    -0.058 N 
HETATM    7  C   UNL     1     -41.883  53.320 -54.946  1.00  0.00     0.272 C 
HETATM    8  H   UNL     1     -43.512  54.053 -53.877  1.00  0.00     0.278 HD
HETATM    9  H   UNL     1     -43.228  54.893 -55.242  1.00  0.00     0.278 HD
HETATM   10  C   UNL     1     -41.019  52.745 -53.860  1.00  0.00    -0.026 A 
HETATM   11  C   UNL     1     -40.792  53.447 -52.659  1.00  0.00    -0.048 A 
HETATM   12  C   UNL     1     -40.381  51.514 -54.068  1.00  0.00     0.009 A 
HETATM   13  C   UNL     1     -39.958  52.888 -51.679  1.00  0.00     0.008 A 
HETATM   14  C   UNL     1     -41.479  54.763 -52.377  1.00  0.00     0.082 C 
HETATM   15  C   UNL     1     -39.338  51.660 -51.897  1.00  0.00     0.001 A 
HETATM   16  C   UNL     1     -39.548  50.974 -53.090  1.00  0.00     0.001 A 
ENDBRANCH   1   5
BRANCH   2  17
HETATM   17  C   UNL     1     -43.196  57.402 -55.556  1.00  0.00     0.708 A 
HETATM   18  N   UNL     1     -43.610  56.455 -56.362  1.00  0.00    -0.062 NA
HETATM   19  C   UNL     1     -43.116  56.781 -57.604  1.00  0.00     0.103 A 
HETATM   20  C   UNL     1     -42.390  57.965 -57.548  1.00  0.00     0.078 A 
HETATM   21  C   UNL     1     -43.244  56.109 -58.826  1.00  0.00     0.034 A 
HETATM   22  N   UNL     1     -42.470  58.349 -56.234  1.00  0.00    -0.188 N 
HETATM   23  C   UNL     1     -41.763  58.532 -58.658  1.00  0.00     0.032 A 
HETATM   24  H   UNL     1     -42.045  59.177 -55.841  1.00  0.00     0.184 HD
HETATM   25  C   UNL     1     -41.896  57.846 -59.871  1.00  0.00     0.002 A 
HETATM   26  C   UNL     1     -42.624  56.657 -59.957  1.00  0.00     0.002 A 
ENDBRANCH   2  17
TORSDOF 2
ENDMDL
MODEL 3
REMARK VINA RESULT:      -8.3     14.351     16.701
REMARK  2 active torsions:
REMARK  status: ('A' for Active; 'I' for Inactive)
REMARK    1  A    between atoms: C_9  and  C_10 
REMARK       I    between atoms: C_10  and  N_11 
REMARK    2  A    between atoms: N_11  and  C_12 
ROOT
HETATM    1  C   UNL     1     -36.210  42.023 -54.272  1.00  0.00     0.267 C 
HETATM    2  N   UNL     1     -37.118  42.374 -55.223  1.00  0.00    -0.156 N 
HETATM    3  O   UNL     1     -36.177  42.659 -53.208  1.00  0.00    -0.270 OA
HETATM    4  H   UNL     1     -37.695  43.180 -55.010  1.00  0.00     0.187 HD
ENDROOT
BRANCH   1   5
HETATM    5  C   UNL     1     -35.206  40.865 -54.457  1.00  0.00     0.282 C 
HETATM    6  N   UNL     1     -34.500  40.630 -53.116  1.00  0.00    -0.058 N 
HETATM    7  C   UNL     1     -33.579  39.472 -53.145  1.00  0.00     0.272 C 
HETATM    8  H   UNL     1     -33.996  41.493 -52.873  1.00  0.00     0.278 HD
HETATM    9  H   UNL     1     -35.212  40.531 -52.381  1.00  0.00     0.278 HD
HETATM   10  C   UNL     1     -32.660  39.491 -54.332  1.00  0.00    -0.026 A 
HETATM   11  C   UNL     1     -32.938  40.291 -55.458  1.00  0.00    -0.048 A 
HETATM   12  C   UNL     1     -31.535  38.654 -54.344  1.00  0.00     0.009 A 
HETATM   13  C   UNL     1     -32.069  40.262 -56.558  1.00  0.00     0.008 A 
HETATM   14  C   UNL     1     -34.122  41.231 -55.480  1.00  0.00     0.082 C 
HETATM   15  C   UNL     1     -30.950  39.432 -56.553  1.00  0.00     0.001 A 
HETATM   16  C   UNL     1     -30.684  38.627 -55.449  1.00  0.00     0.001 A 
ENDBRANCH   1   5
BRANCH   2  17
HETATM   17  C   UNL     1     -37.344  41.663 -56.370  1.00  0.00     0.708 A 
HETATM   18  N   UNL     1     -37.903  40.481 -56.466  1.00  0.00    -0.062 NA
HETATM   19  C   UNL     1     -37.893  40.173 -57.807  1.00  0.00     0.103 A 
HETATM   20  C   UNL     1     -37.320  41.204 -58.543  1.00  0.00     0.078 A 
HETATM   21  C   UNL     1     -38.353  39.027 -58.469  1.00  0.00     0.034 A 
HETATM   22  N   UNL     1     -36.993  42.149 -57.605  1.00  0.00    -0.188 N 
HETATM   23  C   UNL     1     -37.168  41.162 -59.929  1.00  0.00     0.032 A 
HETATM   24  H   UNL     1     -36.551  43.035 -57.799  1.00  0.00     0.184 HD
HETATM   25  C   UNL     1     -37.628  40.009 -60.575  1.00  0.00     0.002 A 
HETATM   26  C   UNL     1     -38.212  38.959 -59.861  1.00  0.00     0.002 A 
ENDBRANCH   2  17
TORSDOF 2
ENDMDL
MODEL 4
REMARK VINA RESULT:      -8.1     14.326     16.158
REMARK  2 active torsions:
REMARK  status: ('A' for Active; 'I' for Inactive)
REMARK    1  A    between atoms: C_9  and  C_10 
REMARK       I    between atoms: C_10  and  N_11 
REMARK    2  A    between atoms: N_11  and  C_12 
ROOT
HETATM    1  C   UNL     1     -38.247  40.965 -52.557  1.00  0.00     0.267 C 
HETATM    2  N   UNL     1     -37.668  40.613 -51.377  1.00  0.00    -0.156 N 
HETATM    3  O   UNL     1     -39.433  41.326 -52.562  1.00  0.00    -0.270 OA
HETATM    4  H   UNL     1     -38.273  40.630 -50.563  1.00  0.00     0.187 HD
ENDROOT
BRANCH   1   5
HETATM    5  C   UNL     1     -37.493  40.931 -53.904  1.00  0.00     0.282 C 
HETATM    6  N   UNL     1     -36.772  42.273 -54.079  1.00  0.00    -0.058 N 
HETATM    7  C   UNL     1     -35.932  42.322 -55.296  1.00  0.00     0.272 C 
HETATM    8  H   UNL     1     -37.488  43.013 -54.098  1.00  0.00     0.278 HD
HETATM    9  H   UNL     1     -36.224  42.466 -53.231  1.00  0.00     0.278 HD
HETATM   10  C   UNL     1     -36.657  41.847 -56.522  1.00  0.00    -0.026 A 
HETATM   11  C   UNL     1     -37.836  41.082 -56.421  1.00  0.00    -0.048 A 
HETATM   12  C   UNL     1     -36.120  42.119 -57.788  1.00  0.00     0.009 A 
HETATM   13  C   UNL     1     -38.471  40.634 -57.589  1.00  0.00     0.008 A 
HETATM   14  C   UNL     1     -38.469  40.786 -55.080  1.00  0.00     0.082 C 
HETATM   15  C   UNL     1     -37.931  40.920 -58.841  1.00  0.00     0.001 A 
HETATM   16  C   UNL     1     -36.756  41.661 -58.941  1.00  0.00     0.001 A 
ENDBRANCH   1   5
BRANCH   2  17
HETATM   17  C   UNL     1     -36.337  40.336 -51.225  1.00  0.00     0.708 A 
HETATM   18  N   UNL     1     -35.346  41.193 -51.259  1.00  0.00    -0.062 NA
HETATM   19  C   UNL     1     -34.204  40.447 -51.079  1.00  0.00     0.103 A 
HETATM   20  C   UNL     1     -34.516  39.102 -50.922  1.00  0.00     0.078 A 
HETATM   21  C   UNL     1     -32.863  40.853 -51.043  1.00  0.00     0.034 A 
HETATM   22  N   UNL     1     -35.884  39.059 -51.003  1.00  0.00    -0.188 N 
HETATM   23  C   UNL     1     -33.553  38.109 -50.733  1.00  0.00     0.032 A 
HETATM   24  H   UNL     1     -36.447  38.225 -50.933  1.00  0.00     0.184 HD
HETATM   25  C   UNL     1     -32.218  38.530 -50.703  1.00  0.00     0.002 A 
HETATM   26  C   UNL     1     -31.876  39.877 -50.853  1.00  0.00     0.002 A 
ENDBRANCH   2  17
TORSDOF 2
ENDMDL
MODEL 5
REMARK VINA RESULT:      -8.0      4.830      6.133
REMARK  2 active torsions:
REMARK  status: ('A' for Active; 'I' for Inactive)
REMARK    1  A    between atoms: C_9  and  C_10 
REMARK       I    between atoms: C_10  and  N_11 
REMARK    2  A    between atoms: N_11  and  C_12 
ROOT
HETATM    1  C   UNL     1     -41.763  58.722 -54.904  1.00  0.00     0.267 C 
HETATM    2  N   UNL     1     -42.090  59.150 -56.154  1.00  0.00    -0.156 N 
HETATM    3  O   UNL     1     -41.268  59.527 -54.102  1.00  0.00    -0.270 OA
HETATM    4  H   UNL     1     -41.864  60.115 -56.365  1.00  0.00     0.187 HD
ENDROOT
BRANCH   1   5
HETATM    5  C   UNL     1     -41.974  57.266 -54.434  1.00  0.00     0.282 C 
HETATM    6  N   UNL     1     -41.865  57.241 -52.904  1.00  0.00    -0.058 N 
HETATM    7  C   UNL     1     -42.147  55.907 -52.328  1.00  0.00     0.272 C 
HETATM    8  H   UNL     1     -40.917  57.554 -52.653  1.00  0.00     0.278 HD
HETATM    9  H   UNL     1     -42.486  57.962 -52.517  1.00  0.00     0.278 HD
HETATM   10  C   UNL     1     -41.398  54.805 -53.020  1.00  0.00    -0.026 A 
HETATM   11  C   UNL     1     -40.830  54.997 -54.296  1.00  0.00    -0.048 A 
HETATM   12  C   UNL     1     -41.309  53.545 -52.410  1.00  0.00     0.009 A 
HETATM   13  C   UNL     1     -40.159  53.935 -54.920  1.00  0.00     0.008 A 
HETATM   14  C   UNL     1     -40.875  56.344 -54.981  1.00  0.00     0.082 C 
HETATM   15  C   UNL     1     -40.072  52.691 -54.299  1.00  0.00     0.001 A 
HETATM   16  C   UNL     1     -40.647  52.496 -53.046  1.00  0.00     0.001 A 
ENDBRANCH   1   5
BRANCH   2  17
HETATM   17  C   UNL     1     -42.767  58.396 -57.072  1.00  0.00     0.708 A 
HETATM   18  N   UNL     1     -44.057  58.409 -57.304  1.00  0.00    -0.062 NA
HETATM   19  C   UNL     1     -44.266  57.475 -58.293  1.00  0.00     0.103 A 
HETATM   20  C   UNL     1     -43.066  56.889 -58.676  1.00  0.00     0.078 A 
HETATM   21  C   UNL     1     -45.457  57.072 -58.910  1.00  0.00     0.034 A 
HETATM   22  N   UNL     1     -42.123  57.504 -57.893  1.00  0.00    -0.188 N 
HETATM   23  C   UNL     1     -42.975  55.897 -59.654  1.00  0.00     0.032 A 
HETATM   24  H   UNL     1     -41.132  57.311 -57.912  1.00  0.00     0.184 HD
HETATM   25  C   UNL     1     -44.175  55.503 -60.258  1.00  0.00     0.002 A 
HETATM   26  C   UNL     1     -45.395  56.079 -59.896  1.00  0.00     0.002 A 
ENDBRANCH   2  17
TORSDOF 2
ENDMDL
MODEL 6
REMARK VINA RESULT:      -8.0      3.866      6.875
REMARK  2 active torsions:
REMARK  status: ('A' for Active; 'I' for Inactive)
REMARK    1  A    between atoms: C_9  and  C_10 
REMARK       I    between atoms: C_10  and  N_11 
REMARK    2  A    between atoms: N_11  and  C_12 
ROOT
HETATM    1  C   UNL     1     -43.954  56.796 -53.617  1.00  0.00     0.267 C 
HETATM    2  N   UNL     1     -43.827  55.722 -52.791  1.00  0.00    -0.156 N 
HETATM    3  O   UNL     1     -44.815  57.651 -53.365  1.00  0.00    -0.270 OA
HETATM    4  H   UNL     1     -44.491  55.669 -52.027  1.00  0.00     0.187 HD
ENDROOT
BRANCH   1   5
HETATM    5  C   UNL     1     -43.072  57.002 -54.868  1.00  0.00     0.282 C 
HETATM    6  N   UNL     1     -43.088  58.494 -55.220  1.00  0.00    -0.058 N 
HETATM    7  C   UNL     1     -42.194  58.829 -56.352  1.00  0.00     0.272 C 
HETATM    8  H   UNL     1     -44.061  58.755 -55.433  1.00  0.00     0.278 HD
HETATM    9  H   UNL     1     -42.854  59.035 -54.378  1.00  0.00     0.278 HD
HETATM   10  C   UNL     1     -42.379  57.915 -57.528  1.00  0.00    -0.026 A 
HETATM   11  C   UNL     1     -43.027  56.671 -57.390  1.00  0.00    -0.048 A 
HETATM   12  C   UNL     1     -41.847  58.279 -58.773  1.00  0.00     0.009 A 
HETATM   13  C   UNL     1     -43.157  55.832 -58.507  1.00  0.00     0.008 A 
HETATM   14  C   UNL     1     -43.642  56.246 -56.076  1.00  0.00     0.082 C 
HETATM   15  C   UNL     1     -42.630  56.211 -59.740  1.00  0.00     0.001 A 
HETATM   16  C   UNL     1     -41.975  57.432 -59.873  1.00  0.00     0.001 A 
ENDBRANCH   1   5
BRANCH   2  17
HETATM   17  C   UNL     1     -42.827  54.794 -52.885  1.00  0.00     0.708 A 
HETATM   18  N   UNL     1     -42.565  54.021 -53.911  1.00  0.00    -0.062 NA
HETATM   19  C   UNL     1     -41.491  53.250 -53.530  1.00  0.00     0.103 A 
HETATM   20  C   UNL     1     -41.087  53.574 -52.240  1.00  0.00     0.078 A 
HETATM   21  C   UNL     1     -40.810  52.248 -54.234  1.00  0.00     0.034 A 
HETATM   22  N   UNL     1     -41.945  54.572 -51.857  1.00  0.00    -0.188 N 
HETATM   23  C   UNL     1     -40.026  52.944 -51.589  1.00  0.00     0.032 A 
HETATM   24  H   UNL     1     -41.934  55.040 -50.963  1.00  0.00     0.184 HD
HETATM   25  C   UNL     1     -39.359  51.942 -52.304  1.00  0.00     0.002 A 
HETATM   26  C   UNL     1     -39.740  51.599 -53.604  1.00  0.00     0.002 A 
ENDBRANCH   2  17
TORSDOF 2
ENDMDL
MODEL 7
REMARK VINA RESULT:      -7.9      3.859      5.211
REMARK  2 active torsions:
REMARK  status: ('A' for Active; 'I' for Inactive)
REMARK    1  A    between atoms: C_9  and  C_10 
REMARK       I    between atoms: C_10  and  N_11 
REMARK    2  A    between atoms: N_11  and  C_12 
ROOT
HETATM    1  C   UNL     1     -44.345  57.504 -53.067  1.00  0.00     0.267 C 
HETATM    2  N   UNL     1     -44.668  58.157 -54.216  1.00  0.00    -0.156 N 
HETATM    3  O   UNL     1     -45.045  57.678 -52.058  1.00  0.00    -0.270 OA
HETATM    4  H   UNL     1     -45.455  58.793 -54.159  1.00  0.00     0.187 HD
ENDROOT
BRANCH   1   5
HETATM    5  C   UNL     1     -43.136  56.550 -52.954  1.00  0.00     0.282 C 
HETATM    6  N   UNL     1     -43.625  55.126 -53.244  1.00  0.00    -0.058 N 
HETATM    7  C   UNL     1     -42.529  54.132 -53.261  1.00  0.00     0.272 C 
HETATM    8  H   UNL     1     -44.327  54.885 -52.530  1.00  0.00     0.278 HD
HETATM    9  H   UNL     1     -44.148  55.130 -54.129  1.00  0.00     0.278 HD
HETATM   10  C   UNL     1     -41.626  54.243 -52.067  1.00  0.00    -0.026 A 
HETATM   11  C   UNL     1     -41.609  55.406 -51.270  1.00  0.00    -0.048 A 
HETATM   12  C   UNL     1     -40.741  53.196 -51.772  1.00  0.00     0.009 A 
HETATM   13  C   UNL     1     -40.733  55.483 -50.178  1.00  0.00     0.008 A 
HETATM   14  C   UNL     1     -42.563  56.550 -51.530  1.00  0.00     0.082 C 
HETATM   15  C   UNL     1     -39.866  54.430 -49.893  1.00  0.00     0.001 A 
HETATM   16  C   UNL     1     -39.868  53.289 -50.689  1.00  0.00     0.001 A 
ENDBRANCH   1   5
BRANCH   2  17
HETATM   17  C   UNL     1     -44.060  57.937 -55.422  1.00  0.00     0.708 A 
HETATM   18  N   UNL     1     -43.169  58.701 -56.005  1.00  0.00    -0.062 NA
HETATM   19  C   UNL     1     -42.872  58.082 -57.197  1.00  0.00     0.103 A 
HETATM   20  C   UNL     1     -43.597  56.904 -57.333  1.00  0.00     0.078 A 
HETATM   21  C   UNL     1     -41.993  58.471 -58.217  1.00  0.00     0.034 A 
HETATM   22  N   UNL     1     -44.336  56.827 -56.181  1.00  0.00    -0.188 N 
HETATM   23  C   UNL     1     -43.506  56.072 -58.450  1.00  0.00     0.032 A 
HETATM   24  H   UNL     1     -44.983  56.087 -55.951  1.00  0.00     0.184 HD
HETATM   25  C   UNL     1     -42.627  56.477 -59.461  1.00  0.00     0.002 A 
HETATM   26  C   UNL     1     -41.881  57.654 -59.349  1.00  0.00     0.002 A 
ENDBRANCH   2  17
TORSDOF 2
ENDMDL
MODEL 8
REMARK VINA RESULT:      -7.7      3.014      4.134
REMARK  2 active torsions:
REMARK  status: ('A' for Active; 'I' for Inactive)
REMARK    1  A    between atoms: C_9  and  C_10 
REMARK       I    between atoms: C_10  and  N_11 
REMARK    2  A    between atoms: N_11  and  C_12 
ROOT
HETATM    1  C   UNL     1     -43.061  55.519 -55.866  1.00  0.00     0.267 C 
HETATM    2  N   UNL     1     -43.710  56.711 -55.771  1.00  0.00    -0.156 N 
HETATM    3  O   UNL     1     -42.862  55.029 -56.987  1.00  0.00    -0.270 OA
HETATM    4  H   UNL     1     -44.033  57.111 -56.645  1.00  0.00     0.187 HD
ENDROOT
BRANCH   1   5
HETATM    5  C   UNL     1     -42.560  54.736 -54.633  1.00  0.00     0.282 C 
HETATM    6  N   UNL     1     -41.640  55.659 -53.825  1.00  0.00    -0.058 N 
HETATM    7  C   UNL     1     -41.173  55.046 -52.561  1.00  0.00     0.272 C 
HETATM    8  H   UNL     1     -40.843  55.910 -54.426  1.00  0.00     0.278 HD
HETATM    9  H   UNL     1     -42.129  56.548 -53.659  1.00  0.00     0.278 HD
HETATM   10  C   UNL     1     -40.640  53.656 -52.753  1.00  0.00    -0.026 A 
HETATM   11  C   UNL     1     -40.934  52.915 -53.914  1.00  0.00    -0.048 A 
HETATM   12  C   UNL     1     -39.882  53.063 -51.732  1.00  0.00     0.009 A 
HETATM   13  C   UNL     1     -40.438  51.609 -54.045  1.00  0.00     0.008 A 
HETATM   14  C   UNL     1     -41.723  53.519 -55.054  1.00  0.00     0.082 C 
HETATM   15  C   UNL     1     -39.679  51.036 -53.026  1.00  0.00     0.001 A 
HETATM   16  C   UNL     1     -39.402  51.762 -51.871  1.00  0.00     0.001 A 
ENDBRANCH   1   5
BRANCH   2  17
HETATM   17  C   UNL     1     -43.861  57.414 -54.607  1.00  0.00     0.708 A 
HETATM   18  N   UNL     1     -43.152  58.442 -54.211  1.00  0.00    -0.062 NA
HETATM   19  C   UNL     1     -43.659  58.792 -52.981  1.00  0.00     0.103 A 
HETATM   20  C   UNL     1     -44.712  57.957 -52.629  1.00  0.00     0.078 A 
HETATM   21  C   UNL     1     -43.266  59.812 -52.105  1.00  0.00     0.034 A 
HETATM   22  N   UNL     1     -44.832  57.096 -53.690  1.00  0.00    -0.188 N 
HETATM   23  C   UNL     1     -45.412  58.072 -51.427  1.00  0.00     0.032 A 
HETATM   24  H   UNL     1     -45.506  56.349 -53.763  1.00  0.00     0.184 HD
HETATM   25  C   UNL     1     -45.005  59.093 -50.561  1.00  0.00     0.002 A 
HETATM   26  C   UNL     1     -43.952  59.950 -50.892  1.00  0.00     0.002 A 
ENDBRANCH   2  17
TORSDOF 2
ENDMDL
MODEL 9
REMARK VINA RESULT:      -7.7      1.501      2.370
REMARK  2 active torsions:
REMARK  status: ('A' for Active; 'I' for Inactive)
REMARK    1  A    between atoms: C_9  and  C_10 
REMARK       I    between atoms: C_10  and  N_11 
REMARK    2  A    between atoms: N_11  and  C_12 
ROOT
HETATM    1  C   UNL     1     -41.293  55.077 -49.327  1.00  0.00     0.267 C 
HETATM    2  N   UNL     1     -41.626  56.315 -49.784  1.00  0.00    -0.156 N 
HETATM    3  O   UNL     1     -40.987  54.937 -48.134  1.00  0.00    -0.270 OA
HETATM    4  H   UNL     1     -41.559  57.069 -49.110  1.00  0.00     0.187 HD
ENDROOT
BRANCH   1   5
HETATM    5  C   UNL     1     -41.274  53.826 -50.233  1.00  0.00     0.282 C 
HETATM    6  N   UNL     1     -40.315  52.804 -49.611  1.00  0.00    -0.058 N 
HETATM    7  C   UNL     1     -40.287  51.519 -50.343  1.00  0.00     0.272 C 
HETATM    8  H   UNL     1     -39.378  53.231 -49.584  1.00  0.00     0.278 HD
HETATM    9  H   UNL     1     -40.567  52.674 -48.623  1.00  0.00     0.278 HD
HETATM   10  C   UNL     1     -40.122  51.698 -51.825  1.00  0.00    -0.026 A 
HETATM   11  C   UNL     1     -40.374  52.940 -52.442  1.00  0.00    -0.048 A 
HETATM   12  C   UNL     1     -39.767  50.596 -52.616  1.00  0.00     0.009 A 
HETATM   13  C   UNL     1     -40.234  53.061 -53.833  1.00  0.00     0.008 A 
HETATM   14  C   UNL     1     -40.731  54.163 -51.630  1.00  0.00     0.082 C 
HETATM   15  C   UNL     1     -39.873  51.960 -54.605  1.00  0.00     0.001 A 
HETATM   16  C   UNL     1     -39.641  50.728 -53.999  1.00  0.00     0.001 A 
ENDBRANCH   1   5
BRANCH   2  17
HETATM   17  C   UNL     1     -42.115  56.568 -51.036  1.00  0.00     0.708 A 
HETATM   18  N   UNL     1     -43.304  56.260 -51.494  1.00  0.00    -0.062 NA
HETATM   19  C   UNL     1     -43.324  56.694 -52.799  1.00  0.00     0.103 A 
HETATM   20  C   UNL     1     -42.114  57.290 -53.136  1.00  0.00     0.078 A 
HETATM   21  C   UNL     1     -44.341  56.609 -53.758  1.00  0.00     0.034 A 
HETATM   22  N   UNL     1     -41.366  57.210 -51.990  1.00  0.00    -0.188 N 
HETATM   23  C   UNL     1     -41.845  57.813 -54.402  1.00  0.00     0.032 A 
HETATM   24  H   UNL     1     -40.421  57.550 -51.885  1.00  0.00     0.184 HD
HETATM   25  C   UNL     1     -42.869  57.716 -55.350  1.00  0.00     0.002 A 
HETATM   26  C   UNL     1     -44.097  57.127 -55.037  1.00  0.00     0.002 A 
ENDBRANCH   2  17
TORSDOF 2
ENDMDL
MODEL 10
REMARK VINA RESULT:      -7.5     14.793     17.553
REMARK  2 active torsions:
REMARK  status: ('A' for Active; 'I' for Inactive)
REMARK    1  A    between atoms: C_9  and  C_10 
REMARK       I    between atoms: C_10  and  N_11 
REMARK    2  A    between atoms: N_11  and  C_12 
ROOT
HETATM    1  C   UNL     1     -35.509  41.793 -53.317  1.00  0.00     0.267 C 
HETATM    2  N   UNL     1     -35.066  41.959 -54.593  1.00  0.00    -0.156 N 
HETATM    3  O   UNL     1     -36.341  42.589 -52.859  1.00  0.00    -0.270 OA
HETATM    4  H   UNL     1     -35.425  42.770 -55.085  1.00  0.00     0.187 HD
ENDROOT
BRANCH   1   5
HETATM    5  C   UNL     1     -35.016  40.652 -52.400  1.00  0.00     0.282 C 
HETATM    6  N   UNL     1     -36.177  40.243 -51.485  1.00  0.00    -0.058 N 
HETATM    7  C   UNL     1     -35.851  39.085 -50.623  1.00  0.00     0.272 C 
HETATM    8  H   UNL     1     -36.430  41.063 -50.916  1.00  0.00     0.278 HD
HETATM    9  H   UNL     1     -37.007  40.064 -52.065  1.00  0.00     0.278 HD
HETATM   10  C   UNL     1     -34.534  39.238 -49.919  1.00  0.00    -0.026 A 
HETATM   11  C   UNL     1     -33.577  40.175 -50.356  1.00  0.00    -0.048 A 
HETATM   12  C   UNL     1     -34.227  38.393 -48.843  1.00  0.00     0.009 A 
HETATM   13  C   UNL     1     -32.347  40.270 -49.688  1.00  0.00     0.008 A 
HETATM   14  C   UNL     1     -33.872  41.127 -51.493  1.00  0.00     0.082 C 
HETATM   15  C   UNL     1     -32.060  39.430 -48.615  1.00  0.00     0.001 A 
HETATM   16  C   UNL     1     -32.997  38.491 -48.193  1.00  0.00     0.001 A 
ENDBRANCH   1   5
BRANCH   2  17
HETATM   17  C   UNL     1     -34.262  41.069 -55.250  1.00  0.00     0.708 A 
HETATM   18  N   UNL     1     -34.638  40.158 -56.114  1.00  0.00    -0.062 NA
HETATM   19  C   UNL     1     -33.488  39.500 -56.485  1.00  0.00     0.103 A 
HETATM   20  C   UNL     1     -32.384  40.037 -55.833  1.00  0.00     0.078 A 
HETATM   21  C   UNL     1     -33.311  38.431 -57.372  1.00  0.00     0.034 A 
HETATM   22  N   UNL     1     -32.902  41.046 -55.063  1.00  0.00    -0.188 N 
HETATM   23  C   UNL     1     -31.084  39.559 -56.008  1.00  0.00     0.032 A 
HETATM   24  H   UNL     1     -32.369  41.647 -54.452  1.00  0.00     0.184 HD
HETATM   25  C   UNL     1     -30.925  38.487 -56.894  1.00  0.00     0.002 A 
HETATM   26  C   UNL     1     -32.017  37.932 -57.567  1.00  0.00     0.002 A 
ENDBRANCH   2  17
TORSDOF 2
ENDMDL
