MODEL 1
REMARK VINA RESULT:      -7.0      0.000      0.000
REMARK  5 active torsions:
REMARK  status: ('A' for Active; 'I' for Inactive)
REMARK    1  A    between atoms: C_2  and  N_3 
REMARK       I    between atoms: N_3  and  C_4 
REMARK       I    between atoms: C_4  and  N_5 
REMARK    2  A    between atoms: N_5  and  C_6 
REMARK    3  A    between atoms: C_20  and  C_21 
REMARK    4  A    between atoms: C_21  and  O_22 
REMARK    5  A    between atoms: O_22  and  C_23 
ROOT
HETATM    1  C   UNL     1     -42.936  54.458 -54.712  1.00  0.00     0.095 A 
HETATM    2  S   UNL     1     -44.087  55.009 -53.592  1.00  0.00    -0.073 SA
HETATM    3  C   UNL     1     -43.045  54.795 -52.269  1.00  0.00     0.027 A 
HETATM    4  C   UNL     1     -41.782  54.407 -52.678  1.00  0.00    -0.021 A 
HETATM    5  C   UNL     1     -40.666  54.201 -51.686  1.00  0.00     0.079 C 
HETATM    6  C   UNL     1     -40.914  54.923 -50.337  1.00  0.00     0.124 C 
HETATM    7  C   UNL     1     -40.625  56.426 -50.425  1.00  0.00     0.046 C 
HETATM    8  C   UNL     1     -40.018  54.309 -49.248  1.00  0.00     0.046 C 
HETATM    9  N   UNL     1     -42.351  54.698 -49.876  1.00  0.00    -0.054 N 
HETATM   10  H   UNL     1     -42.433  53.697 -49.658  1.00  0.00     0.279 HD
HETATM   11  H   UNL     1     -42.516  55.182 -48.986  1.00  0.00     0.279 HD
HETATM   12  C   UNL     1     -43.495  55.021 -50.846  1.00  0.00     0.153 C 
HETATM   13  C   UNL     1     -44.636  54.057 -50.463  1.00  0.00     0.052 C 
HETATM   14  C   UNL     1     -43.951  56.465 -50.586  1.00  0.00     0.052 C 
HETATM   15  C   UNL     1     -41.709  54.187 -54.118  1.00  0.00     0.081 A 
ENDROOT
BRANCH   1  16
HETATM   16  N   UNL     1     -43.266  54.362 -56.055  1.00  0.00    -0.302 N 
HETATM   17  C   UNL     1     -43.096  55.335 -57.022  1.00  0.00     0.321 C 
HETATM   18  N   UNL     1     -43.493  54.860 -58.259  1.00  0.00    -0.343 N 
HETATM   19  O   UNL     1     -42.693  56.479 -56.854  1.00  0.00    -0.247 OA
HETATM   20  H   UNL     1     -43.350  53.871 -58.410  1.00  0.00     0.164 HD
HETATM   21  H   UNL     1     -43.883  53.602 -56.312  1.00  0.00     0.171 HD
BRANCH  18  22
HETATM   22  C   UNL     1     -43.390  55.701 -59.438  1.00  0.00     0.120 C 
HETATM   23  C   UNL     1     -44.505  55.434 -60.436  1.00  0.00     0.026 C 
ENDBRANCH  18  22
ENDBRANCH   1  16
BRANCH  15  24
HETATM   24  C   UNL     1     -40.512  53.706 -54.828  1.00  0.00     0.296 C 
HETATM   25  O   UNL     1     -39.627  54.465 -55.204  1.00  0.00    -0.259 OA
BRANCH  24  26
HETATM   26  O   UNL     1     -40.494  52.354 -55.019  1.00  0.00    -0.318 OA
BRANCH  26  27
HETATM   27  C   UNL     1     -39.837  51.584 -53.997  1.00  0.00     0.174 C 
HETATM   28  C   UNL     1     -40.054  50.103 -54.240  1.00  0.00     0.034 C 
ENDBRANCH  26  27
ENDBRANCH  24  26
ENDBRANCH  15  24
TORSDOF 5
ENDMDL
MODEL 2
REMARK VINA RESULT:      -6.7      3.305      5.688
REMARK  5 active torsions:
REMARK  status: ('A' for Active; 'I' for Inactive)
REMARK    1  A    between atoms: C_2  and  N_3 
REMARK       I    between atoms: N_3  and  C_4 
REMARK       I    between atoms: C_4  and  N_5 
REMARK    2  A    between atoms: N_5  and  C_6 
REMARK    3  A    between atoms: C_20  and  C_21 
REMARK    4  A    between atoms: C_21  and  O_22 
REMARK    5  A    between atoms: O_22  and  C_23 
ROOT
HETATM    1  C   UNL     1     -41.382  55.197 -52.694  1.00  0.00     0.095 A 
HETATM    2  S   UNL     1     -41.127  56.418 -53.845  1.00  0.00    -0.073 SA
HETATM    3  C   UNL     1     -42.387  57.384 -53.244  1.00  0.00     0.027 A 
HETATM    4  C   UNL     1     -42.939  56.838 -52.099  1.00  0.00    -0.021 A 
HETATM    5  C   UNL     1     -44.045  57.538 -51.352  1.00  0.00     0.079 C 
HETATM    6  C   UNL     1     -44.122  59.054 -51.666  1.00  0.00     0.124 C 
HETATM    7  C   UNL     1     -43.046  59.853 -50.923  1.00  0.00     0.046 C 
HETATM    8  C   UNL     1     -45.506  59.596 -51.268  1.00  0.00     0.046 C 
HETATM    9  N   UNL     1     -43.995  59.287 -53.169  1.00  0.00    -0.054 N 
HETATM   10  H   UNL     1     -44.840  58.885 -53.597  1.00  0.00     0.279 HD
HETATM   11  H   UNL     1     -44.041  60.292 -53.375  1.00  0.00     0.279 HD
HETATM   12  C   UNL     1     -42.803  58.672 -53.912  1.00  0.00     0.153 C 
HETATM   13  C   UNL     1     -43.307  58.417 -55.347  1.00  0.00     0.052 C 
HETATM   14  C   UNL     1     -41.675  59.714 -53.955  1.00  0.00     0.052 C 
HETATM   15  C   UNL     1     -42.367  55.536 -51.774  1.00  0.00     0.081 A 
ENDROOT
BRANCH   1  16
HETATM   16  N   UNL     1     -40.615  54.042 -52.727  1.00  0.00    -0.302 N 
HETATM   17  C   UNL     1     -40.805  52.944 -53.543  1.00  0.00     0.321 C 
HETATM   18  N   UNL     1     -39.810  52.007 -53.330  1.00  0.00    -0.343 N 
HETATM   19  O   UNL     1     -41.725  52.760 -54.329  1.00  0.00    -0.247 OA
HETATM   20  H   UNL     1     -38.907  52.382 -53.077  1.00  0.00     0.164 HD
HETATM   21  H   UNL     1     -39.994  53.893 -51.941  1.00  0.00     0.171 HD
BRANCH  18  22
HETATM   22  C   UNL     1     -39.789  50.768 -54.089  1.00  0.00     0.120 C 
HETATM   23  C   UNL     1     -39.618  49.549 -53.199  1.00  0.00     0.026 C 
ENDBRANCH  18  22
ENDBRANCH   1  16
BRANCH  15  24
HETATM   24  C   UNL     1     -42.805  54.690 -50.652  1.00  0.00     0.296 C 
HETATM   25  O   UNL     1     -43.987  54.536 -50.372  1.00  0.00    -0.259 OA
BRANCH  24  26
HETATM   26  O   UNL     1     -41.775  54.107 -49.970  1.00  0.00    -0.318 OA
BRANCH  26  27
HETATM   27  C   UNL     1     -41.143  54.922 -48.968  1.00  0.00     0.174 C 
HETATM   28  C   UNL     1     -40.337  54.054 -48.021  1.00  0.00     0.034 C 
ENDBRANCH  26  27
ENDBRANCH  24  26
ENDBRANCH  15  24
TORSDOF 5
ENDMDL
MODEL 3
REMARK VINA RESULT:      -6.7     14.385     16.157
REMARK  5 active torsions:
REMARK  status: ('A' for Active; 'I' for Inactive)
REMARK    1  A    between atoms: C_2  and  N_3 
REMARK       I    between atoms: N_3  and  C_4 
REMARK       I    between atoms: C_4  and  N_5 
REMARK    2  A    between atoms: N_5  and  C_6 
REMARK    3  A    between atoms: C_20  and  C_21 
REMARK    4  A    between atoms: C_21  and  O_22 
REMARK    5  A    between atoms: O_22  and  C_23 
ROOT
HETATM    1  C   UNL     1     -34.909  41.454 -55.609  1.00  0.00     0.095 A 
HETATM    2  S   UNL     1     -35.586  41.989 -54.147  1.00  0.00    -0.073 SA
HETATM    3  C   UNL     1     -34.723  40.859 -53.221  1.00  0.00     0.027 A 
HETATM    4  C   UNL     1     -33.834  40.140 -54.000  1.00  0.00    -0.021 A 
HETATM    5  C   UNL     1     -32.918  39.108 -53.395  1.00  0.00     0.079 C 
HETATM    6  C   UNL     1     -32.715  39.300 -51.870  1.00  0.00     0.124 C 
HETATM    7  C   UNL     1     -31.729  40.431 -51.556  1.00  0.00     0.046 C 
HETATM    8  C   UNL     1     -32.186  37.995 -51.249  1.00  0.00     0.046 C 
HETATM    9  N   UNL     1     -34.053  39.576 -51.191  1.00  0.00    -0.054 N 
HETATM   10  H   UNL     1     -34.606  38.713 -51.277  1.00  0.00     0.279 HD
HETATM   11  H   UNL     1     -33.917  39.709 -50.182  1.00  0.00     0.279 HD
HETATM   12  C   UNL     1     -34.935  40.707 -51.734  1.00  0.00     0.153 C 
HETATM   13  C   UNL     1     -36.383  40.279 -51.420  1.00  0.00     0.052 C 
HETATM   14  C   UNL     1     -34.610  41.988 -50.950  1.00  0.00     0.052 C 
HETATM   15  C   UNL     1     -33.947  40.469 -55.417  1.00  0.00     0.081 A 
ENDROOT
BRANCH   1  16
HETATM   16  N   UNL     1     -35.308  42.026 -56.808  1.00  0.00    -0.302 N 
HETATM   17  C   UNL     1     -36.249  41.530 -57.690  1.00  0.00     0.321 C 
HETATM   18  N   UNL     1     -36.420  42.401 -58.752  1.00  0.00    -0.343 N 
HETATM   19  O   UNL     1     -36.846  40.465 -57.610  1.00  0.00    -0.247 OA
HETATM   20  H   UNL     1     -36.298  43.380 -58.534  1.00  0.00     0.164 HD
HETATM   21  H   UNL     1     -34.708  42.752 -57.180  1.00  0.00     0.171 HD
BRANCH  18  22
HETATM   22  C   UNL     1     -37.375  42.101 -59.804  1.00  0.00     0.120 C 
HETATM   23  C   UNL     1     -37.457  43.207 -60.843  1.00  0.00     0.026 C 
ENDBRANCH  18  22
ENDBRANCH   1  16
BRANCH  15  24
HETATM   24  C   UNL     1     -33.177  39.817 -56.488  1.00  0.00     0.296 C 
HETATM   25  O   UNL     1     -33.697  39.062 -57.300  1.00  0.00    -0.259 OA
BRANCH  24  26
HETATM   26  O   UNL     1     -31.849  40.136 -56.480  1.00  0.00    -0.318 OA
BRANCH  26  27
HETATM   27  C   UNL     1     -30.948  39.090 -56.884  1.00  0.00     0.174 C 
HETATM   28  C   UNL     1     -30.199  38.553 -55.680  1.00  0.00     0.034 C 
ENDBRANCH  26  27
ENDBRANCH  24  26
ENDBRANCH  15  24
TORSDOF 5
ENDMDL
MODEL 4
REMARK VINA RESULT:      -6.3      2.945      7.015
REMARK  5 active torsions:
REMARK  status: ('A' for Active; 'I' for Inactive)
REMARK    1  A    between atoms: C_2  and  N_3 
REMARK       I    between atoms: N_3  and  C_4 
REMARK       I    between atoms: C_4  and  N_5 
REMARK    2  A    between atoms: N_5  and  C_6 
REMARK    3  A    between atoms: C_20  and  C_21 
REMARK    4  A    between atoms: C_21  and  O_22 
REMARK    5  A    between atoms: O_22  and  C_23 
ROOT
HETATM    1  C   UNL     1     -41.848  57.098 -54.548  1.00  0.00     0.095 A 
HETATM    2  S   UNL     1     -42.110  58.721 -54.971  1.00  0.00    -0.073 SA
HETATM    3  C   UNL     1     -42.561  58.336 -56.561  1.00  0.00     0.027 A 
HETATM    4  C   UNL     1     -42.620  56.967 -56.751  1.00  0.00    -0.021 A 
HETATM    5  C   UNL     1     -43.045  56.377 -58.072  1.00  0.00     0.079 C 
HETATM    6  C   UNL     1     -43.852  57.371 -58.946  1.00  0.00     0.124 C 
HETATM    7  C   UNL     1     -45.306  57.501 -58.480  1.00  0.00     0.046 C 
HETATM    8  C   UNL     1     -43.842  56.899 -60.411  1.00  0.00     0.046 C 
HETATM    9  N   UNL     1     -43.182  58.741 -58.941  1.00  0.00    -0.054 N 
HETATM   10  H   UNL     1     -42.285  58.627 -59.431  1.00  0.00     0.279 HD
HETATM   11  H   UNL     1     -43.721  59.400 -59.516  1.00  0.00     0.279 HD
HETATM   12  C   UNL     1     -42.856  59.397 -57.593  1.00  0.00     0.153 C 
HETATM   13  C   UNL     1     -41.616  60.274 -57.859  1.00  0.00     0.052 C 
HETATM   14  C   UNL     1     -44.034  60.301 -57.202  1.00  0.00     0.052 C 
HETATM   15  C   UNL     1     -42.183  56.224 -55.575  1.00  0.00     0.081 A 
ENDROOT
BRANCH   1  16
HETATM   16  N   UNL     1     -41.386  56.778 -53.280  1.00  0.00    -0.302 N 
HETATM   17  C   UNL     1     -42.141  56.336 -52.210  1.00  0.00     0.321 C 
HETATM   18  N   UNL     1     -41.327  56.067 -51.124  1.00  0.00    -0.343 N 
HETATM   19  O   UNL     1     -43.359  56.218 -52.166  1.00  0.00    -0.247 OA
HETATM   20  H   UNL     1     -40.401  55.733 -51.348  1.00  0.00     0.164 HD
HETATM   21  H   UNL     1     -40.455  57.100 -53.047  1.00  0.00     0.171 HD
BRANCH  18  22
HETATM   22  C   UNL     1     -41.895  55.572 -49.883  1.00  0.00     0.120 C 
HETATM   23  C   UNL     1     -40.890  54.781 -49.063  1.00  0.00     0.026 C 
ENDBRANCH  18  22
ENDBRANCH   1  16
BRANCH  15  24
HETATM   24  C   UNL     1     -42.077  54.757 -55.507  1.00  0.00     0.296 C 
HETATM   25  O   UNL     1     -43.053  54.026 -55.625  1.00  0.00    -0.259 OA
BRANCH  24  26
HETATM   26  O   UNL     1     -40.804  54.308 -55.303  1.00  0.00    -0.318 OA
BRANCH  26  27
HETATM   27  C   UNL     1     -40.684  53.028 -54.659  1.00  0.00     0.174 C 
HETATM   28  C   UNL     1     -40.542  53.210 -53.160  1.00  0.00     0.034 C 
ENDBRANCH  26  27
ENDBRANCH  24  26
ENDBRANCH  15  24
TORSDOF 5
ENDMDL
MODEL 5
REMARK VINA RESULT:      -6.2      3.089      6.536
REMARK  5 active torsions:
REMARK  status: ('A' for Active; 'I' for Inactive)
REMARK    1  A    between atoms: C_2  and  N_3 
REMARK       I    between atoms: N_3  and  C_4 
REMARK       I    between atoms: C_4  and  N_5 
REMARK    2  A    between atoms: N_5  and  C_6 
REMARK    3  A    between atoms: C_20  and  C_21 
REMARK    4  A    between atoms: C_21  and  O_22 
REMARK    5  A    between atoms: O_22  and  C_23 
ROOT
HETATM    1  C   UNL     1     -42.650  55.374 -55.532  1.00  0.00     0.095 A 
HETATM    2  S   UNL     1     -42.916  55.496 -57.204  1.00  0.00    -0.073 SA
HETATM    3  C   UNL     1     -43.315  57.143 -57.120  1.00  0.00     0.027 A 
HETATM    4  C   UNL     1     -43.143  57.639 -55.840  1.00  0.00    -0.021 A 
HETATM    5  C   UNL     1     -43.388  59.092 -55.523  1.00  0.00     0.079 C 
HETATM    6  C   UNL     1     -43.335  60.002 -56.778  1.00  0.00     0.124 C 
HETATM    7  C   UNL     1     -41.897  60.289 -57.222  1.00  0.00     0.046 C 
HETATM    8  C   UNL     1     -44.038  61.338 -56.480  1.00  0.00     0.046 C 
HETATM    9  N   UNL     1     -44.114  59.364 -57.924  1.00  0.00    -0.054 N 
HETATM   10  H   UNL     1     -45.102  59.364 -57.639  1.00  0.00     0.279 HD
HETATM   11  H   UNL     1     -44.074  59.964 -58.756  1.00  0.00     0.279 HD
HETATM   12  C   UNL     1     -43.783  57.921 -58.326  1.00  0.00     0.153 C 
HETATM   13  C   UNL     1     -45.100  57.343 -58.882  1.00  0.00     0.052 C 
HETATM   14  C   UNL     1     -42.740  57.964 -59.452  1.00  0.00     0.052 C 
HETATM   15  C   UNL     1     -42.769  56.600 -54.888  1.00  0.00     0.081 A 
ENDROOT
BRANCH   1  16
HETATM   16  N   UNL     1     -42.316  54.151 -54.971  1.00  0.00    -0.302 N 
HETATM   17  C   UNL     1     -41.044  53.643 -54.785  1.00  0.00     0.321 C 
HETATM   18  N   UNL     1     -41.103  52.418 -54.146  1.00  0.00    -0.343 N 
HETATM   19  O   UNL     1     -39.989  54.146 -55.149  1.00  0.00    -0.247 OA
HETATM   20  H   UNL     1     -41.865  52.305 -53.493  1.00  0.00     0.164 HD
HETATM   21  H   UNL     1     -43.066  53.476 -54.886  1.00  0.00     0.171 HD
BRANCH  18  22
HETATM   22  C   UNL     1     -39.884  51.695 -53.827  1.00  0.00     0.120 C 
HETATM   23  C   UNL     1     -39.885  50.284 -54.390  1.00  0.00     0.026 C 
ENDBRANCH  18  22
ENDBRANCH   1  16
BRANCH  15  24
HETATM   24  C   UNL     1     -42.584  56.819 -53.444  1.00  0.00     0.296 C 
HETATM   25  O   UNL     1     -41.671  57.504 -52.999  1.00  0.00    -0.259 OA
BRANCH  24  26
HETATM   26  O   UNL     1     -43.518  56.191 -52.670  1.00  0.00    -0.318 OA
BRANCH  26  27
HETATM   27  C   UNL     1     -43.018  55.527 -51.496  1.00  0.00     0.174 C 
HETATM   28  C   UNL     1     -43.361  54.051 -51.546  1.00  0.00     0.034 C 
ENDBRANCH  26  27
ENDBRANCH  24  26
ENDBRANCH  15  24
TORSDOF 5
ENDMDL
MODEL 6
REMARK VINA RESULT:      -6.2      3.888      5.447
REMARK  5 active torsions:
REMARK  status: ('A' for Active; 'I' for Inactive)
REMARK    1  A    between atoms: C_2  and  N_3 
REMARK       I    between atoms: N_3  and  C_4 
REMARK       I    between atoms: C_4  and  N_5 
REMARK    2  A    between atoms: N_5  and  C_6 
REMARK    3  A    between atoms: C_20  and  C_21 
REMARK    4  A    between atoms: C_21  and  O_22 
REMARK    5  A    between atoms: O_22  and  C_23 
ROOT
HETATM    1  C   UNL     1     -42.779  57.890 -54.568  1.00  0.00     0.095 A 
HETATM    2  S   UNL     1     -42.477  56.425 -55.371  1.00  0.00    -0.073 SA
HETATM    3  C   UNL     1     -41.745  55.719 -54.012  1.00  0.00     0.027 A 
HETATM    4  C   UNL     1     -41.822  56.549 -52.908  1.00  0.00    -0.021 A 
HETATM    5  C   UNL     1     -41.283  56.121 -51.567  1.00  0.00     0.079 C 
HETATM    6  C   UNL     1     -41.133  54.584 -51.438  1.00  0.00     0.124 C 
HETATM    7  C   UNL     1     -42.475  53.893 -51.175  1.00  0.00     0.046 C 
HETATM    8  C   UNL     1     -40.171  54.252 -50.284  1.00  0.00     0.046 C 
HETATM    9  N   UNL     1     -40.493  54.010 -52.698  1.00  0.00    -0.054 N 
HETATM   10  H   UNL     1     -39.529  54.368 -52.723  1.00  0.00     0.279 HD
HETATM   11  H   UNL     1     -40.399  52.991 -52.614  1.00  0.00     0.279 HD
HETATM   12  C   UNL     1     -41.112  54.349 -54.059  1.00  0.00     0.153 C 
HETATM   13  C   UNL     1     -39.939  54.312 -55.059  1.00  0.00     0.052 C 
HETATM   14  C   UNL     1     -42.113  53.240 -54.421  1.00  0.00     0.052 C 
HETATM   15  C   UNL     1     -42.414  57.843 -53.228  1.00  0.00     0.081 A 
ENDROOT
BRANCH   1  16
HETATM   16  N   UNL     1     -43.366  58.945 -55.250  1.00  0.00    -0.302 N 
HETATM   17  C   UNL     1     -42.715  59.952 -55.937  1.00  0.00     0.321 C 
HETATM   18  N   UNL     1     -43.632  60.798 -56.535  1.00  0.00    -0.343 N 
HETATM   19  O   UNL     1     -41.507  60.136 -56.006  1.00  0.00    -0.247 OA
HETATM   20  H   UNL     1     -44.492  60.363 -56.836  1.00  0.00     0.164 HD
HETATM   21  H   UNL     1     -44.343  59.122 -55.049  1.00  0.00     0.171 HD
BRANCH  18  22
HETATM   22  C   UNL     1     -43.182  61.928 -57.330  1.00  0.00     0.120 C 
HETATM   23  C   UNL     1     -43.170  63.224 -56.537  1.00  0.00     0.026 C 
ENDBRANCH  18  22
ENDBRANCH   1  16
BRANCH  15  24
HETATM   24  C   UNL     1     -42.564  58.951 -52.270  1.00  0.00     0.296 C 
HETATM   25  O   UNL     1     -43.631  59.202 -51.723  1.00  0.00    -0.259 OA
BRANCH  24  26
HETATM   26  O   UNL     1     -41.412  59.653 -52.060  1.00  0.00    -0.318 OA
BRANCH  26  27
HETATM   27  C   UNL     1     -40.978  59.756 -50.693  1.00  0.00     0.174 C 
HETATM   28  C   UNL     1     -39.498  59.443 -50.591  1.00  0.00     0.034 C 
ENDBRANCH  26  27
ENDBRANCH  24  26
ENDBRANCH  15  24
TORSDOF 5
ENDMDL
MODEL 7
REMARK VINA RESULT:      -6.1      3.244      6.776
REMARK  5 active torsions:
REMARK  status: ('A' for Active; 'I' for Inactive)
REMARK    1  A    between atoms: C_2  and  N_3 
REMARK       I    between atoms: N_3  and  C_4 
REMARK       I    between atoms: C_4  and  N_5 
REMARK    2  A    between atoms: N_5  and  C_6 
REMARK    3  A    between atoms: C_20  and  C_21 
REMARK    4  A    between atoms: C_21  and  O_22 
REMARK    5  A    between atoms: O_22  and  C_23 
ROOT
HETATM    1  C   UNL     1     -42.733  55.452 -55.490  1.00  0.00     0.095 A 
HETATM    2  S   UNL     1     -42.839  55.580 -57.179  1.00  0.00    -0.073 SA
HETATM    3  C   UNL     1     -43.338  57.201 -57.123  1.00  0.00     0.027 A 
HETATM    4  C   UNL     1     -43.322  57.690 -55.828  1.00  0.00    -0.021 A 
HETATM    5  C   UNL     1     -43.680  59.122 -55.527  1.00  0.00     0.079 C 
HETATM    6  C   UNL     1     -43.555  60.049 -56.763  1.00  0.00     0.124 C 
HETATM    7  C   UNL     1     -42.099  60.423 -57.061  1.00  0.00     0.046 C 
HETATM    8  C   UNL     1     -44.359  61.340 -56.527  1.00  0.00     0.046 C 
HETATM    9  N   UNL     1     -44.179  59.383 -57.986  1.00  0.00    -0.054 N 
HETATM   10  H   UNL     1     -45.189  59.325 -57.801  1.00  0.00     0.279 HD
HETATM   11  H   UNL     1     -44.091  59.996 -58.806  1.00  0.00     0.279 HD
HETATM   12  C   UNL     1     -43.728  57.967 -58.364  1.00  0.00     0.153 C 
HETATM   13  C   UNL     1     -44.948  57.323 -59.053  1.00  0.00     0.052 C 
HETATM   14  C   UNL     1     -42.583  58.083 -59.381  1.00  0.00     0.052 C 
HETATM   15  C   UNL     1     -42.985  56.661 -54.852  1.00  0.00     0.081 A 
ENDROOT
BRANCH   1  16
HETATM   16  N   UNL     1     -42.387  54.242 -54.907  1.00  0.00    -0.302 N 
HETATM   17  C   UNL     1     -41.112  53.737 -54.740  1.00  0.00     0.321 C 
HETATM   18  N   UNL     1     -41.156  52.528 -54.070  1.00  0.00    -0.343 N 
HETATM   19  O   UNL     1     -40.065  54.230 -55.141  1.00  0.00    -0.247 OA
HETATM   20  H   UNL     1     -41.902  52.431 -53.396  1.00  0.00     0.164 HD
HETATM   21  H   UNL     1     -43.136  53.570 -54.789  1.00  0.00     0.171 HD
BRANCH  18  22
HETATM   22  C   UNL     1     -39.931  51.810 -53.763  1.00  0.00     0.120 C 
HETATM   23  C   UNL     1     -39.934  50.397 -54.319  1.00  0.00     0.026 C 
ENDBRANCH  18  22
ENDBRANCH   1  16
BRANCH  15  24
HETATM   24  C   UNL     1     -42.957  56.871 -53.395  1.00  0.00     0.296 C 
HETATM   25  O   UNL     1     -43.969  57.121 -52.752  1.00  0.00    -0.259 OA
BRANCH  24  26
HETATM   26  O   UNL     1     -41.710  56.760 -52.849  1.00  0.00    -0.318 OA
BRANCH  26  27
HETATM   27  C   UNL     1     -40.706  57.635 -53.392  1.00  0.00     0.174 C 
HETATM   28  C   UNL     1     -40.907  59.046 -52.872  1.00  0.00     0.034 C 
ENDBRANCH  26  27
ENDBRANCH  24  26
ENDBRANCH  15  24
TORSDOF 5
ENDMDL
MODEL 8
REMARK VINA RESULT:      -6.0     14.110     16.393
REMARK  5 active torsions:
REMARK  status: ('A' for Active; 'I' for Inactive)
REMARK    1  A    between atoms: C_2  and  N_3 
REMARK       I    between atoms: N_3  and  C_4 
REMARK       I    between atoms: C_4  and  N_5 
REMARK    2  A    between atoms: N_5  and  C_6 
REMARK    3  A    between atoms: C_20  and  C_21 
REMARK    4  A    between atoms: C_21  and  O_22 
REMARK    5  A    between atoms: O_22  and  C_23 
ROOT
HETATM    1  C   UNL     1     -35.342  40.403 -54.652  1.00  0.00     0.095 A 
HETATM    2  S   UNL     1     -34.425  39.003 -54.935  1.00  0.00    -0.073 SA
HETATM    3  C   UNL     1     -33.578  39.144 -53.471  1.00  0.00     0.027 A 
HETATM    4  C   UNL     1     -34.060  40.192 -52.707  1.00  0.00    -0.021 A 
HETATM    5  C   UNL     1     -33.498  40.489 -51.341  1.00  0.00     0.079 C 
HETATM    6  C   UNL     1     -32.762  39.277 -50.713  1.00  0.00     0.124 C 
HETATM    7  C   UNL     1     -33.737  38.242 -50.143  1.00  0.00     0.046 C 
HETATM    8  C   UNL     1     -31.837  39.761 -49.583  1.00  0.00     0.046 C 
HETATM    9  N   UNL     1     -31.854  38.619 -51.748  1.00  0.00    -0.054 N 
HETATM   10  H   UNL     1     -31.112  39.299 -51.957  1.00  0.00     0.279 HD
HETATM   11  H   UNL     1     -31.372  37.813 -51.333  1.00  0.00     0.279 HD
HETATM   12  C   UNL     1     -32.454  38.208 -53.098  1.00  0.00     0.153 C 
HETATM   13  C   UNL     1     -31.290  38.308 -54.105  1.00  0.00     0.052 C 
HETATM   14  C   UNL     1     -32.904  36.743 -52.997  1.00  0.00     0.052 C 
HETATM   15  C   UNL     1     -35.089  40.956 -53.402  1.00  0.00     0.081 A 
ENDROOT
BRANCH   1  16
HETATM   16  N   UNL     1     -36.245  40.845 -55.607  1.00  0.00    -0.302 N 
HETATM   17  C   UNL     1     -35.945  41.436 -56.820  1.00  0.00     0.321 C 
HETATM   18  N   UNL     1     -37.105  41.694 -57.529  1.00  0.00    -0.343 N 
HETATM   19  O   UNL     1     -34.836  41.742 -57.238  1.00  0.00    -0.247 OA
HETATM   20  H   UNL     1     -37.859  41.038 -57.383  1.00  0.00     0.164 HD
HETATM   21  H   UNL     1     -37.206  40.946 -55.304  1.00  0.00     0.171 HD
BRANCH  18  22
HETATM   22  C   UNL     1     -37.042  42.300 -58.848  1.00  0.00     0.120 C 
HETATM   23  C   UNL     1     -37.346  41.306 -59.956  1.00  0.00     0.026 C 
ENDBRANCH  18  22
ENDBRANCH   1  16
BRANCH  15  24
HETATM   24  C   UNL     1     -35.736  42.164 -52.864  1.00  0.00     0.296 C 
HETATM   25  O   UNL     1     -35.096  43.076 -52.355  1.00  0.00    -0.259 OA
BRANCH  24  26
HETATM   26  O   UNL     1     -37.096  42.160 -52.990  1.00  0.00    -0.318 OA
BRANCH  26  27
HETATM   27  C   UNL     1     -37.791  41.125 -52.272  1.00  0.00     0.174 C 
HETATM   28  C   UNL     1     -39.254  41.108 -52.668  1.00  0.00     0.034 C 
ENDBRANCH  26  27
ENDBRANCH  24  26
ENDBRANCH  15  24
TORSDOF 5
ENDMDL
MODEL 9
REMARK VINA RESULT:      -6.0      3.407      7.779
REMARK  5 active torsions:
REMARK  status: ('A' for Active; 'I' for Inactive)
REMARK    1  A    between atoms: C_2  and  N_3 
REMARK       I    between atoms: N_3  and  C_4 
REMARK       I    between atoms: C_4  and  N_5 
REMARK    2  A    between atoms: N_5  and  C_6 
REMARK    3  A    between atoms: C_20  and  C_21 
REMARK    4  A    between atoms: C_21  and  O_22 
REMARK    5  A    between atoms: O_22  and  C_23 
ROOT
HETATM    1  C   UNL     1     -42.296  58.407 -56.141  1.00  0.00     0.095 A 
HETATM    2  S   UNL     1     -42.566  59.537 -57.379  1.00  0.00    -0.073 SA
HETATM    3  C   UNL     1     -43.137  58.361 -58.461  1.00  0.00     0.027 A 
HETATM    4  C   UNL     1     -43.229  57.120 -57.856  1.00  0.00    -0.021 A 
HETATM    5  C   UNL     1     -43.758  55.922 -58.602  1.00  0.00     0.079 C 
HETATM    6  C   UNL     1     -44.613  56.307 -59.836  1.00  0.00     0.124 C 
HETATM    7  C   UNL     1     -46.027  56.749 -59.444  1.00  0.00     0.046 C 
HETATM    8  C   UNL     1     -44.717  55.104 -60.790  1.00  0.00     0.046 C 
HETATM    9  N   UNL     1     -43.925  57.414 -60.629  1.00  0.00    -0.054 N 
HETATM   10  H   UNL     1     -43.068  57.002 -61.020  1.00  0.00     0.279 HD
HETATM   11  H   UNL     1     -44.495  57.672 -61.443  1.00  0.00     0.279 HD
HETATM   12  C   UNL     1     -43.492  58.687 -59.891  1.00  0.00     0.153 C 
HETATM   13  C   UNL     1     -42.263  59.206 -60.665  1.00  0.00     0.052 C 
HETATM   14  C   UNL     1     -44.626  59.717 -60.006  1.00  0.00     0.052 C 
HETATM   15  C   UNL     1     -42.718  57.130 -56.490  1.00  0.00     0.081 A 
ENDROOT
BRANCH   1  16
HETATM   16  N   UNL     1     -41.747  58.818 -54.935  1.00  0.00    -0.302 N 
HETATM   17  C   UNL     1     -42.431  59.107 -53.770  1.00  0.00     0.321 C 
HETATM   18  N   UNL     1     -41.543  59.433 -52.759  1.00  0.00    -0.343 N 
HETATM   19  O   UNL     1     -43.644  59.125 -53.611  1.00  0.00    -0.247 OA
HETATM   20  H   UNL     1     -40.650  58.963 -52.797  1.00  0.00     0.164 HD
HETATM   21  H   UNL     1     -40.789  59.145 -54.966  1.00  0.00     0.171 HD
BRANCH  18  22
HETATM   22  C   UNL     1     -42.029  59.760 -51.430  1.00  0.00     0.120 C 
HETATM   23  C   UNL     1     -40.923  59.739 -50.389  1.00  0.00     0.026 C 
ENDBRANCH  18  22
ENDBRANCH   1  16
BRANCH  15  24
HETATM   24  C   UNL     1     -42.627  55.942 -55.625  1.00  0.00     0.296 C 
HETATM   25  O   UNL     1     -43.604  55.476 -55.052  1.00  0.00    -0.259 OA
BRANCH  24  26
HETATM   26  O   UNL     1     -41.366  55.426 -55.532  1.00  0.00    -0.318 OA
BRANCH  26  27
HETATM   27  C   UNL     1     -40.801  55.382 -54.210  1.00  0.00     0.174 C 
HETATM   28  C   UNL     1     -40.523  53.946 -53.810  1.00  0.00     0.034 C 
ENDBRANCH  26  27
ENDBRANCH  24  26
ENDBRANCH  15  24
TORSDOF 5
ENDMDL
MODEL 10
REMARK VINA RESULT:      -6.0      3.790      6.120
REMARK  5 active torsions:
REMARK  status: ('A' for Active; 'I' for Inactive)
REMARK    1  A    between atoms: C_2  and  N_3 
REMARK       I    between atoms: N_3  and  C_4 
REMARK       I    between atoms: C_4  and  N_5 
REMARK    2  A    between atoms: N_5  and  C_6 
REMARK    3  A    between atoms: C_20  and  C_21 
REMARK    4  A    between atoms: C_21  and  O_22 
REMARK    5  A    between atoms: O_22  and  C_23 
ROOT
HETATM    1  C   UNL     1     -42.242  56.578 -53.691  1.00  0.00     0.095 A 
HETATM    2  S   UNL     1     -42.631  57.414 -55.116  1.00  0.00    -0.073 SA
HETATM    3  C   UNL     1     -43.852  58.323 -54.365  1.00  0.00     0.027 A 
HETATM    4  C   UNL     1     -43.901  58.077 -53.004  1.00  0.00    -0.021 A 
HETATM    5  C   UNL     1     -44.874  58.803 -52.111  1.00  0.00     0.079 C 
HETATM    6  C   UNL     1     -45.396  60.123 -52.733  1.00  0.00     0.124 C 
HETATM    7  C   UNL     1     -44.372  61.258 -52.623  1.00  0.00     0.046 C 
HETATM    8  C   UNL     1     -46.691  60.554 -52.021  1.00  0.00     0.046 C 
HETATM    9  N   UNL     1     -45.773  59.904 -54.195  1.00  0.00    -0.054 N 
HETATM   10  H   UNL     1     -46.585  59.272 -54.194  1.00  0.00     0.279 HD
HETATM   11  H   UNL     1     -46.114  60.780 -54.607  1.00  0.00     0.279 HD
HETATM   12  C   UNL     1     -44.739  59.272 -55.135  1.00  0.00     0.153 C 
HETATM   13  C   UNL     1     -45.564  58.522 -56.200  1.00  0.00     0.052 C 
HETATM   14  C   UNL     1     -43.954  60.404 -55.815  1.00  0.00     0.052 C 
HETATM   15  C   UNL     1     -42.967  57.034 -52.596  1.00  0.00     0.081 A 
ENDROOT
BRANCH   1  16
HETATM   16  N   UNL     1     -41.267  55.592 -53.711  1.00  0.00    -0.302 N 
HETATM   17  C   UNL     1     -41.468  54.226 -53.654  1.00  0.00     0.321 C 
HETATM   18  N   UNL     1     -40.260  53.557 -53.751  1.00  0.00    -0.343 N 
HETATM   19  O   UNL     1     -42.533  53.643 -53.503  1.00  0.00    -0.247 OA
HETATM   20  H   UNL     1     -39.558  54.009 -54.318  1.00  0.00     0.164 HD
HETATM   21  H   UNL     1     -40.318  55.897 -53.532  1.00  0.00     0.171 HD
BRANCH  18  22
HETATM   22  C   UNL     1     -40.219  52.106 -53.731  1.00  0.00     0.120 C 
HETATM   23  C   UNL     1     -39.578  51.562 -52.466  1.00  0.00     0.026 C 
ENDBRANCH  18  22
ENDBRANCH   1  16
BRANCH  15  24
HETATM   24  C   UNL     1     -42.844  56.515 -51.224  1.00  0.00     0.296 C 
HETATM   25  O   UNL     1     -43.790  56.013 -50.629  1.00  0.00    -0.259 OA
BRANCH  24  26
HETATM   26  O   UNL     1     -41.592  56.649 -50.697  1.00  0.00    -0.318 OA
BRANCH  26  27
HETATM   27  C   UNL     1     -41.269  55.766 -49.609  1.00  0.00     0.174 C 
HETATM   28  C   UNL     1     -40.465  54.585 -50.117  1.00  0.00     0.034 C 
ENDBRANCH  26  27
ENDBRANCH  24  26
ENDBRANCH  15  24
TORSDOF 5
ENDMDL
