MODEL 1
REMARK VINA RESULT:      -8.2      0.000      0.000
REMARK  3 active torsions:
REMARK  status: ('A' for Active; 'I' for Inactive)
REMARK    1  A    between atoms: C_2  and  N_3 
REMARK       I    between atoms: N_3  and  C_4 
REMARK    2  A    between atoms: C_4  and  C_5 
REMARK    3  A    between atoms: C_5  and  C_6 
ROOT
HETATM    1  C   UNL     1     -41.583  55.555 -50.637  1.00  0.00     0.286 C 
HETATM    2  N   UNL     1     -42.286  54.672 -51.674  1.00  0.00    -0.056 N 
HETATM    3  H   UNL     1     -41.920  53.705 -51.593  1.00  0.00     0.278 HD
HETATM    4  H   UNL     1     -43.289  54.622 -51.447  1.00  0.00     0.278 HD
HETATM    5  C   UNL     1     -42.101  55.105 -53.106  1.00  0.00     0.209 C 
HETATM    6  C   UNL     1     -42.434  56.604 -53.235  1.00  0.00     0.115 C 
HETATM    7  N   UNL     1     -41.628  57.398 -52.324  1.00  0.00    -0.353 N 
HETATM    8  C   UNL     1     -41.396  57.032 -51.024  1.00  0.00     0.249 C 
HETATM    9  O   UNL     1     -41.017  57.868 -50.210  1.00  0.00    -0.271 OA
HETATM   10  C   UNL     1     -42.988  54.260 -54.015  1.00  0.00     0.035 C 
HETATM   11  C   UNL     1     -42.835  54.709 -55.469  1.00  0.00     0.002 C 
HETATM   12  C   UNL     1     -43.088  56.207 -55.640  1.00  0.00     0.002 C 
HETATM   13  C   UNL     1     -42.245  57.053 -54.685  1.00  0.00     0.027 C 
HETATM   14  H   UNL     1     -41.557  58.404 -52.475  1.00  0.00     0.163 HD
ENDROOT
BRANCH   1  15
HETATM   15  C   UNL     1     -40.281  54.938 -50.118  1.00  0.00     0.146 C 
BRANCH  15  16
HETATM   16  C   UNL     1     -40.537  53.706 -49.307  1.00  0.00     0.224 C 
HETATM   17  N   UNL     1     -40.432  52.429 -49.732  1.00  0.00    -0.327 N 
HETATM   18  H   UNL     1     -40.666  51.796 -48.971  1.00  0.00     0.169 HD
HETATM   19  O   UNL     1     -41.007  53.891 -48.171  1.00  0.00    -0.273 OA
BRANCH  17  20
HETATM   20  C   UNL     1     -40.098  51.774 -50.933  1.00  0.00     0.034 A 
HETATM   21  C   UNL     1     -39.947  52.360 -52.189  1.00  0.00     0.032 A 
HETATM   22  C   UNL     1     -39.643  51.578 -53.312  1.00  0.00     0.044 A 
HETATM   23  C   UNL     1     -39.481  50.207 -53.184  1.00  0.00     0.116 A 
HETATM   24  C   UNL     1     -39.610  49.599 -51.946  1.00  0.00     0.044 A 
HETATM   25  F   UNL     1     -39.195  49.468 -54.261  1.00  0.00    -0.206 F 
HETATM   26  C   UNL     1     -39.914  50.382 -50.828  1.00  0.00     0.032 A 
ENDBRANCH  17  20
ENDBRANCH  15  16
ENDBRANCH   1  15
TORSDOF 3
ENDMDL
MODEL 2
REMARK VINA RESULT:      -8.1      2.554      5.671
REMARK  3 active torsions:
REMARK  status: ('A' for Active; 'I' for Inactive)
REMARK    1  A    between atoms: C_2  and  N_3 
REMARK       I    between atoms: N_3  and  C_4 
REMARK    2  A    between atoms: C_4  and  C_5 
REMARK    3  A    between atoms: C_5  and  C_6 
ROOT
HETATM    1  C   UNL     1     -40.760  54.602 -51.450  1.00  0.00     0.286 C 
HETATM    2  N   UNL     1     -40.495  53.992 -52.832  1.00  0.00    -0.056 N 
HETATM    3  H   UNL     1     -41.176  54.388 -53.507  1.00  0.00     0.278 HD
HETATM    4  H   UNL     1     -39.563  54.287 -53.154  1.00  0.00     0.278 HD
HETATM    5  C   UNL     1     -40.615  52.491 -52.897  1.00  0.00     0.209 C 
HETATM    6  C   UNL     1     -39.779  51.862 -51.767  1.00  0.00     0.115 C 
HETATM    7  N   UNL     1     -40.180  52.378 -50.470  1.00  0.00    -0.353 N 
HETATM    8  C   UNL     1     -40.434  53.704 -50.244  1.00  0.00     0.249 C 
HETATM    9  O   UNL     1     -40.430  54.143 -49.098  1.00  0.00    -0.271 OA
HETATM   10  C   UNL     1     -40.156  52.001 -54.266  1.00  0.00     0.035 C 
HETATM   11  C   UNL     1     -40.241  50.475 -54.337  1.00  0.00     0.002 C 
HETATM   12  C   UNL     1     -39.481  49.801 -53.194  1.00  0.00     0.002 C 
HETATM   13  C   UNL     1     -39.896  50.338 -51.823  1.00  0.00     0.027 C 
HETATM   14  H   UNL     1     -39.897  51.876 -49.629  1.00  0.00     0.163 HD
ENDROOT
BRANCH   1  15
HETATM   15  C   UNL     1     -42.157  55.220 -51.333  1.00  0.00     0.146 C 
BRANCH  15  16
HETATM   16  C   UNL     1     -43.214  54.303 -51.867  1.00  0.00     0.224 C 
HETATM   17  N   UNL     1     -43.743  54.327 -53.109  1.00  0.00    -0.327 N 
HETATM   18  H   UNL     1     -44.442  53.593 -53.196  1.00  0.00     0.169 HD
HETATM   19  O   UNL     1     -43.733  53.533 -51.042  1.00  0.00    -0.273 OA
BRANCH  17  20
HETATM   20  C   UNL     1     -43.579  55.095 -54.278  1.00  0.00     0.034 A 
HETATM   21  C   UNL     1     -43.898  56.442 -54.442  1.00  0.00     0.032 A 
HETATM   22  C   UNL     1     -43.712  57.076 -55.678  1.00  0.00     0.044 A 
HETATM   23  C   UNL     1     -43.199  56.368 -56.755  1.00  0.00     0.116 A 
HETATM   24  C   UNL     1     -42.859  55.034 -56.617  1.00  0.00     0.044 A 
HETATM   25  F   UNL     1     -43.029  56.980 -57.932  1.00  0.00    -0.206 F 
HETATM   26  C   UNL     1     -43.047  54.403 -55.383  1.00  0.00     0.032 A 
ENDBRANCH  17  20
ENDBRANCH  15  16
ENDBRANCH   1  15
TORSDOF 3
ENDMDL
MODEL 3
REMARK VINA RESULT:      -8.1      2.058      3.194
REMARK  3 active torsions:
REMARK  status: ('A' for Active; 'I' for Inactive)
REMARK    1  A    between atoms: C_2  and  N_3 
REMARK       I    between atoms: N_3  and  C_4 
REMARK    2  A    between atoms: C_4  and  C_5 
REMARK    3  A    between atoms: C_5  and  C_6 
ROOT
HETATM    1  C   UNL     1     -41.725  55.499 -51.910  1.00  0.00     0.286 C 
HETATM    2  N   UNL     1     -41.013  56.727 -51.332  1.00  0.00    -0.056 N 
HETATM    3  H   UNL     1     -40.541  56.454 -50.450  1.00  0.00     0.278 HD
HETATM    4  H   UNL     1     -40.270  57.019 -51.981  1.00  0.00     0.278 HD
HETATM    5  C   UNL     1     -41.914  57.894 -51.018  1.00  0.00     0.209 C 
HETATM    6  C   UNL     1     -42.796  58.204 -52.243  1.00  0.00     0.115 C 
HETATM    7  N   UNL     1     -43.553  57.034 -52.651  1.00  0.00    -0.353 N 
HETATM    8  C   UNL     1     -43.007  55.779 -52.715  1.00  0.00     0.249 C 
HETATM    9  O   UNL     1     -43.557  54.904 -53.375  1.00  0.00    -0.271 OA
HETATM   10  C   UNL     1     -41.069  59.101 -50.623  1.00  0.00     0.035 C 
HETATM   11  C   UNL     1     -41.968  60.304 -50.333  1.00  0.00     0.002 C 
HETATM   12  C   UNL     1     -42.914  60.611 -51.495  1.00  0.00     0.002 C 
HETATM   13  C   UNL     1     -43.716  59.385 -51.933  1.00  0.00     0.027 C 
HETATM   14  H   UNL     1     -44.352  57.154 -53.273  1.00  0.00     0.163 HD
ENDROOT
BRANCH   1  15
HETATM   15  C   UNL     1     -41.941  54.395 -50.871  1.00  0.00     0.146 C 
BRANCH  15  16
HETATM   16  C   UNL     1     -40.644  53.903 -50.308  1.00  0.00     0.224 C 
HETATM   17  N   UNL     1     -39.846  52.954 -50.843  1.00  0.00    -0.327 N 
HETATM   18  H   UNL     1     -39.031  52.819 -50.248  1.00  0.00     0.169 HD
HETATM   19  O   UNL     1     -40.345  54.329 -49.180  1.00  0.00    -0.273 OA
BRANCH  17  20
HETATM   20  C   UNL     1     -39.863  52.123 -51.979  1.00  0.00     0.034 A 
HETATM   21  C   UNL     1     -40.159  52.504 -53.287  1.00  0.00     0.032 A 
HETATM   22  C   UNL     1     -40.170  51.559 -54.322  1.00  0.00     0.044 A 
HETATM   23  C   UNL     1     -39.879  50.230 -54.057  1.00  0.00     0.116 A 
HETATM   24  C   UNL     1     -39.567  49.825 -52.771  1.00  0.00     0.044 A 
HETATM   25  F   UNL     1     -39.897  49.334 -55.050  1.00  0.00    -0.206 F 
HETATM   26  C   UNL     1     -39.557  50.769 -51.739  1.00  0.00     0.032 A 
ENDBRANCH  17  20
ENDBRANCH  15  16
ENDBRANCH   1  15
TORSDOF 3
ENDMDL
MODEL 4
REMARK VINA RESULT:      -8.0     13.704     16.032
REMARK  3 active torsions:
REMARK  status: ('A' for Active; 'I' for Inactive)
REMARK    1  A    between atoms: C_2  and  N_3 
REMARK       I    between atoms: N_3  and  C_4 
REMARK    2  A    between atoms: C_4  and  C_5 
REMARK    3  A    between atoms: C_5  and  C_6 
ROOT
HETATM    1  C   UNL     1     -34.147  40.514 -54.918  1.00  0.00     0.286 C 
HETATM    2  N   UNL     1     -34.818  40.143 -53.591  1.00  0.00    -0.056 N 
HETATM    3  H   UNL     1     -35.706  40.672 -53.506  1.00  0.00     0.278 HD
HETATM    4  H   UNL     1     -35.076  39.147 -53.614  1.00  0.00     0.278 HD
HETATM    5  C   UNL     1     -33.998  40.437 -52.361  1.00  0.00     0.209 C 
HETATM    6  C   UNL     1     -32.586  39.845 -52.534  1.00  0.00     0.115 C 
HETATM    7  N   UNL     1     -31.951  40.351 -53.738  1.00  0.00    -0.353 N 
HETATM    8  C   UNL     1     -32.609  40.467 -54.933  1.00  0.00     0.249 C 
HETATM    9  O   UNL     1     -31.973  40.564 -55.977  1.00  0.00    -0.271 OA
HETATM   10  C   UNL     1     -34.694  39.862 -51.132  1.00  0.00     0.035 C 
HETATM   11  C   UNL     1     -33.858  40.124 -49.879  1.00  0.00     0.002 C 
HETATM   12  C   UNL     1     -32.423  39.616 -50.025  1.00  0.00     0.002 C 
HETATM   13  C   UNL     1     -31.745  40.142 -51.291  1.00  0.00     0.027 C 
HETATM   14  H   UNL     1     -30.942  40.248 -53.845  1.00  0.00     0.163 HD
ENDROOT
BRANCH   1  15
HETATM   15  C   UNL     1     -34.677  41.827 -55.503  1.00  0.00     0.146 C 
BRANCH  15  16
HETATM   16  C   UNL     1     -36.115  42.051 -55.148  1.00  0.00     0.224 C 
HETATM   17  N   UNL     1     -37.184  41.800 -55.934  1.00  0.00    -0.327 N 
HETATM   18  H   UNL     1     -38.037  42.048 -55.438  1.00  0.00     0.169 HD
HETATM   19  O   UNL     1     -36.324  42.637 -54.073  1.00  0.00    -0.273 OA
BRANCH  17  20
HETATM   20  C   UNL     1     -37.406  41.303 -57.233  1.00  0.00     0.034 A 
HETATM   21  C   UNL     1     -37.960  40.070 -57.570  1.00  0.00     0.032 A 
HETATM   22  C   UNL     1     -38.094  39.688 -58.913  1.00  0.00     0.044 A 
HETATM   23  C   UNL     1     -37.680  40.541 -59.924  1.00  0.00     0.116 A 
HETATM   24  C   UNL     1     -37.139  41.779 -59.619  1.00  0.00     0.044 A 
HETATM   25  F   UNL     1     -37.807  40.167 -61.202  1.00  0.00    -0.206 F 
HETATM   26  C   UNL     1     -37.006  42.157 -58.279  1.00  0.00     0.032 A 
ENDBRANCH  17  20
ENDBRANCH  15  16
ENDBRANCH   1  15
TORSDOF 3
ENDMDL
MODEL 5
REMARK VINA RESULT:      -7.9      2.263      4.082
REMARK  3 active torsions:
REMARK  status: ('A' for Active; 'I' for Inactive)
REMARK    1  A    between atoms: C_2  and  N_3 
REMARK       I    between atoms: N_3  and  C_4 
REMARK    2  A    between atoms: C_4  and  C_5 
REMARK    3  A    between atoms: C_5  and  C_6 
ROOT
HETATM    1  C   UNL     1     -43.507  55.294 -53.385  1.00  0.00     0.286 C 
HETATM    2  N   UNL     1     -42.956  56.690 -53.700  1.00  0.00    -0.056 N 
HETATM    3  H   UNL     1     -42.697  56.728 -54.704  1.00  0.00     0.278 HD
HETATM    4  H   UNL     1     -43.705  57.383 -53.567  1.00  0.00     0.278 HD
HETATM    5  C   UNL     1     -41.738  57.086 -52.905  1.00  0.00     0.209 C 
HETATM    6  C   UNL     1     -42.004  56.843 -51.407  1.00  0.00     0.115 C 
HETATM    7  N   UNL     1     -42.382  55.463 -51.160  1.00  0.00    -0.353 N 
HETATM    8  C   UNL     1     -43.263  54.780 -51.956  1.00  0.00     0.249 C 
HETATM    9  O   UNL     1     -43.811  53.766 -51.535  1.00  0.00    -0.271 OA
HETATM   10  C   UNL     1     -41.401  58.548 -53.179  1.00  0.00     0.035 C 
HETATM   11  C   UNL     1     -40.186  58.974 -52.354  1.00  0.00     0.002 C 
HETATM   12  C   UNL     1     -40.371  58.690 -50.863  1.00  0.00     0.002 C 
HETATM   13  C   UNL     1     -40.771  57.239 -50.592  1.00  0.00     0.027 C 
HETATM   14  H   UNL     1     -42.341  55.101 -50.208  1.00  0.00     0.163 HD
ENDROOT
BRANCH   1  15
HETATM   15  C   UNL     1     -43.113  54.251 -54.435  1.00  0.00     0.146 C 
BRANCH  15  16
HETATM   16  C   UNL     1     -41.719  54.469 -54.937  1.00  0.00     0.224 C 
HETATM   17  N   UNL     1     -40.602  53.851 -54.495  1.00  0.00    -0.327 N 
HETATM   18  H   UNL     1     -39.796  54.193 -55.012  1.00  0.00     0.169 HD
HETATM   19  O   UNL     1     -41.572  55.396 -55.751  1.00  0.00    -0.273 OA
BRANCH  17  20
HETATM   20  C   UNL     1     -40.283  52.885 -53.521  1.00  0.00     0.034 A 
HETATM   21  C   UNL     1     -40.184  53.090 -52.146  1.00  0.00     0.032 A 
HETATM   22  C   UNL     1     -39.823  52.039 -51.290  1.00  0.00     0.044 A 
HETATM   23  C   UNL     1     -39.567  50.777 -51.805  1.00  0.00     0.116 A 
HETATM   24  C   UNL     1     -39.672  50.542 -53.165  1.00  0.00     0.044 A 
HETATM   25  F   UNL     1     -39.219  49.782 -50.982  1.00  0.00    -0.206 F 
HETATM   26  C   UNL     1     -40.031  51.591 -54.016  1.00  0.00     0.032 A 
ENDBRANCH  17  20
ENDBRANCH  15  16
ENDBRANCH   1  15
TORSDOF 3
ENDMDL
MODEL 6
REMARK VINA RESULT:      -7.9      1.993      5.709
REMARK  3 active torsions:
REMARK  status: ('A' for Active; 'I' for Inactive)
REMARK    1  A    between atoms: C_2  and  N_3 
REMARK       I    between atoms: N_3  and  C_4 
REMARK    2  A    between atoms: C_4  and  C_5 
REMARK    3  A    between atoms: C_5  and  C_6 
ROOT
HETATM    1  C   UNL     1     -40.674  54.017 -51.212  1.00  0.00     0.286 C 
HETATM    2  N   UNL     1     -40.342  53.547 -52.633  1.00  0.00    -0.056 N 
HETATM    3  H   UNL     1     -41.000  53.999 -53.296  1.00  0.00     0.278 HD
HETATM    4  H   UNL     1     -39.402  53.882 -52.885  1.00  0.00     0.278 HD
HETATM    5  C   UNL     1     -40.437  52.059 -52.848  1.00  0.00     0.209 C 
HETATM    6  C   UNL     1     -39.640  51.331 -51.749  1.00  0.00     0.115 C 
HETATM    7  N   UNL     1     -40.103  51.714 -50.427  1.00  0.00    -0.353 N 
HETATM    8  C   UNL     1     -40.385  53.010 -50.085  1.00  0.00     0.249 C 
HETATM    9  O   UNL     1     -40.436  53.336 -48.903  1.00  0.00    -0.271 OA
HETATM   10  C   UNL     1     -39.914  51.708 -54.238  1.00  0.00     0.035 C 
HETATM   11  C   UNL     1     -39.974  50.196 -54.459  1.00  0.00     0.002 C 
HETATM   12  C   UNL     1     -39.254  49.422 -53.354  1.00  0.00     0.002 C 
HETATM   13  C   UNL     1     -39.733  49.819 -51.958  1.00  0.00     0.027 C 
HETATM   14  H   UNL     1     -39.848  51.136 -49.627  1.00  0.00     0.163 HD
ENDROOT
BRANCH   1  15
HETATM   15  C   UNL     1     -42.083  54.606 -51.096  1.00  0.00     0.146 C 
BRANCH  15  16
HETATM   16  C   UNL     1     -42.097  56.072 -51.401  1.00  0.00     0.224 C 
HETATM   17  N   UNL     1     -42.292  56.638 -52.612  1.00  0.00    -0.327 N 
HETATM   18  H   UNL     1     -42.248  57.650 -52.526  1.00  0.00     0.169 HD
HETATM   19  O   UNL     1     -41.777  56.825 -50.466  1.00  0.00    -0.273 OA
BRANCH  17  20
HETATM   20  C   UNL     1     -42.526  56.189 -53.926  1.00  0.00     0.034 A 
HETATM   21  C   UNL     1     -43.015  54.941 -54.306  1.00  0.00     0.032 A 
HETATM   22  C   UNL     1     -43.169  54.615 -55.661  1.00  0.00     0.044 A 
HETATM   23  C   UNL     1     -42.840  55.538 -56.642  1.00  0.00     0.116 A 
HETATM   24  C   UNL     1     -42.366  56.791 -56.293  1.00  0.00     0.044 A 
HETATM   25  F   UNL     1     -42.985  55.217 -57.932  1.00  0.00    -0.206 F 
HETATM   26  C   UNL     1     -42.212  57.113 -54.941  1.00  0.00     0.032 A 
ENDBRANCH  17  20
ENDBRANCH  15  16
ENDBRANCH   1  15
TORSDOF 3
ENDMDL
MODEL 7
REMARK VINA RESULT:      -7.8      2.665      3.771
REMARK  3 active torsions:
REMARK  status: ('A' for Active; 'I' for Inactive)
REMARK    1  A    between atoms: C_2  and  N_3 
REMARK       I    between atoms: N_3  and  C_4 
REMARK    2  A    between atoms: C_4  and  C_5 
REMARK    3  A    between atoms: C_5  and  C_6 
ROOT
HETATM    1  C   UNL     1     -42.881  55.438 -52.418  1.00  0.00     0.286 C 
HETATM    2  N   UNL     1     -43.479  56.440 -53.412  1.00  0.00    -0.056 N 
HETATM    3  H   UNL     1     -42.779  56.634 -54.153  1.00  0.00     0.278 HD
HETATM    4  H   UNL     1     -44.285  56.006 -53.881  1.00  0.00     0.278 HD
HETATM    5  C   UNL     1     -43.880  57.765 -52.814  1.00  0.00     0.209 C 
HETATM    6  C   UNL     1     -44.757  57.520 -51.572  1.00  0.00     0.115 C 
HETATM    7  N   UNL     1     -44.072  56.679 -50.605  1.00  0.00    -0.353 N 
HETATM    8  C   UNL     1     -43.363  55.563 -50.962  1.00  0.00     0.249 C 
HETATM    9  O   UNL     1     -43.099  54.710 -50.122  1.00  0.00    -0.271 OA
HETATM   10  C   UNL     1     -44.618  58.595 -53.860  1.00  0.00     0.035 C 
HETATM   11  C   UNL     1     -45.060  59.930 -53.259  1.00  0.00     0.002 C 
HETATM   12  C   UNL     1     -45.879  59.744 -51.980  1.00  0.00     0.002 C 
HETATM   13  C   UNL     1     -45.166  58.860 -50.956  1.00  0.00     0.027 C 
HETATM   14  H   UNL     1     -44.418  56.644 -49.647  1.00  0.00     0.163 HD
ENDROOT
BRANCH   1  15
HETATM   15  C   UNL     1     -41.354  55.359 -52.502  1.00  0.00     0.146 C 
BRANCH  15  16
HETATM   16  C   UNL     1     -40.894  54.975 -53.875  1.00  0.00     0.224 C 
HETATM   17  N   UNL     1     -40.417  53.770 -54.253  1.00  0.00    -0.327 N 
HETATM   18  H   UNL     1     -40.179  53.793 -55.242  1.00  0.00     0.169 HD
HETATM   19  O   UNL     1     -40.837  55.897 -54.706  1.00  0.00    -0.273 OA
BRANCH  17  20
HETATM   20  C   UNL     1     -40.166  52.528 -53.638  1.00  0.00     0.034 A 
HETATM   21  C   UNL     1     -39.816  52.314 -52.306  1.00  0.00     0.032 A 
HETATM   22  C   UNL     1     -39.561  51.019 -51.833  1.00  0.00     0.044 A 
HETATM   23  C   UNL     1     -39.663  49.931 -52.687  1.00  0.00     0.116 A 
HETATM   24  C   UNL     1     -40.024  50.113 -54.011  1.00  0.00     0.044 A 
HETATM   25  F   UNL     1     -39.414  48.700 -52.229  1.00  0.00    -0.206 F 
HETATM   26  C   UNL     1     -40.276  51.406 -54.481  1.00  0.00     0.032 A 
ENDBRANCH  17  20
ENDBRANCH  15  16
ENDBRANCH   1  15
TORSDOF 3
ENDMDL
MODEL 8
REMARK VINA RESULT:      -7.7      3.420      6.756
REMARK  3 active torsions:
REMARK  status: ('A' for Active; 'I' for Inactive)
REMARK    1  A    between atoms: C_2  and  N_3 
REMARK       I    between atoms: N_3  and  C_4 
REMARK    2  A    between atoms: C_4  and  C_5 
REMARK    3  A    between atoms: C_5  and  C_6 
ROOT
HETATM    1  C   UNL     1     -40.825  54.260 -51.064  1.00  0.00     0.286 C 
HETATM    2  N   UNL     1     -40.548  53.854 -52.517  1.00  0.00    -0.056 N 
HETATM    3  H   UNL     1     -41.262  54.293 -53.128  1.00  0.00     0.278 HD
HETATM    4  H   UNL     1     -39.640  54.244 -52.805  1.00  0.00     0.278 HD
HETATM    5  C   UNL     1     -40.581  52.370 -52.778  1.00  0.00     0.209 C 
HETATM    6  C   UNL     1     -39.691  51.649 -51.748  1.00  0.00     0.115 C 
HETATM    7  N   UNL     1     -40.100  51.965 -50.391  1.00  0.00    -0.353 N 
HETATM    8  C   UNL     1     -40.427  53.233 -49.990  1.00  0.00     0.249 C 
HETATM    9  O   UNL     1     -40.430  53.517 -48.796  1.00  0.00    -0.271 OA
HETATM   10  C   UNL     1     -40.117  52.091 -54.204  1.00  0.00     0.035 C 
HETATM   11  C   UNL     1     -40.114  50.586 -54.475  1.00  0.00     0.002 C 
HETATM   12  C   UNL     1     -39.298  49.815 -53.437  1.00  0.00     0.002 C 
HETATM   13  C   UNL     1     -39.720  50.141 -52.004  1.00  0.00     0.027 C 
HETATM   14  H   UNL     1     -39.774  51.375 -49.626  1.00  0.00     0.163 HD
ENDROOT
BRANCH   1  15
HETATM   15  C   UNL     1     -42.253  54.772 -50.854  1.00  0.00     0.146 C 
BRANCH  15  16
HETATM   16  C   UNL     1     -42.860  55.261 -52.133  1.00  0.00     0.224 C 
HETATM   17  N   UNL     1     -43.087  56.548 -52.472  1.00  0.00    -0.327 N 
HETATM   18  H   UNL     1     -43.510  56.587 -53.397  1.00  0.00     0.169 HD
HETATM   19  O   UNL     1     -43.304  54.385 -52.894  1.00  0.00    -0.273 OA
BRANCH  17  20
HETATM   20  C   UNL     1     -42.898  57.812 -51.881  1.00  0.00     0.034 A 
HETATM   21  C   UNL     1     -43.892  58.707 -51.492  1.00  0.00     0.032 A 
HETATM   22  C   UNL     1     -43.558  59.953 -50.942  1.00  0.00     0.044 A 
HETATM   23  C   UNL     1     -42.228  60.306 -50.772  1.00  0.00     0.116 A 
HETATM   24  C   UNL     1     -41.219  59.431 -51.135  1.00  0.00     0.044 A 
HETATM   25  F   UNL     1     -41.918  61.498 -50.251  1.00  0.00    -0.206 F 
HETATM   26  C   UNL     1     -41.555  58.189 -51.685  1.00  0.00     0.032 A 
ENDBRANCH  17  20
ENDBRANCH  15  16
ENDBRANCH   1  15
TORSDOF 3
ENDMDL
MODEL 9
REMARK VINA RESULT:      -7.7      3.602      6.711
REMARK  3 active torsions:
REMARK  status: ('A' for Active; 'I' for Inactive)
REMARK    1  A    between atoms: C_2  and  N_3 
REMARK       I    between atoms: N_3  and  C_4 
REMARK    2  A    between atoms: C_4  and  C_5 
REMARK    3  A    between atoms: C_5  and  C_6 
ROOT
HETATM    1  C   UNL     1     -41.469  56.285 -53.627  1.00  0.00     0.286 C 
HETATM    2  N   UNL     1     -40.811  55.128 -54.388  1.00  0.00    -0.056 N 
HETATM    3  H   UNL     1     -41.295  55.010 -55.299  1.00  0.00     0.278 HD
HETATM    4  H   UNL     1     -39.838  55.383 -54.608  1.00  0.00     0.278 HD
HETATM    5  C   UNL     1     -40.851  53.798 -53.681  1.00  0.00     0.209 C 
HETATM    6  C   UNL     1     -40.335  53.970 -52.240  1.00  0.00     0.115 C 
HETATM    7  N   UNL     1     -41.097  54.981 -51.528  1.00  0.00    -0.353 N 
HETATM    8  C   UNL     1     -41.453  56.177 -52.092  1.00  0.00     0.249 C 
HETATM    9  O   UNL     1     -41.781  57.118 -51.377  1.00  0.00    -0.271 OA
HETATM   10  C   UNL     1     -40.015  52.783 -54.453  1.00  0.00     0.035 C 
HETATM   11  C   UNL     1     -40.020  51.435 -53.730  1.00  0.00     0.002 C 
HETATM   12  C   UNL     1     -39.579  51.561 -52.271  1.00  0.00     0.002 C 
HETATM   13  C   UNL     1     -40.375  52.624 -51.512  1.00  0.00     0.027 C 
HETATM   14  H   UNL     1     -41.037  55.020 -50.511  1.00  0.00     0.163 HD
ENDROOT
BRANCH   1  15
HETATM   15  C   UNL     1     -42.866  56.624 -54.155  1.00  0.00     0.146 C 
BRANCH  15  16
HETATM   16  C   UNL     1     -43.426  55.515 -54.991  1.00  0.00     0.224 C 
HETATM   17  N   UNL     1     -43.409  55.441 -56.339  1.00  0.00    -0.327 N 
HETATM   18  H   UNL     1     -43.861  54.580 -56.639  1.00  0.00     0.169 HD
HETATM   19  O   UNL     1     -44.072  54.647 -54.381  1.00  0.00    -0.273 OA
BRANCH  17  20
HETATM   20  C   UNL     1     -42.944  56.238 -57.403  1.00  0.00     0.034 A 
HETATM   21  C   UNL     1     -42.420  57.526 -57.313  1.00  0.00     0.032 A 
HETATM   22  C   UNL     1     -42.023  58.219 -58.466  1.00  0.00     0.044 A 
HETATM   23  C   UNL     1     -42.141  57.625 -59.713  1.00  0.00     0.116 A 
HETATM   24  C   UNL     1     -42.644  56.341 -59.831  1.00  0.00     0.044 A 
HETATM   25  F   UNL     1     -41.765  58.295 -60.807  1.00  0.00    -0.206 F 
HETATM   26  C   UNL     1     -43.040  55.651 -58.680  1.00  0.00     0.032 A 
ENDBRANCH  17  20
ENDBRANCH  15  16
ENDBRANCH   1  15
TORSDOF 3
ENDMDL
MODEL 10
REMARK VINA RESULT:      -7.6      2.770      4.047
REMARK  3 active torsions:
REMARK  status: ('A' for Active; 'I' for Inactive)
REMARK    1  A    between atoms: C_2  and  N_3 
REMARK       I    between atoms: N_3  and  C_4 
REMARK    2  A    between atoms: C_4  and  C_5 
REMARK    3  A    between atoms: C_5  and  C_6 
ROOT
HETATM    1  C   UNL     1     -42.527  57.193 -55.035  1.00  0.00     0.286 C 
HETATM    2  N   UNL     1     -43.213  56.242 -56.023  1.00  0.00    -0.056 N 
HETATM    3  H   UNL     1     -43.007  55.264 -55.743  1.00  0.00     0.278 HD
HETATM    4  H   UNL     1     -44.233  56.357 -55.945  1.00  0.00     0.278 HD
HETATM    5  C   UNL     1     -42.783  56.400 -57.459  1.00  0.00     0.209 C 
HETATM    6  C   UNL     1     -42.871  57.884 -57.859  1.00  0.00     0.115 C 
HETATM    7  N   UNL     1     -42.081  58.715 -56.967  1.00  0.00    -0.353 N 
HETATM    8  C   UNL     1     -42.075  58.548 -55.607  1.00  0.00     0.249 C 
HETATM    9  O   UNL     1     -41.685  59.456 -54.880  1.00  0.00    -0.271 OA
HETATM   10  C   UNL     1     -43.660  55.530 -58.354  1.00  0.00     0.035 C 
HETATM   11  C   UNL     1     -43.257  55.704 -59.819  1.00  0.00     0.002 C 
HETATM   12  C   UNL     1     -43.262  57.172 -60.249  1.00  0.00     0.002 C 
HETATM   13  C   UNL     1     -42.433  58.055 -59.315  1.00  0.00     0.027 C 
HETATM   14  H   UNL     1     -41.844  59.663 -57.254  1.00  0.00     0.163 HD
ENDROOT
BRANCH   1  15
HETATM   15  C   UNL     1     -41.407  56.515 -54.239  1.00  0.00     0.146 C 
BRANCH  15  16
HETATM   16  C   UNL     1     -41.902  55.987 -52.928  1.00  0.00     0.224 C 
HETATM   17  N   UNL     1     -41.719  54.740 -52.445  1.00  0.00    -0.327 N 
HETATM   18  H   UNL     1     -42.164  54.658 -51.533  1.00  0.00     0.169 HD
HETATM   19  O   UNL     1     -42.655  56.741 -52.288  1.00  0.00    -0.273 OA
BRANCH  17  20
HETATM   20  C   UNL     1     -41.091  53.555 -52.878  1.00  0.00     0.034 A 
HETATM   21  C   UNL     1     -41.253  52.930 -54.112  1.00  0.00     0.032 A 
HETATM   22  C   UNL     1     -40.587  51.730 -54.399  1.00  0.00     0.044 A 
HETATM   23  C   UNL     1     -39.751  51.153 -53.455  1.00  0.00     0.116 A 
HETATM   24  C   UNL     1     -39.560  51.761 -52.226  1.00  0.00     0.044 A 
HETATM   25  F   UNL     1     -39.123  50.006 -53.735  1.00  0.00    -0.206 F 
HETATM   26  C   UNL     1     -40.226  52.957 -51.942  1.00  0.00     0.032 A 
ENDBRANCH  17  20
ENDBRANCH  15  16
ENDBRANCH   1  15
TORSDOF 3
ENDMDL
