MODEL 1
REMARK VINA RESULT:      -8.1      0.000      0.000
REMARK  5 active torsions:
REMARK  status: ('A' for Active; 'I' for Inactive)
REMARK    1  A    between atoms: C_3  and  S_4 
REMARK    2  A    between atoms: S_4  and  C_5 
REMARK    3  A    between atoms: C_5  and  C_6 
REMARK       I    between atoms: C_6  and  N_7 
REMARK    4  A    between atoms: N_7  and  C_8 
REMARK    5  A    between atoms: C_10  and  C_11 
ROOT
HETATM    1  C   UNL     1     -42.571  56.158 -56.154  1.00  0.00     0.231 C 
HETATM    2  N   UNL     1     -41.357  55.576 -55.813  1.00  0.00    -0.327 N 
HETATM    3  O   UNL     1     -43.632  56.038 -55.550  1.00  0.00    -0.272 OA
HETATM    4  H   UNL     1     -40.627  55.629 -56.512  1.00  0.00     0.169 HD
ENDROOT
BRANCH   2   5
HETATM    5  C   UNL     1     -41.051  54.862 -54.636  1.00  0.00     0.035 A 
HETATM    6  C   UNL     1     -40.663  53.519 -54.620  1.00  0.00     0.042 A 
HETATM    7  C   UNL     1     -40.409  52.845 -53.412  1.00  0.00    -0.021 A 
HETATM    8  C   UNL     1     -40.558  53.546 -52.209  1.00  0.00     0.012 A 
HETATM    9  C   UNL     1     -40.946  54.887 -52.212  1.00  0.00     0.003 A 
HETATM   10  C   UNL     1     -41.192  55.540 -53.420  1.00  0.00     0.029 A 
BRANCH   7  11
HETATM   11  C   UNL     1     -40.018  51.443 -53.400  1.00  0.00     0.010 A 
HETATM   12  C   UNL     1     -39.931  50.493 -54.447  1.00  0.00     0.152 A 
HETATM   13  N   UNL     1     -39.531  49.289 -54.027  1.00  0.00    -0.187 NA
HETATM   14  N   UNL     1     -39.357  49.461 -52.708  1.00  0.00    -0.289 N 
HETATM   15  H   UNL     1     -39.046  48.670 -52.155  1.00  0.00     0.188 HD
HETATM   16  C   UNL     1     -39.639  50.727 -52.283  1.00  0.00     0.123 A 
ENDBRANCH   7  11
ENDBRANCH   2   5
BRANCH   1  17
HETATM   17  C   UNL     1     -42.467  57.063 -57.368  1.00  0.00     0.182 C 
BRANCH  17  18
HETATM   18  S   UNL     1     -43.907  58.169 -57.471  1.00  0.00    -0.120 SA
BRANCH  18  19
HETATM   19  C   UNL     1     -44.850  57.280 -58.708  1.00  0.00     0.006 A 
HETATM   20  C   UNL     1     -46.249  57.366 -58.847  1.00  0.00    -0.045 A 
HETATM   21  C   UNL     1     -47.123  58.193 -57.943  1.00  0.00     0.049 C 
HETATM   22  C   UNL     1     -46.870  56.672 -59.902  1.00  0.00     0.008 A 
HETATM   23  C   UNL     1     -46.130  55.874 -60.774  1.00  0.00     0.001 A 
HETATM   24  C   UNL     1     -44.755  55.756 -60.606  1.00  0.00     0.001 A 
HETATM   25  C   UNL     1     -44.120  56.455 -59.579  1.00  0.00     0.019 A 
ENDBRANCH  18  19
ENDBRANCH  17  18
ENDBRANCH   1  17
TORSDOF 5
ENDMDL
MODEL 2
REMARK VINA RESULT:      -8.0      3.332      8.339
REMARK  5 active torsions:
REMARK  status: ('A' for Active; 'I' for Inactive)
REMARK    1  A    between atoms: C_3  and  S_4 
REMARK    2  A    between atoms: S_4  and  C_5 
REMARK    3  A    between atoms: C_5  and  C_6 
REMARK       I    between atoms: C_6  and  N_7 
REMARK    4  A    between atoms: N_7  and  C_8 
REMARK    5  A    between atoms: C_10  and  C_11 
ROOT
HETATM    1  C   UNL     1     -42.040  55.106 -52.617  1.00  0.00     0.231 C 
HETATM    2  N   UNL     1     -42.874  54.833 -53.692  1.00  0.00    -0.327 N 
HETATM    3  O   UNL     1     -41.469  56.168 -52.386  1.00  0.00    -0.272 OA
HETATM    4  H   UNL     1     -43.117  53.860 -53.831  1.00  0.00     0.169 HD
ENDROOT
BRANCH   2   5
HETATM    5  C   UNL     1     -43.362  55.747 -54.649  1.00  0.00     0.035 A 
HETATM    6  C   UNL     1     -42.870  55.842 -55.955  1.00  0.00     0.042 A 
HETATM    7  C   UNL     1     -43.367  56.801 -56.856  1.00  0.00    -0.021 A 
HETATM    8  C   UNL     1     -44.370  57.674 -56.420  1.00  0.00     0.012 A 
HETATM    9  C   UNL     1     -44.868  57.590 -55.119  1.00  0.00     0.003 A 
HETATM   10  C   UNL     1     -44.365  56.631 -54.238  1.00  0.00     0.029 A 
BRANCH   7  11
HETATM   11  C   UNL     1     -42.842  56.904 -58.210  1.00  0.00     0.010 A 
HETATM   12  C   UNL     1     -42.953  56.031 -59.320  1.00  0.00     0.152 A 
HETATM   13  N   UNL     1     -42.318  56.484 -60.405  1.00  0.00    -0.187 NA
HETATM   14  N   UNL     1     -41.798  57.651 -59.997  1.00  0.00    -0.289 N 
HETATM   15  H   UNL     1     -41.258  58.197 -60.661  1.00  0.00     0.188 HD
HETATM   16  C   UNL     1     -42.077  57.946 -58.695  1.00  0.00     0.123 A 
ENDBRANCH   7  11
ENDBRANCH   2   5
BRANCH   1  17
HETATM   17  C   UNL     1     -41.929  53.941 -51.649  1.00  0.00     0.182 C 
BRANCH  17  18
HETATM   18  S   UNL     1     -40.198  53.665 -51.167  1.00  0.00    -0.120 SA
BRANCH  18  19
HETATM   19  C   UNL     1     -39.984  52.017 -51.834  1.00  0.00     0.006 A 
HETATM   20  C   UNL     1     -39.905  51.725 -53.210  1.00  0.00    -0.045 A 
HETATM   21  C   UNL     1     -40.026  52.770 -54.287  1.00  0.00     0.049 C 
HETATM   22  C   UNL     1     -39.666  50.397 -53.610  1.00  0.00     0.008 A 
HETATM   23  C   UNL     1     -39.556  49.372 -52.671  1.00  0.00     0.001 A 
HETATM   24  C   UNL     1     -39.680  49.656 -51.317  1.00  0.00     0.001 A 
HETATM   25  C   UNL     1     -39.893  50.971 -50.902  1.00  0.00     0.019 A 
ENDBRANCH  18  19
ENDBRANCH  17  18
ENDBRANCH   1  17
TORSDOF 5
ENDMDL
MODEL 3
REMARK VINA RESULT:      -7.9      3.069      7.972
REMARK  5 active torsions:
REMARK  status: ('A' for Active; 'I' for Inactive)
REMARK    1  A    between atoms: C_3  and  S_4 
REMARK    2  A    between atoms: S_4  and  C_5 
REMARK    3  A    between atoms: C_5  and  C_6 
REMARK       I    between atoms: C_6  and  N_7 
REMARK    4  A    between atoms: N_7  and  C_8 
REMARK    5  A    between atoms: C_10  and  C_11 
ROOT
HETATM    1  C   UNL     1     -43.482  56.058 -53.885  1.00  0.00     0.231 C 
HETATM    2  N   UNL     1     -42.512  56.229 -54.864  1.00  0.00    -0.327 N 
HETATM    3  O   UNL     1     -44.653  56.420 -53.947  1.00  0.00    -0.272 OA
HETATM    4  H   UNL     1     -41.559  56.035 -54.585  1.00  0.00     0.169 HD
ENDROOT
BRANCH   2   5
HETATM    5  C   UNL     1     -42.699  56.706 -56.178  1.00  0.00     0.035 A 
HETATM    6  C   UNL     1     -43.308  55.965 -57.196  1.00  0.00     0.042 A 
HETATM    7  C   UNL     1     -43.430  56.476 -58.500  1.00  0.00    -0.021 A 
HETATM    8  C   UNL     1     -42.922  57.752 -58.771  1.00  0.00     0.012 A 
HETATM    9  C   UNL     1     -42.311  58.501 -57.764  1.00  0.00     0.003 A 
HETATM   10  C   UNL     1     -42.199  57.979 -56.475  1.00  0.00     0.029 A 
BRANCH   7  11
HETATM   11  C   UNL     1     -44.053  55.694 -59.559  1.00  0.00     0.010 A 
HETATM   12  C   UNL     1     -44.503  56.068 -60.849  1.00  0.00     0.152 A 
HETATM   13  N   UNL     1     -45.030  55.049 -61.533  1.00  0.00    -0.187 NA
HETATM   14  N   UNL     1     -44.919  54.014 -60.686  1.00  0.00    -0.289 N 
HETATM   15  H   UNL     1     -45.258  53.106 -60.986  1.00  0.00     0.188 HD
HETATM   16  C   UNL     1     -44.347  54.347 -59.493  1.00  0.00     0.123 A 
ENDBRANCH   7  11
ENDBRANCH   2   5
BRANCH   1  17
HETATM   17  C   UNL     1     -42.972  55.283 -52.684  1.00  0.00     0.182 C 
BRANCH  17  18
HETATM   18  S   UNL     1     -41.202  55.600 -52.416  1.00  0.00    -0.120 SA
BRANCH  18  19
HETATM   19  C   UNL     1     -40.583  53.935 -52.649  1.00  0.00     0.006 A 
HETATM   20  C   UNL     1     -40.086  53.125 -51.609  1.00  0.00    -0.045 A 
HETATM   21  C   UNL     1     -39.985  53.581 -50.179  1.00  0.00     0.049 C 
HETATM   22  C   UNL     1     -39.692  51.807 -51.906  1.00  0.00     0.008 A 
HETATM   23  C   UNL     1     -39.744  51.316 -53.210  1.00  0.00     0.001 A 
HETATM   24  C   UNL     1     -40.193  52.134 -54.241  1.00  0.00     0.001 A 
HETATM   25  C   UNL     1     -40.609  53.435 -53.961  1.00  0.00     0.019 A 
ENDBRANCH  18  19
ENDBRANCH  17  18
ENDBRANCH   1  17
TORSDOF 5
ENDMDL
MODEL 4
REMARK VINA RESULT:      -7.9      3.487      5.531
REMARK  5 active torsions:
REMARK  status: ('A' for Active; 'I' for Inactive)
REMARK    1  A    between atoms: C_3  and  S_4 
REMARK    2  A    between atoms: S_4  and  C_5 
REMARK    3  A    between atoms: C_5  and  C_6 
REMARK       I    between atoms: C_6  and  N_7 
REMARK    4  A    between atoms: N_7  and  C_8 
REMARK    5  A    between atoms: C_10  and  C_11 
ROOT
HETATM    1  C   UNL     1     -42.530  56.248 -55.358  1.00  0.00     0.231 C 
HETATM    2  N   UNL     1     -41.266  55.800 -54.999  1.00  0.00    -0.327 N 
HETATM    3  O   UNL     1     -43.600  55.723 -55.064  1.00  0.00    -0.272 OA
HETATM    4  H   UNL     1     -40.487  56.242 -55.471  1.00  0.00     0.169 HD
ENDROOT
BRANCH   2   5
HETATM    5  C   UNL     1     -40.950  54.756 -54.105  1.00  0.00     0.035 A 
HETATM    6  C   UNL     1     -41.015  54.878 -52.713  1.00  0.00     0.042 A 
HETATM    7  C   UNL     1     -40.648  53.816 -51.868  1.00  0.00    -0.021 A 
HETATM    8  C   UNL     1     -40.205  52.620 -52.447  1.00  0.00     0.012 A 
HETATM    9  C   UNL     1     -40.135  52.487 -53.835  1.00  0.00     0.003 A 
HETATM   10  C   UNL     1     -40.505  53.551 -54.659  1.00  0.00     0.029 A 
BRANCH   7  11
HETATM   11  C   UNL     1     -40.705  53.952 -50.420  1.00  0.00     0.010 A 
HETATM   12  C   UNL     1     -41.044  55.058 -49.602  1.00  0.00     0.152 A 
HETATM   13  N   UNL     1     -40.972  54.783 -48.297  1.00  0.00    -0.187 NA
HETATM   14  N   UNL     1     -40.589  53.498 -48.270  1.00  0.00    -0.289 N 
HETATM   15  H   UNL     1     -40.464  53.050 -47.368  1.00  0.00     0.188 HD
HETATM   16  C   UNL     1     -40.411  52.957 -49.509  1.00  0.00     0.123 A 
ENDBRANCH   7  11
ENDBRANCH   2   5
BRANCH   1  17
HETATM   17  C   UNL     1     -42.493  57.551 -56.135  1.00  0.00     0.182 C 
BRANCH  17  18
HETATM   18  S   UNL     1     -43.306  58.882 -55.200  1.00  0.00    -0.120 SA
BRANCH  18  19
HETATM   19  C   UNL     1     -42.427  58.707 -53.649  1.00  0.00     0.006 A 
HETATM   20  C   UNL     1     -43.015  58.240 -52.457  1.00  0.00    -0.045 A 
HETATM   21  C   UNL     1     -44.468  57.863 -52.341  1.00  0.00     0.049 C 
HETATM   22  C   UNL     1     -42.204  58.080 -51.317  1.00  0.00     0.008 A 
HETATM   23  C   UNL     1     -40.852  58.420 -51.343  1.00  0.00     0.001 A 
HETATM   24  C   UNL     1     -40.287  58.924 -52.508  1.00  0.00     0.001 A 
HETATM   25  C   UNL     1     -41.070  59.067 -53.653  1.00  0.00     0.019 A 
ENDBRANCH  18  19
ENDBRANCH  17  18
ENDBRANCH   1  17
TORSDOF 5
ENDMDL
MODEL 5
REMARK VINA RESULT:      -7.8      2.330      3.420
REMARK  5 active torsions:
REMARK  status: ('A' for Active; 'I' for Inactive)
REMARK    1  A    between atoms: C_3  and  S_4 
REMARK    2  A    between atoms: S_4  and  C_5 
REMARK    3  A    between atoms: C_5  and  C_6 
REMARK       I    between atoms: C_6  and  N_7 
REMARK    4  A    between atoms: N_7  and  C_8 
REMARK    5  A    between atoms: C_10  and  C_11 
ROOT
HETATM    1  C   UNL     1     -42.478  55.183 -56.122  1.00  0.00     0.231 C 
HETATM    2  N   UNL     1     -41.315  55.200 -55.365  1.00  0.00    -0.327 N 
HETATM    3  O   UNL     1     -43.325  54.295 -56.137  1.00  0.00    -0.272 OA
HETATM    4  H   UNL     1     -40.640  55.917 -55.602  1.00  0.00     0.169 HD
ENDROOT
BRANCH   2   5
HETATM    5  C   UNL     1     -40.938  54.292 -54.353  1.00  0.00     0.035 A 
HETATM    6  C   UNL     1     -41.059  54.558 -52.986  1.00  0.00     0.042 A 
HETATM    7  C   UNL     1     -40.629  53.631 -52.020  1.00  0.00    -0.021 A 
HETATM    8  C   UNL     1     -40.066  52.425 -52.452  1.00  0.00     0.012 A 
HETATM    9  C   UNL     1     -39.939  52.148 -53.814  1.00  0.00     0.003 A 
HETATM   10  C   UNL     1     -40.372  53.079 -54.759  1.00  0.00     0.029 A 
BRANCH   7  11
HETATM   11  C   UNL     1     -40.745  53.918 -50.597  1.00  0.00     0.010 A 
HETATM   12  C   UNL     1     -40.513  53.104 -49.462  1.00  0.00     0.152 A 
HETATM   13  N   UNL     1     -40.737  53.740 -48.309  1.00  0.00    -0.187 NA
HETATM   14  N   UNL     1     -41.113  54.968 -48.698  1.00  0.00    -0.289 N 
HETATM   15  H   UNL     1     -41.341  55.652 -47.985  1.00  0.00     0.188 HD
HETATM   16  C   UNL     1     -41.139  55.125 -50.053  1.00  0.00     0.123 A 
ENDBRANCH   7  11
ENDBRANCH   2   5
BRANCH   1  17
HETATM   17  C   UNL     1     -42.672  56.454 -56.930  1.00  0.00     0.182 C 
BRANCH  17  18
HETATM   18  S   UNL     1     -42.741  56.081 -58.708  1.00  0.00    -0.120 SA
BRANCH  18  19
HETATM   19  C   UNL     1     -44.441  56.551 -59.023  1.00  0.00     0.006 A 
HETATM   20  C   UNL     1     -45.296  55.871 -59.913  1.00  0.00    -0.045 A 
HETATM   21  C   UNL     1     -44.866  54.685 -60.732  1.00  0.00     0.049 C 
HETATM   22  C   UNL     1     -46.634  56.294 -60.024  1.00  0.00     0.008 A 
HETATM   23  C   UNL     1     -47.103  57.394 -59.307  1.00  0.00     0.001 A 
HETATM   24  C   UNL     1     -46.244  58.090 -58.465  1.00  0.00     0.001 A 
HETATM   25  C   UNL     1     -44.921  57.670 -58.325  1.00  0.00     0.019 A 
ENDBRANCH  18  19
ENDBRANCH  17  18
ENDBRANCH   1  17
TORSDOF 5
ENDMDL
MODEL 6
REMARK VINA RESULT:      -7.8      2.246      3.220
REMARK  5 active torsions:
REMARK  status: ('A' for Active; 'I' for Inactive)
REMARK    1  A    between atoms: C_3  and  S_4 
REMARK    2  A    between atoms: S_4  and  C_5 
REMARK    3  A    between atoms: C_5  and  C_6 
REMARK       I    between atoms: C_6  and  N_7 
REMARK    4  A    between atoms: N_7  and  C_8 
REMARK    5  A    between atoms: C_10  and  C_11 
ROOT
HETATM    1  C   UNL     1     -41.589  57.004 -53.153  1.00  0.00     0.231 C 
HETATM    2  N   UNL     1     -41.944  56.076 -52.183  1.00  0.00    -0.327 N 
HETATM    3  O   UNL     1     -40.502  57.092 -53.715  1.00  0.00    -0.272 OA
HETATM    4  H   UNL     1     -42.814  56.252 -51.695  1.00  0.00     0.169 HD
ENDROOT
BRANCH   2   5
HETATM    5  C   UNL     1     -41.198  54.958 -51.755  1.00  0.00     0.035 A 
HETATM    6  C   UNL     1     -40.970  53.826 -52.544  1.00  0.00     0.042 A 
HETATM    7  C   UNL     1     -40.253  52.723 -52.050  1.00  0.00    -0.021 A 
HETATM    8  C   UNL     1     -39.767  52.770 -50.738  1.00  0.00     0.012 A 
HETATM    9  C   UNL     1     -39.989  53.894 -49.940  1.00  0.00     0.003 A 
HETATM   10  C   UNL     1     -40.701  54.982 -50.447  1.00  0.00     0.029 A 
BRANCH   7  11
HETATM   11  C   UNL     1     -40.031  51.541 -52.872  1.00  0.00     0.010 A 
HETATM   12  C   UNL     1     -39.585  50.241 -52.529  1.00  0.00     0.152 A 
HETATM   13  N   UNL     1     -39.505  49.423 -53.583  1.00  0.00    -0.187 NA
HETATM   14  N   UNL     1     -39.903  50.194 -54.606  1.00  0.00    -0.289 N 
HETATM   15  H   UNL     1     -39.929  49.786 -55.535  1.00  0.00     0.188 HD
HETATM   16  C   UNL     1     -40.223  51.467 -54.237  1.00  0.00     0.123 A 
ENDBRANCH   7  11
ENDBRANCH   2   5
BRANCH   1  17
HETATM   17  C   UNL     1     -42.739  57.917 -53.539  1.00  0.00     0.182 C 
BRANCH  17  18
HETATM   18  S   UNL     1     -44.166  56.948 -54.115  1.00  0.00    -0.120 SA
BRANCH  18  19
HETATM   19  C   UNL     1     -43.757  56.862 -55.857  1.00  0.00     0.006 A 
HETATM   20  C   UNL     1     -43.122  55.761 -56.466  1.00  0.00    -0.045 A 
HETATM   21  C   UNL     1     -42.681  54.537 -55.711  1.00  0.00     0.049 C 
HETATM   22  C   UNL     1     -42.915  55.782 -57.858  1.00  0.00     0.008 A 
HETATM   23  C   UNL     1     -43.284  56.887 -58.625  1.00  0.00     0.001 A 
HETATM   24  C   UNL     1     -43.869  57.990 -58.013  1.00  0.00     0.001 A 
HETATM   25  C   UNL     1     -44.103  57.976 -56.638  1.00  0.00     0.019 A 
ENDBRANCH  18  19
ENDBRANCH  17  18
ENDBRANCH   1  17
TORSDOF 5
ENDMDL
MODEL 7
REMARK VINA RESULT:      -7.7      3.940      4.897
REMARK  5 active torsions:
REMARK  status: ('A' for Active; 'I' for Inactive)
REMARK    1  A    between atoms: C_3  and  S_4 
REMARK    2  A    between atoms: S_4  and  C_5 
REMARK    3  A    between atoms: C_5  and  C_6 
REMARK       I    between atoms: C_6  and  N_7 
REMARK    4  A    between atoms: N_7  and  C_8 
REMARK    5  A    between atoms: C_10  and  C_11 
ROOT
HETATM    1  C   UNL     1     -41.241  58.124 -50.685  1.00  0.00     0.231 C 
HETATM    2  N   UNL     1     -41.920  56.945 -50.406  1.00  0.00    -0.327 N 
HETATM    3  O   UNL     1     -40.023  58.275 -50.713  1.00  0.00    -0.272 OA
HETATM    4  H   UNL     1     -42.916  57.032 -50.248  1.00  0.00     0.169 HD
ENDROOT
BRANCH   2   5
HETATM    5  C   UNL     1     -41.368  55.656 -50.251  1.00  0.00     0.035 A 
HETATM    6  C   UNL     1     -41.066  54.806 -51.319  1.00  0.00     0.042 A 
HETATM    7  C   UNL     1     -40.555  53.514 -51.104  1.00  0.00    -0.021 A 
HETATM    8  C   UNL     1     -40.356  53.082 -49.787  1.00  0.00     0.012 A 
HETATM    9  C   UNL     1     -40.655  53.921 -48.712  1.00  0.00     0.003 A 
HETATM   10  C   UNL     1     -41.160  55.201 -48.944  1.00  0.00     0.029 A 
BRANCH   7  11
HETATM   11  C   UNL     1     -40.255  52.628 -52.219  1.00  0.00     0.010 A 
HETATM   12  C   UNL     1     -40.630  52.690 -53.584  1.00  0.00     0.152 A 
HETATM   13  N   UNL     1     -40.151  51.672 -54.303  1.00  0.00    -0.187 NA
HETATM   14  N   UNL     1     -39.464  50.951 -53.404  1.00  0.00    -0.289 N 
HETATM   15  H   UNL     1     -38.996  50.107 -53.718  1.00  0.00     0.188 HD
HETATM   16  C   UNL     1     -39.498  51.476 -52.146  1.00  0.00     0.123 A 
ENDBRANCH   7  11
ENDBRANCH   2   5
BRANCH   1  17
HETATM   17  C   UNL     1     -42.173  59.268 -51.041  1.00  0.00     0.182 C 
BRANCH  17  18
HETATM   18  S   UNL     1     -42.037  59.684 -52.806  1.00  0.00    -0.120 SA
BRANCH  18  19
HETATM   19  C   UNL     1     -42.411  58.075 -53.500  1.00  0.00     0.006 A 
HETATM   20  C   UNL     1     -43.692  57.488 -53.488  1.00  0.00    -0.045 A 
HETATM   21  C   UNL     1     -44.894  58.135 -52.855  1.00  0.00     0.049 C 
HETATM   22  C   UNL     1     -43.876  56.248 -54.126  1.00  0.00     0.008 A 
HETATM   23  C   UNL     1     -42.807  55.580 -54.723  1.00  0.00     0.001 A 
HETATM   24  C   UNL     1     -41.536  56.141 -54.693  1.00  0.00     0.001 A 
HETATM   25  C   UNL     1     -41.340  57.381 -54.084  1.00  0.00     0.019 A 
ENDBRANCH  18  19
ENDBRANCH  17  18
ENDBRANCH   1  17
TORSDOF 5
ENDMDL
MODEL 8
REMARK VINA RESULT:      -7.6      3.888      5.812
REMARK  5 active torsions:
REMARK  status: ('A' for Active; 'I' for Inactive)
REMARK    1  A    between atoms: C_3  and  S_4 
REMARK    2  A    between atoms: S_4  and  C_5 
REMARK    3  A    between atoms: C_5  and  C_6 
REMARK       I    between atoms: C_6  and  N_7 
REMARK    4  A    between atoms: N_7  and  C_8 
REMARK    5  A    between atoms: C_10  and  C_11 
ROOT
HETATM    1  C   UNL     1     -42.697  56.305 -53.619  1.00  0.00     0.231 C 
HETATM    2  N   UNL     1     -41.413  56.031 -53.166  1.00  0.00    -0.327 N 
HETATM    3  O   UNL     1     -43.651  55.533 -53.619  1.00  0.00    -0.272 OA
HETATM    4  H   UNL     1     -40.703  56.713 -53.401  1.00  0.00     0.169 HD
ENDROOT
BRANCH   2   5
HETATM    5  C   UNL     1     -40.977  54.880 -52.477  1.00  0.00     0.035 A 
HETATM    6  C   UNL     1     -40.665  53.670 -53.105  1.00  0.00     0.042 A 
HETATM    7  C   UNL     1     -40.274  52.541 -52.364  1.00  0.00    -0.021 A 
HETATM    8  C   UNL     1     -40.205  52.645 -50.969  1.00  0.00     0.012 A 
HETATM    9  C   UNL     1     -40.515  53.847 -50.331  1.00  0.00     0.003 A 
HETATM   10  C   UNL     1     -40.900  54.958 -51.082  1.00  0.00     0.029 A 
BRANCH   7  11
HETATM   11  C   UNL     1     -39.963  51.280 -53.022  1.00  0.00     0.010 A 
HETATM   12  C   UNL     1     -39.562  50.028 -52.492  1.00  0.00     0.152 A 
HETATM   13  N   UNL     1     -39.366  49.102 -53.434  1.00  0.00    -0.187 NA
HETATM   14  N   UNL     1     -39.642  49.754 -54.574  1.00  0.00    -0.289 N 
HETATM   15  H   UNL     1     -39.563  49.248 -55.450  1.00  0.00     0.188 HD
HETATM   16  C   UNL     1     -39.998  51.057 -54.383  1.00  0.00     0.123 A 
ENDBRANCH   7  11
ENDBRANCH   2   5
BRANCH   1  17
HETATM   17  C   UNL     1     -42.861  57.742 -54.082  1.00  0.00     0.182 C 
BRANCH  17  18
HETATM   18  S   UNL     1     -41.332  58.686 -53.807  1.00  0.00    -0.120 SA
BRANCH  18  19
HETATM   19  C   UNL     1     -41.909  59.776 -52.508  1.00  0.00     0.006 A 
HETATM   20  C   UNL     1     -41.524  59.668 -51.157  1.00  0.00    -0.045 A 
HETATM   21  C   UNL     1     -40.604  58.595 -50.641  1.00  0.00     0.049 C 
HETATM   22  C   UNL     1     -41.992  60.627 -50.240  1.00  0.00     0.008 A 
HETATM   23  C   UNL     1     -42.859  61.643 -50.639  1.00  0.00     0.001 A 
HETATM   24  C   UNL     1     -43.272  61.719 -51.964  1.00  0.00     0.001 A 
HETATM   25  C   UNL     1     -42.800  60.791 -52.892  1.00  0.00     0.019 A 
ENDBRANCH  18  19
ENDBRANCH  17  18
ENDBRANCH   1  17
TORSDOF 5
ENDMDL
MODEL 9
REMARK VINA RESULT:      -7.6      4.047      8.021
REMARK  5 active torsions:
REMARK  status: ('A' for Active; 'I' for Inactive)
REMARK    1  A    between atoms: C_3  and  S_4 
REMARK    2  A    between atoms: S_4  and  C_5 
REMARK    3  A    between atoms: C_5  and  C_6 
REMARK       I    between atoms: C_6  and  N_7 
REMARK    4  A    between atoms: N_7  and  C_8 
REMARK    5  A    between atoms: C_10  and  C_11 
ROOT
HETATM    1  C   UNL     1     -42.234  54.356 -50.939  1.00  0.00     0.231 C 
HETATM    2  N   UNL     1     -41.484  55.445 -51.362  1.00  0.00    -0.327 N 
HETATM    3  O   UNL     1     -43.451  54.226 -51.037  1.00  0.00    -0.272 OA
HETATM    4  H   UNL     1     -40.522  55.472 -51.046  1.00  0.00     0.169 HD
ENDROOT
BRANCH   2   5
HETATM    5  C   UNL     1     -41.929  56.547 -52.121  1.00  0.00     0.035 A 
HETATM    6  C   UNL     1     -41.936  56.576 -53.519  1.00  0.00     0.042 A 
HETATM    7  C   UNL     1     -42.352  57.718 -54.225  1.00  0.00    -0.021 A 
HETATM    8  C   UNL     1     -42.759  58.844 -53.500  1.00  0.00     0.012 A 
HETATM    9  C   UNL     1     -42.755  58.828 -52.104  1.00  0.00     0.003 A 
HETATM   10  C   UNL     1     -42.341  57.685 -51.419  1.00  0.00     0.029 A 
BRANCH   7  11
HETATM   11  C   UNL     1     -42.345  57.747 -55.681  1.00  0.00     0.010 A 
HETATM   12  C   UNL     1     -42.298  58.833 -56.590  1.00  0.00     0.152 A 
HETATM   13  N   UNL     1     -42.312  58.444 -57.868  1.00  0.00    -0.187 NA
HETATM   14  N   UNL     1     -42.367  57.106 -57.786  1.00  0.00    -0.289 N 
HETATM   15  H   UNL     1     -42.386  56.571 -58.648  1.00  0.00     0.188 HD
HETATM   16  C   UNL     1     -42.393  56.640 -56.505  1.00  0.00     0.123 A 
ENDBRANCH   7  11
ENDBRANCH   2   5
BRANCH   1  17
HETATM   17  C   UNL     1     -41.378  53.238 -50.371  1.00  0.00     0.182 C 
BRANCH  17  18
HETATM   18  S   UNL     1     -39.691  53.314 -51.044  1.00  0.00    -0.120 SA
BRANCH  18  19
HETATM   19  C   UNL     1     -39.793  51.950 -52.201  1.00  0.00     0.006 A 
HETATM   20  C   UNL     1     -40.089  52.097 -53.570  1.00  0.00    -0.045 A 
HETATM   21  C   UNL     1     -40.390  53.422 -54.216  1.00  0.00     0.049 C 
HETATM   22  C   UNL     1     -40.073  50.956 -54.394  1.00  0.00     0.008 A 
HETATM   23  C   UNL     1     -39.817  49.691 -53.867  1.00  0.00     0.001 A 
HETATM   24  C   UNL     1     -39.570  49.544 -52.507  1.00  0.00     0.001 A 
HETATM   25  C   UNL     1     -39.559  50.668 -51.680  1.00  0.00     0.019 A 
ENDBRANCH  18  19
ENDBRANCH  17  18
ENDBRANCH   1  17
TORSDOF 5
ENDMDL
MODEL 10
REMARK VINA RESULT:      -7.5      3.011      9.002
REMARK  5 active torsions:
REMARK  status: ('A' for Active; 'I' for Inactive)
REMARK    1  A    between atoms: C_3  and  S_4 
REMARK    2  A    between atoms: S_4  and  C_5 
REMARK    3  A    between atoms: C_5  and  C_6 
REMARK       I    between atoms: C_6  and  N_7 
REMARK    4  A    between atoms: N_7  and  C_8 
REMARK    5  A    between atoms: C_10  and  C_11 
ROOT
HETATM    1  C   UNL     1     -42.791  55.522 -55.508  1.00  0.00     0.231 C 
HETATM    2  N   UNL     1     -42.465  55.651 -56.851  1.00  0.00    -0.327 N 
HETATM    3  O   UNL     1     -43.468  56.300 -54.843  1.00  0.00    -0.272 OA
HETATM    4  H   UNL     1     -41.754  55.021 -57.199  1.00  0.00     0.169 HD
ENDROOT
BRANCH   2   5
HETATM    5  C   UNL     1     -42.962  56.605 -57.764  1.00  0.00     0.035 A 
HETATM    6  C   UNL     1     -44.109  56.413 -58.541  1.00  0.00     0.042 A 
HETATM    7  C   UNL     1     -44.536  57.381 -59.466  1.00  0.00    -0.021 A 
HETATM    8  C   UNL     1     -43.785  58.554 -59.605  1.00  0.00     0.012 A 
HETATM    9  C   UNL     1     -42.638  58.757 -58.836  1.00  0.00     0.003 A 
HETATM   10  C   UNL     1     -42.229  57.786 -57.921  1.00  0.00     0.029 A 
BRANCH   7  11
HETATM   11  C   UNL     1     -45.724  57.170 -60.282  1.00  0.00     0.010 A 
HETATM   12  C   UNL     1     -46.235  56.000 -60.895  1.00  0.00     0.152 A 
HETATM   13  N   UNL     1     -47.364  56.219 -61.574  1.00  0.00    -0.187 NA
HETATM   14  N   UNL     1     -47.585  57.531 -61.399  1.00  0.00    -0.289 N 
HETATM   15  H   UNL     1     -48.405  57.944 -61.830  1.00  0.00     0.188 HD
HETATM   16  C   UNL     1     -46.633  58.145 -60.640  1.00  0.00     0.123 A 
ENDBRANCH   7  11
ENDBRANCH   2   5
BRANCH   1  17
HETATM   17  C   UNL     1     -42.270  54.232 -54.899  1.00  0.00     0.182 C 
BRANCH  17  18
HETATM   18  S   UNL     1     -41.140  54.583 -53.518  1.00  0.00    -0.120 SA
BRANCH  18  19
HETATM   19  C   UNL     1     -40.494  52.931 -53.263  1.00  0.00     0.006 A 
HETATM   20  C   UNL     1     -39.970  52.468 -52.040  1.00  0.00    -0.045 A 
HETATM   21  C   UNL     1     -39.862  53.325 -50.808  1.00  0.00     0.049 C 
HETATM   22  C   UNL     1     -39.555  51.127 -51.944  1.00  0.00     0.008 A 
HETATM   23  C   UNL     1     -39.613  50.275 -53.047  1.00  0.00     0.001 A 
HETATM   24  C   UNL     1     -40.088  50.749 -54.264  1.00  0.00     0.001 A 
HETATM   25  C   UNL     1     -40.525  52.069 -54.371  1.00  0.00     0.019 A 
ENDBRANCH  18  19
ENDBRANCH  17  18
ENDBRANCH   1  17
TORSDOF 5
ENDMDL
