MODEL 1
REMARK VINA RESULT:      -7.3      0.000      0.000
REMARK  11 active torsions:
REMARK  status: ('A' for Active; 'I' for Inactive)
REMARK    1  A    between atoms: C_2  and  N_3 
REMARK    2  A    between atoms: N_3  and  C_5 
REMARK    3  A    between atoms: N_3  and  C_32 
REMARK    4  A    between atoms: C_5  and  C_6 
REMARK    5  A    between atoms: N_7  and  C_8 
REMARK    6  A    between atoms: C_12  and  N_13 
REMARK    7  A    between atoms: C_16  and  C_17 
REMARK       I    between atoms: C_17  and  N_18 
REMARK    8  A    between atoms: N_18  and  N_19 
REMARK    9  A    between atoms: C_20  and  C_21 
REMARK   10  A    between atoms: C_25  and  O_26 
REMARK   11  A    between atoms: C_27  and  O_28 
ROOT
HETATM    1  C   UNL     1     -43.912  58.200 -58.299  1.00  0.00     0.096 A 
HETATM    2  N   UNL     1     -43.502  59.340 -58.985  1.00  0.00    -0.215 N 
HETATM    3  N   UNL     1     -42.457  59.899 -58.317  1.00  0.00     0.012 NA
HETATM    4  N   UNL     1     -42.121  59.119 -57.302  1.00  0.00    -0.152 NA
HETATM    5  C   UNL     1     -42.988  58.066 -57.271  1.00  0.00     0.170 A 
ENDROOT
BRANCH   5   6
HETATM    6  C   UNL     1     -42.920  56.985 -56.297  1.00  0.00     0.293 C 
HETATM    7  N   UNL     1     -42.003  56.000 -56.607  1.00  0.00    -0.242 N 
HETATM    8  H   UNL     1     -41.440  56.066 -57.452  1.00  0.00     0.192 HD
HETATM    9  O   UNL     1     -43.663  56.994 -55.318  1.00  0.00    -0.264 OA
BRANCH   7  10
HETATM   10  N   UNL     1     -41.836  54.957 -55.749  1.00  0.00    -0.184 NA
HETATM   11  C   UNL     1     -40.784  54.992 -54.995  1.00  0.00     0.150 C 
BRANCH  11  12
HETATM   12  C   UNL     1     -40.517  53.921 -54.013  1.00  0.00    -0.013 A 
HETATM   13  C   UNL     1     -40.190  52.633 -54.449  1.00  0.00     0.035 A 
HETATM   14  C   UNL     1     -39.955  51.633 -53.509  1.00  0.00     0.047 A 
HETATM   15 BR   UNL     1     -39.524  49.891 -54.117  1.00  0.00    -0.048 Br
HETATM   16  C   UNL     1     -40.042  51.918 -52.144  1.00  0.00     0.116 A 
HETATM   17  C   UNL     1     -40.362  53.212 -51.702  1.00  0.00     0.103 A 
HETATM   18  C   UNL     1     -40.605  54.215 -52.646  1.00  0.00     0.052 A 
BRANCH  16  19
HETATM   19  O   UNL     1     -39.813  50.943 -51.206  1.00  0.00    -0.357 OA
HETATM   20  H   UNL     1     -40.266  50.130 -51.493  1.00  0.00     0.218 HD
ENDBRANCH  16  19
BRANCH  17  21
HETATM   21  O   UNL     1     -40.419  53.385 -50.344  1.00  0.00    -0.353 OA
HETATM   22  C   UNL     1     -39.811  54.544 -49.792  1.00  0.00     0.210 C 
ENDBRANCH  17  21
ENDBRANCH  11  12
ENDBRANCH   7  10
ENDBRANCH   5   6
BRANCH   1  23
HETATM   23  C   UNL     1     -45.134  57.408 -58.588  1.00  0.00     0.296 C 
BRANCH  23  24
HETATM   24  N   UNL     1     -45.173  56.703 -59.933  1.00  0.00    -0.066 N 
HETATM   25  H   UNL     1     -45.065  57.436 -60.649  1.00  0.00     0.280 HD
BRANCH  24  26
HETATM   26  C   UNL     1     -46.527  56.042 -60.162  1.00  0.00     0.231 C 
HETATM   27  C   UNL     1     -47.388  56.855 -61.113  1.00  0.00     0.034 C 
ENDBRANCH  24  26
BRANCH  24  28
HETATM   28  C   UNL     1     -44.040  55.700 -60.098  1.00  0.00     0.231 C 
HETATM   29  C   UNL     1     -44.467  54.315 -59.638  1.00  0.00     0.034 C 
ENDBRANCH  24  28
ENDBRANCH  23  24
ENDBRANCH   1  23
BRANCH   2  30
HETATM   30  C   UNL     1     -43.993  59.862 -60.205  1.00  0.00     0.225 A 
HETATM   31  N   UNL     1     -45.311  59.963 -60.401  1.00  0.00    -0.081 NA
HETATM   32  O   UNL     1     -45.411  60.488 -61.694  1.00  0.00    -0.103 OA
HETATM   33  N   UNL     1     -44.158  60.668 -62.260  1.00  0.00    -0.083 NA
HETATM   34  C   UNL     1     -43.279  60.278 -61.340  1.00  0.00     0.201 A 
BRANCH  34  35
HETATM   35  N   UNL     1     -41.947  60.300 -61.501  1.00  0.00    -0.379 N 
HETATM   36  H   UNL     1     -41.333  60.400 -60.696  1.00  0.00     0.158 HD
HETATM   37  H   UNL     1     -41.483  60.389 -62.402  1.00  0.00     0.158 HD
ENDBRANCH  34  35
ENDBRANCH   2  30
TORSDOF 11
ENDMDL
MODEL 2
REMARK VINA RESULT:      -7.3      5.957     10.154
REMARK  11 active torsions:
REMARK  status: ('A' for Active; 'I' for Inactive)
REMARK    1  A    between atoms: C_2  and  N_3 
REMARK    2  A    between atoms: N_3  and  C_5 
REMARK    3  A    between atoms: N_3  and  C_32 
REMARK    4  A    between atoms: C_5  and  C_6 
REMARK    5  A    between atoms: N_7  and  C_8 
REMARK    6  A    between atoms: C_12  and  N_13 
REMARK    7  A    between atoms: C_16  and  C_17 
REMARK       I    between atoms: C_17  and  N_18 
REMARK    8  A    between atoms: N_18  and  N_19 
REMARK    9  A    between atoms: C_20  and  C_21 
REMARK   10  A    between atoms: C_25  and  O_26 
REMARK   11  A    between atoms: C_27  and  O_28 
ROOT
HETATM    1  C   UNL     1     -41.008  53.645 -52.948  1.00  0.00     0.096 A 
HETATM    2  N   UNL     1     -40.309  52.600 -53.545  1.00  0.00    -0.215 N 
HETATM    3  N   UNL     1     -39.988  52.959 -54.816  1.00  0.00     0.012 NA
HETATM    4  N   UNL     1     -40.357  54.214 -55.021  1.00  0.00    -0.152 NA
HETATM    5  C   UNL     1     -40.977  54.663 -53.892  1.00  0.00     0.170 A 
ENDROOT
BRANCH   5   6
HETATM    6  C   UNL     1     -41.506  56.011 -53.737  1.00  0.00     0.293 C 
HETATM    7  N   UNL     1     -42.885  56.077 -53.689  1.00  0.00    -0.242 N 
HETATM    8  H   UNL     1     -43.445  55.230 -53.758  1.00  0.00     0.192 HD
HETATM    9  O   UNL     1     -40.738  56.969 -53.686  1.00  0.00    -0.264 OA
BRANCH   7  10
HETATM   10  N   UNL     1     -43.485  57.285 -53.516  1.00  0.00    -0.184 NA
HETATM   11  C   UNL     1     -44.197  57.428 -52.443  1.00  0.00     0.150 C 
BRANCH  11  12
HETATM   12  C   UNL     1     -44.874  58.707 -52.146  1.00  0.00    -0.013 A 
HETATM   13  C   UNL     1     -45.236  59.570 -53.186  1.00  0.00     0.035 A 
HETATM   14  C   UNL     1     -45.862  60.776 -52.886  1.00  0.00     0.047 A 
HETATM   15 BR   UNL     1     -46.336  61.938 -54.306  1.00  0.00    -0.048 Br
HETATM   16  C   UNL     1     -46.129  61.117 -51.557  1.00  0.00     0.116 A 
HETATM   17  C   UNL     1     -45.775  60.250 -50.510  1.00  0.00     0.103 A 
HETATM   18  C   UNL     1     -45.139  59.041 -50.812  1.00  0.00     0.052 A 
BRANCH  16  19
HETATM   19  O   UNL     1     -46.745  62.303 -51.246  1.00  0.00    -0.357 OA
HETATM   20  H   UNL     1     -46.057  62.957 -51.028  1.00  0.00     0.218 HD
ENDBRANCH  16  19
BRANCH  17  21
HETATM   21  O   UNL     1     -46.083  60.679 -49.246  1.00  0.00    -0.353 OA
HETATM   22  C   UNL     1     -45.033  61.191 -48.439  1.00  0.00     0.210 C 
ENDBRANCH  17  21
ENDBRANCH  11  12
ENDBRANCH   7  10
ENDBRANCH   5   6
BRANCH   1  23
HETATM   23  C   UNL     1     -41.699  53.588 -51.636  1.00  0.00     0.296 C 
BRANCH  23  24
HETATM   24  N   UNL     1     -41.000  54.282 -50.479  1.00  0.00    -0.066 N 
HETATM   25  H   UNL     1     -40.117  54.657 -50.855  1.00  0.00     0.280 HD
BRANCH  24  26
HETATM   26  C   UNL     1     -40.640  53.286 -49.383  1.00  0.00     0.231 C 
HETATM   27  C   UNL     1     -40.307  53.990 -48.080  1.00  0.00     0.034 C 
ENDBRANCH  24  26
BRANCH  24  28
HETATM   28  C   UNL     1     -41.813  55.441 -49.919  1.00  0.00     0.231 C 
HETATM   29  C   UNL     1     -41.176  56.776 -50.272  1.00  0.00     0.034 C 
ENDBRANCH  24  28
ENDBRANCH  23  24
ENDBRANCH   1  23
BRANCH   2  30
HETATM   30  C   UNL     1     -39.910  51.366 -52.977  1.00  0.00     0.225 A 
HETATM   31  N   UNL     1     -39.429  51.333 -51.731  1.00  0.00    -0.081 NA
HETATM   32  O   UNL     1     -39.129  49.981 -51.531  1.00  0.00    -0.103 OA
HETATM   33  N   UNL     1     -39.408  49.233 -52.664  1.00  0.00    -0.083 NA
HETATM   34  C   UNL     1     -39.889  50.090 -53.562  1.00  0.00     0.201 A 
BRANCH  34  35
HETATM   35  N   UNL     1     -40.284  49.755 -54.800  1.00  0.00    -0.379 N 
HETATM   36  H   UNL     1     -39.932  50.263 -55.607  1.00  0.00     0.158 HD
HETATM   37  H   UNL     1     -41.054  49.119 -55.001  1.00  0.00     0.158 HD
ENDBRANCH  34  35
ENDBRANCH   2  30
TORSDOF 11
ENDMDL
MODEL 3
REMARK VINA RESULT:      -7.2      1.951      2.890
REMARK  11 active torsions:
REMARK  status: ('A' for Active; 'I' for Inactive)
REMARK    1  A    between atoms: C_2  and  N_3 
REMARK    2  A    between atoms: N_3  and  C_5 
REMARK    3  A    between atoms: N_3  and  C_32 
REMARK    4  A    between atoms: C_5  and  C_6 
REMARK    5  A    between atoms: N_7  and  C_8 
REMARK    6  A    between atoms: C_12  and  N_13 
REMARK    7  A    between atoms: C_16  and  C_17 
REMARK       I    between atoms: C_17  and  N_18 
REMARK    8  A    between atoms: N_18  and  N_19 
REMARK    9  A    between atoms: C_20  and  C_21 
REMARK   10  A    between atoms: C_25  and  O_26 
REMARK   11  A    between atoms: C_27  and  O_28 
ROOT
HETATM    1  C   UNL     1     -43.463  57.813 -58.796  1.00  0.00     0.096 A 
HETATM    2  N   UNL     1     -43.250  58.214 -60.111  1.00  0.00    -0.215 N 
HETATM    3  N   UNL     1     -42.468  57.288 -60.728  1.00  0.00     0.012 NA
HETATM    4  N   UNL     1     -42.259  56.274 -59.904  1.00  0.00    -0.152 NA
HETATM    5  C   UNL     1     -42.863  56.563 -58.715  1.00  0.00     0.170 A 
ENDROOT
BRANCH   5   6
HETATM    6  C   UNL     1     -42.862  55.671 -57.564  1.00  0.00     0.293 C 
HETATM    7  N   UNL     1     -41.965  56.023 -56.574  1.00  0.00    -0.242 N 
HETATM    8  H   UNL     1     -41.377  56.846 -56.680  1.00  0.00     0.192 HD
HETATM    9  O   UNL     1     -43.601  54.689 -57.549  1.00  0.00    -0.264 OA
BRANCH   7  10
HETATM   10  N   UNL     1     -41.903  55.274 -55.440  1.00  0.00    -0.184 NA
HETATM   11  C   UNL     1     -40.760  54.725 -55.174  1.00  0.00     0.150 C 
BRANCH  11  12
HETATM   12  C   UNL     1     -40.577  53.908 -53.956  1.00  0.00    -0.013 A 
HETATM   13  C   UNL     1     -40.868  54.445 -52.698  1.00  0.00     0.035 A 
HETATM   14  C   UNL     1     -40.676  53.665 -51.561  1.00  0.00     0.047 A 
HETATM   15 BR   UNL     1     -41.067  54.412 -49.864  1.00  0.00    -0.048 Br
HETATM   16  C   UNL     1     -40.201  52.356 -51.680  1.00  0.00     0.116 A 
HETATM   17  C   UNL     1     -39.914  51.810 -52.942  1.00  0.00     0.103 A 
HETATM   18  C   UNL     1     -40.100  52.597 -54.083  1.00  0.00     0.052 A 
BRANCH  16  19
HETATM   19  O   UNL     1     -40.006  51.576 -50.568  1.00  0.00    -0.357 OA
HETATM   20  H   UNL     1     -39.228  51.012 -50.722  1.00  0.00     0.218 HD
ENDBRANCH  16  19
BRANCH  17  21
HETATM   21  O   UNL     1     -39.455  50.520 -52.947  1.00  0.00    -0.353 OA
HETATM   22  C   UNL     1     -39.694  49.729 -54.102  1.00  0.00     0.210 C 
ENDBRANCH  17  21
ENDBRANCH  11  12
ENDBRANCH   7  10
ENDBRANCH   5   6
BRANCH   1  23
HETATM   23  C   UNL     1     -44.104  58.630 -57.734  1.00  0.00     0.296 C 
BRANCH  23  24
HETATM   24  N   UNL     1     -45.314  58.013 -57.054  1.00  0.00    -0.066 N 
HETATM   25  H   UNL     1     -45.202  56.991 -57.129  1.00  0.00     0.280 HD
BRANCH  24  26
HETATM   26  C   UNL     1     -46.598  58.383 -57.787  1.00  0.00     0.231 C 
HETATM   27  C   UNL     1     -46.984  57.321 -58.802  1.00  0.00     0.034 C 
ENDBRANCH  24  26
BRANCH  24  28
HETATM   28  C   UNL     1     -45.402  58.379 -55.579  1.00  0.00     0.231 C 
HETATM   29  C   UNL     1     -44.861  57.258 -54.705  1.00  0.00     0.034 C 
ENDBRANCH  24  28
ENDBRANCH  23  24
ENDBRANCH   1  23
BRANCH   2  30
HETATM   30  C   UNL     1     -43.770  59.344 -60.787  1.00  0.00     0.225 A 
HETATM   31  N   UNL     1     -45.087  59.573 -60.782  1.00  0.00    -0.081 NA
HETATM   32  O   UNL     1     -45.220  60.735 -61.548  1.00  0.00    -0.103 OA
HETATM   33  N   UNL     1     -43.991  61.168 -62.021  1.00  0.00    -0.083 NA
HETATM   34  C   UNL     1     -43.092  60.306 -61.552  1.00  0.00     0.201 A 
BRANCH  34  35
HETATM   35  N   UNL     1     -41.772  60.379 -61.784  1.00  0.00    -0.379 N 
HETATM   36  H   UNL     1     -41.214  61.110 -61.349  1.00  0.00     0.158 HD
HETATM   37  H   UNL     1     -41.290  59.849 -62.506  1.00  0.00     0.158 HD
ENDBRANCH  34  35
ENDBRANCH   2  30
TORSDOF 11
ENDMDL
MODEL 4
REMARK VINA RESULT:      -7.1      2.004      3.644
REMARK  11 active torsions:
REMARK  status: ('A' for Active; 'I' for Inactive)
REMARK    1  A    between atoms: C_2  and  N_3 
REMARK    2  A    between atoms: N_3  and  C_5 
REMARK    3  A    between atoms: N_3  and  C_32 
REMARK    4  A    between atoms: C_5  and  C_6 
REMARK    5  A    between atoms: N_7  and  C_8 
REMARK    6  A    between atoms: C_12  and  N_13 
REMARK    7  A    between atoms: C_16  and  C_17 
REMARK       I    between atoms: C_17  and  N_18 
REMARK    8  A    between atoms: N_18  and  N_19 
REMARK    9  A    between atoms: C_20  and  C_21 
REMARK   10  A    between atoms: C_25  and  O_26 
REMARK   11  A    between atoms: C_27  and  O_28 
ROOT
HETATM    1  C   UNL     1     -43.416  57.881 -58.714  1.00  0.00     0.096 A 
HETATM    2  N   UNL     1     -43.312  58.207 -60.063  1.00  0.00    -0.215 N 
HETATM    3  N   UNL     1     -42.675  57.194 -60.709  1.00  0.00     0.012 NA
HETATM    4  N   UNL     1     -42.460  56.202 -59.859  1.00  0.00    -0.152 NA
HETATM    5  C   UNL     1     -42.910  56.590 -58.632  1.00  0.00     0.170 A 
ENDROOT
BRANCH   5   6
HETATM    6  C   UNL     1     -42.858  55.750 -57.443  1.00  0.00     0.293 C 
HETATM    7  N   UNL     1     -41.949  56.169 -56.492  1.00  0.00    -0.242 N 
HETATM    8  H   UNL     1     -41.386  57.003 -56.648  1.00  0.00     0.192 HD
HETATM    9  O   UNL     1     -43.569  54.750 -57.367  1.00  0.00    -0.264 OA
BRANCH   7  10
HETATM   10  N   UNL     1     -41.839  55.473 -55.328  1.00  0.00    -0.184 NA
HETATM   11  C   UNL     1     -40.844  54.649 -55.240  1.00  0.00     0.150 C 
BRANCH  11  12
HETATM   12  C   UNL     1     -40.619  53.859 -54.012  1.00  0.00    -0.013 A 
HETATM   13  C   UNL     1     -40.778  54.451 -52.755  1.00  0.00     0.035 A 
HETATM   14  C   UNL     1     -40.549  53.694 -51.610  1.00  0.00     0.047 A 
HETATM   15 BR   UNL     1     -40.759  54.515 -49.914  1.00  0.00    -0.048 Br
HETATM   16  C   UNL     1     -40.168  52.353 -51.718  1.00  0.00     0.116 A 
HETATM   17  C   UNL     1     -40.016  51.753 -52.978  1.00  0.00     0.103 A 
HETATM   18  C   UNL     1     -40.239  52.515 -54.129  1.00  0.00     0.052 A 
BRANCH  16  19
HETATM   19  O   UNL     1     -39.939  51.595 -50.598  1.00  0.00    -0.357 OA
HETATM   20  H   UNL     1     -39.762  52.196 -49.853  1.00  0.00     0.218 HD
ENDBRANCH  16  19
BRANCH  17  21
HETATM   21  O   UNL     1     -39.642  50.435 -52.973  1.00  0.00    -0.353 OA
HETATM   22  C   UNL     1     -39.483  49.779 -54.222  1.00  0.00     0.210 C 
ENDBRANCH  17  21
ENDBRANCH  11  12
ENDBRANCH   7  10
ENDBRANCH   5   6
BRANCH   1  23
HETATM   23  C   UNL     1     -43.875  58.791 -57.635  1.00  0.00     0.296 C 
BRANCH  23  24
HETATM   24  N   UNL     1     -42.788  59.546 -56.888  1.00  0.00    -0.066 N 
HETATM   25  H   UNL     1     -41.908  59.041 -57.065  1.00  0.00     0.280 HD
BRANCH  24  26
HETATM   26  C   UNL     1     -43.037  59.511 -55.384  1.00  0.00     0.231 C 
HETATM   27  C   UNL     1     -41.732  59.487 -54.606  1.00  0.00     0.034 C 
ENDBRANCH  24  26
BRANCH  24  28
HETATM   28  C   UNL     1     -42.629  60.977 -57.382  1.00  0.00     0.231 C 
HETATM   29  C   UNL     1     -41.359  61.131 -58.204  1.00  0.00     0.034 C 
ENDBRANCH  24  28
ENDBRANCH  23  24
ENDBRANCH   1  23
BRANCH   2  30
HETATM   30  C   UNL     1     -43.811  59.347 -60.738  1.00  0.00     0.225 A 
HETATM   31  N   UNL     1     -45.122  59.603 -60.729  1.00  0.00    -0.081 NA
HETATM   32  O   UNL     1     -45.234  60.767 -61.497  1.00  0.00    -0.103 OA
HETATM   33  N   UNL     1     -43.997  61.174 -61.973  1.00  0.00    -0.083 NA
HETATM   34  C   UNL     1     -43.115  60.293 -61.506  1.00  0.00     0.201 A 
BRANCH  34  35
HETATM   35  N   UNL     1     -41.795  60.339 -61.743  1.00  0.00    -0.379 N 
HETATM   36  H   UNL     1     -41.154  60.655 -61.019  1.00  0.00     0.158 HD
HETATM   37  H   UNL     1     -41.376  60.232 -62.665  1.00  0.00     0.158 HD
ENDBRANCH  34  35
ENDBRANCH   2  30
TORSDOF 11
ENDMDL
MODEL 5
REMARK VINA RESULT:      -7.0      1.686      2.538
REMARK  11 active torsions:
REMARK  status: ('A' for Active; 'I' for Inactive)
REMARK    1  A    between atoms: C_2  and  N_3 
REMARK    2  A    between atoms: N_3  and  C_5 
REMARK    3  A    between atoms: N_3  and  C_32 
REMARK    4  A    between atoms: C_5  and  C_6 
REMARK    5  A    between atoms: N_7  and  C_8 
REMARK    6  A    between atoms: C_12  and  N_13 
REMARK    7  A    between atoms: C_16  and  C_17 
REMARK       I    between atoms: C_17  and  N_18 
REMARK    8  A    between atoms: N_18  and  N_19 
REMARK    9  A    between atoms: C_20  and  C_21 
REMARK   10  A    between atoms: C_25  and  O_26 
REMARK   11  A    between atoms: C_27  and  O_28 
ROOT
HETATM    1  C   UNL     1     -43.321  57.883 -58.636  1.00  0.00     0.096 A 
HETATM    2  N   UNL     1     -43.269  58.274 -59.970  1.00  0.00    -0.215 N 
HETATM    3  N   UNL     1     -42.747  57.254 -60.703  1.00  0.00     0.012 NA
HETATM    4  N   UNL     1     -42.560  56.205 -59.919  1.00  0.00    -0.152 NA
HETATM    5  C   UNL     1     -42.910  56.557 -58.649  1.00  0.00     0.170 A 
ENDROOT
BRANCH   5   6
HETATM    6  C   UNL     1     -42.855  55.651 -57.510  1.00  0.00     0.293 C 
HETATM    7  N   UNL     1     -41.899  55.983 -56.568  1.00  0.00    -0.242 N 
HETATM    8  H   UNL     1     -41.309  56.801 -56.698  1.00  0.00     0.192 HD
HETATM    9  O   UNL     1     -43.602  54.677 -57.463  1.00  0.00    -0.264 OA
BRANCH   7  10
HETATM   10  N   UNL     1     -41.781  55.221 -55.447  1.00  0.00    -0.184 NA
HETATM   11  C   UNL     1     -40.721  54.482 -55.361  1.00  0.00     0.150 C 
BRANCH  11  12
HETATM   12  C   UNL     1     -40.483  53.631 -54.176  1.00  0.00    -0.013 A 
HETATM   13  C   UNL     1     -40.142  52.284 -54.335  1.00  0.00     0.035 A 
HETATM   14  C   UNL     1     -39.935  51.495 -53.207  1.00  0.00     0.047 A 
HETATM   15 BR   UNL     1     -39.483  49.669 -53.439  1.00  0.00    -0.048 Br
HETATM   16  C   UNL     1     -40.062  52.048 -51.930  1.00  0.00     0.116 A 
HETATM   17  C   UNL     1     -40.397  53.402 -51.766  1.00  0.00     0.103 A 
HETATM   18  C   UNL     1     -40.612  54.193 -52.900  1.00  0.00     0.052 A 
BRANCH  16  19
HETATM   19  O   UNL     1     -39.860  51.282 -50.809  1.00  0.00    -0.357 OA
HETATM   20  H   UNL     1     -40.327  50.437 -50.929  1.00  0.00     0.218 HD
ENDBRANCH  16  19
BRANCH  17  21
HETATM   21  O   UNL     1     -40.494  53.844 -50.473  1.00  0.00    -0.353 OA
HETATM   22  C   UNL     1     -40.673  55.235 -50.254  1.00  0.00     0.210 C 
ENDBRANCH  17  21
ENDBRANCH  11  12
ENDBRANCH   7  10
ENDBRANCH   5   6
BRANCH   1  23
HETATM   23  C   UNL     1     -43.649  58.765 -57.487  1.00  0.00     0.296 C 
BRANCH  23  24
HETATM   24  N   UNL     1     -44.854  58.361 -56.655  1.00  0.00    -0.066 N 
HETATM   25  H   UNL     1     -44.975  57.346 -56.790  1.00  0.00     0.280 HD
BRANCH  24  26
HETATM   26  C   UNL     1     -46.120  59.039 -57.166  1.00  0.00     0.231 C 
HETATM   27  C   UNL     1     -47.091  58.031 -57.757  1.00  0.00     0.034 C 
ENDBRANCH  24  26
BRANCH  24  28
HETATM   28  C   UNL     1     -44.652  58.627 -55.170  1.00  0.00     0.231 C 
HETATM   29  C   UNL     1     -44.619  57.327 -54.382  1.00  0.00     0.034 C 
ENDBRANCH  24  28
ENDBRANCH  23  24
ENDBRANCH   1  23
BRANCH   2  30
HETATM   30  C   UNL     1     -43.718  59.482 -60.556  1.00  0.00     0.225 A 
HETATM   31  N   UNL     1     -42.884  60.521 -60.655  1.00  0.00    -0.081 NA
HETATM   32  O   UNL     1     -43.668  61.515 -61.251  1.00  0.00    -0.103 OA
HETATM   33  N   UNL     1     -44.961  61.066 -61.474  1.00  0.00    -0.083 NA
HETATM   34  C   UNL     1     -44.994  59.808 -61.042  1.00  0.00     0.201 A 
BRANCH  34  35
HETATM   35  N   UNL     1     -46.076  59.015 -61.086  1.00  0.00    -0.379 N 
HETATM   36  H   UNL     1     -46.455  58.614 -60.231  1.00  0.00     0.158 HD
HETATM   37  H   UNL     1     -46.471  58.637 -61.944  1.00  0.00     0.158 HD
ENDBRANCH  34  35
ENDBRANCH   2  30
TORSDOF 11
ENDMDL
MODEL 6
REMARK VINA RESULT:      -6.9      2.526      4.026
REMARK  11 active torsions:
REMARK  status: ('A' for Active; 'I' for Inactive)
REMARK    1  A    between atoms: C_2  and  N_3 
REMARK    2  A    between atoms: N_3  and  C_5 
REMARK    3  A    between atoms: N_3  and  C_32 
REMARK    4  A    between atoms: C_5  and  C_6 
REMARK    5  A    between atoms: N_7  and  C_8 
REMARK    6  A    between atoms: C_12  and  N_13 
REMARK    7  A    between atoms: C_16  and  C_17 
REMARK       I    between atoms: C_17  and  N_18 
REMARK    8  A    between atoms: N_18  and  N_19 
REMARK    9  A    between atoms: C_20  and  C_21 
REMARK   10  A    between atoms: C_25  and  O_26 
REMARK   11  A    between atoms: C_27  and  O_28 
ROOT
HETATM    1  C   UNL     1     -45.126  57.045 -59.166  1.00  0.00     0.096 A 
HETATM    2  N   UNL     1     -45.593  56.726 -60.438  1.00  0.00    -0.215 N 
HETATM    3  N   UNL     1     -44.643  55.995 -61.080  1.00  0.00     0.012 NA
HETATM    4  N   UNL     1     -43.644  55.750 -60.248  1.00  0.00    -0.152 NA
HETATM    5  C   UNL     1     -43.915  56.373 -59.066  1.00  0.00     0.170 A 
ENDROOT
BRANCH   5   6
HETATM    6  C   UNL     1     -43.046  56.315 -57.898  1.00  0.00     0.293 C 
HETATM    7  N   UNL     1     -43.175  55.159 -57.152  1.00  0.00    -0.242 N 
HETATM    8  H   UNL     1     -43.832  54.434 -57.434  1.00  0.00     0.192 HD
HETATM    9  O   UNL     1     -42.304  57.259 -57.637  1.00  0.00    -0.264 OA
BRANCH   7  10
HETATM   10  N   UNL     1     -42.389  54.987 -56.056  1.00  0.00    -0.184 NA
HETATM   11  C   UNL     1     -42.828  54.168 -55.154  1.00  0.00     0.150 C 
BRANCH  11  12
HETATM   12  C   UNL     1     -42.043  53.891 -53.933  1.00  0.00    -0.013 A 
HETATM   13  C   UNL     1     -42.189  54.703 -52.803  1.00  0.00     0.035 A 
HETATM   14  C   UNL     1     -41.432  54.435 -51.667  1.00  0.00     0.047 A 
HETATM   15 BR   UNL     1     -41.635  55.552 -50.149  1.00  0.00    -0.048 Br
HETATM   16  C   UNL     1     -40.538  53.361 -51.656  1.00  0.00     0.116 A 
HETATM   17  C   UNL     1     -40.393  52.538 -52.785  1.00  0.00     0.103 A 
HETATM   18  C   UNL     1     -41.149  52.812 -53.929  1.00  0.00     0.052 A 
BRANCH  16  19
HETATM   19  O   UNL     1     -39.784  53.085 -50.543  1.00  0.00    -0.357 OA
HETATM   20  H   UNL     1     -40.388  52.858 -49.814  1.00  0.00     0.218 HD
ENDBRANCH  16  19
BRANCH  17  21
HETATM   21  O   UNL     1     -39.492  51.513 -52.669  1.00  0.00    -0.353 OA
HETATM   22  C   UNL     1     -39.473  50.522 -53.685  1.00  0.00     0.210 C 
ENDBRANCH  17  21
ENDBRANCH  11  12
ENDBRANCH   7  10
ENDBRANCH   5   6
BRANCH   1  23
HETATM   23  C   UNL     1     -45.772  57.985 -58.216  1.00  0.00     0.296 C 
BRANCH  23  24
HETATM   24  N   UNL     1     -44.844  58.720 -57.264  1.00  0.00    -0.066 N 
HETATM   25  H   UNL     1     -43.971  58.174 -57.229  1.00  0.00     0.280 HD
BRANCH  24  26
HETATM   26  C   UNL     1     -45.420  58.744 -55.852  1.00  0.00     0.231 C 
HETATM   27  C   UNL     1     -44.809  57.657 -54.985  1.00  0.00     0.034 C 
ENDBRANCH  24  26
BRANCH  24  28
HETATM   28  C   UNL     1     -44.512  60.125 -57.743  1.00  0.00     0.231 C 
HETATM   29  C   UNL     1     -43.256  60.651 -57.066  1.00  0.00     0.034 C 
ENDBRANCH  24  28
ENDBRANCH  23  24
ENDBRANCH   1  23
BRANCH   2  30
HETATM   30  C   UNL     1     -46.850  57.020 -61.017  1.00  0.00     0.225 A 
HETATM   31  N   UNL     1     -47.721  56.034 -61.251  1.00  0.00    -0.081 NA
HETATM   32  O   UNL     1     -48.811  56.690 -61.833  1.00  0.00    -0.103 OA
HETATM   33  N   UNL     1     -48.567  58.049 -61.963  1.00  0.00    -0.083 NA
HETATM   34  C   UNL     1     -47.352  58.255 -61.460  1.00  0.00     0.201 A 
BRANCH  34  35
HETATM   35  N   UNL     1     -46.746  59.450 -61.397  1.00  0.00    -0.379 N 
HETATM   36  H   UNL     1     -47.295  60.306 -61.406  1.00  0.00     0.158 HD
HETATM   37  H   UNL     1     -45.743  59.588 -61.503  1.00  0.00     0.158 HD
ENDBRANCH  34  35
ENDBRANCH   2  30
TORSDOF 11
ENDMDL
MODEL 7
REMARK VINA RESULT:      -6.9      4.165     10.236
REMARK  11 active torsions:
REMARK  status: ('A' for Active; 'I' for Inactive)
REMARK    1  A    between atoms: C_2  and  N_3 
REMARK    2  A    between atoms: N_3  and  C_5 
REMARK    3  A    between atoms: N_3  and  C_32 
REMARK    4  A    between atoms: C_5  and  C_6 
REMARK    5  A    between atoms: N_7  and  C_8 
REMARK    6  A    between atoms: C_12  and  N_13 
REMARK    7  A    between atoms: C_16  and  C_17 
REMARK       I    between atoms: C_17  and  N_18 
REMARK    8  A    between atoms: N_18  and  N_19 
REMARK    9  A    between atoms: C_20  and  C_21 
REMARK   10  A    between atoms: C_25  and  O_26 
REMARK   11  A    between atoms: C_27  and  O_28 
ROOT
HETATM    1  C   UNL     1     -41.927  55.830 -51.920  1.00  0.00     0.096 A 
HETATM    2  N   UNL     1     -41.155  54.826 -51.344  1.00  0.00    -0.215 N 
HETATM    3  N   UNL     1     -40.474  54.181 -52.329  1.00  0.00     0.012 NA
HETATM    4  N   UNL     1     -40.696  54.789 -53.483  1.00  0.00    -0.152 NA
HETATM    5  C   UNL     1     -41.576  55.808 -53.263  1.00  0.00     0.170 A 
ENDROOT
BRANCH   5   6
HETATM    6  C   UNL     1     -42.045  56.715 -54.301  1.00  0.00     0.293 C 
HETATM    7  N   UNL     1     -42.962  56.156 -55.171  1.00  0.00    -0.242 N 
HETATM    8  H   UNL     1     -43.257  55.189 -55.057  1.00  0.00     0.192 HD
HETATM    9  O   UNL     1     -41.605  57.861 -54.360  1.00  0.00    -0.264 OA
BRANCH   7  10
HETATM   10  N   UNL     1     -43.489  56.924 -56.162  1.00  0.00    -0.184 NA
HETATM   11  C   UNL     1     -43.014  56.737 -57.352  1.00  0.00     0.150 C 
BRANCH  11  12
HETATM   12  C   UNL     1     -43.531  57.504 -58.505  1.00  0.00    -0.013 A 
HETATM   13  C   UNL     1     -42.690  58.376 -59.204  1.00  0.00     0.035 A 
HETATM   14  C   UNL     1     -43.199  59.099 -60.279  1.00  0.00     0.047 A 
HETATM   15 BR   UNL     1     -42.048  60.284 -61.208  1.00  0.00    -0.048 Br
HETATM   16  C   UNL     1     -44.536  58.950 -60.656  1.00  0.00     0.116 A 
HETATM   17  C   UNL     1     -45.382  58.070 -59.962  1.00  0.00     0.103 A 
HETATM   18  C   UNL     1     -44.873  57.348 -58.877  1.00  0.00     0.052 A 
BRANCH  16  19
HETATM   19  O   UNL     1     -45.050  59.657 -61.714  1.00  0.00    -0.357 OA
HETATM   20  H   UNL     1     -45.164  59.046 -62.464  1.00  0.00     0.218 HD
ENDBRANCH  16  19
BRANCH  17  21
HETATM   21  O   UNL     1     -46.673  57.997 -60.414  1.00  0.00    -0.353 OA
HETATM   22  C   UNL     1     -47.163  56.733 -60.836  1.00  0.00     0.210 C 
ENDBRANCH  17  21
ENDBRANCH  11  12
ENDBRANCH   7  10
ENDBRANCH   5   6
BRANCH   1  23
HETATM   23  C   UNL     1     -42.956  56.641 -51.220  1.00  0.00     0.296 C 
BRANCH  23  24
HETATM   24  N   UNL     1     -42.517  58.016 -50.746  1.00  0.00    -0.066 N 
HETATM   25  H   UNL     1     -42.716  58.053 -49.735  1.00  0.00     0.280 HD
BRANCH  24  26
HETATM   26  C   UNL     1     -43.344  59.110 -51.411  1.00  0.00     0.231 C 
HETATM   27  C   UNL     1     -44.530  58.531 -52.162  1.00  0.00     0.034 C 
ENDBRANCH  24  26
BRANCH  24  28
HETATM   28  C   UNL     1     -41.028  58.254 -50.951  1.00  0.00     0.231 C 
HETATM   29  C   UNL     1     -40.569  59.503 -50.214  1.00  0.00     0.034 C 
ENDBRANCH  24  28
ENDBRANCH  23  24
ENDBRANCH   1  23
BRANCH   2  30
HETATM   30  C   UNL     1     -41.001  54.503 -49.975  1.00  0.00     0.225 A 
HETATM   31  N   UNL     1     -41.140  55.456 -49.048  1.00  0.00    -0.081 NA
HETATM   32  O   UNL     1     -40.903  54.782 -47.846  1.00  0.00    -0.103 OA
HETATM   33  N   UNL     1     -40.601  53.447 -48.071  1.00  0.00    -0.083 NA
HETATM   34  C   UNL     1     -40.658  53.274 -49.389  1.00  0.00     0.201 A 
BRANCH  34  35
HETATM   35  N   UNL     1     -40.431  52.109 -50.015  1.00  0.00    -0.379 N 
HETATM   36  H   UNL     1     -40.003  52.096 -50.938  1.00  0.00     0.158 HD
HETATM   37  H   UNL     1     -40.805  51.214 -49.708  1.00  0.00     0.158 HD
ENDBRANCH  34  35
ENDBRANCH   2  30
TORSDOF 11
ENDMDL
MODEL 8
REMARK VINA RESULT:      -6.9      1.638      3.087
REMARK  11 active torsions:
REMARK  status: ('A' for Active; 'I' for Inactive)
REMARK    1  A    between atoms: C_2  and  N_3 
REMARK    2  A    between atoms: N_3  and  C_5 
REMARK    3  A    between atoms: N_3  and  C_32 
REMARK    4  A    between atoms: C_5  and  C_6 
REMARK    5  A    between atoms: N_7  and  C_8 
REMARK    6  A    between atoms: C_12  and  N_13 
REMARK    7  A    between atoms: C_16  and  C_17 
REMARK       I    between atoms: C_17  and  N_18 
REMARK    8  A    between atoms: N_18  and  N_19 
REMARK    9  A    between atoms: C_20  and  C_21 
REMARK   10  A    between atoms: C_25  and  O_26 
REMARK   11  A    between atoms: C_27  and  O_28 
ROOT
HETATM    1  C   UNL     1     -43.379  57.776 -58.686  1.00  0.00     0.096 A 
HETATM    2  N   UNL     1     -43.262  58.179 -60.013  1.00  0.00    -0.215 N 
HETATM    3  N   UNL     1     -42.668  57.182 -60.721  1.00  0.00     0.012 NA
HETATM    4  N   UNL     1     -42.495  56.132 -59.934  1.00  0.00    -0.152 NA
HETATM    5  C   UNL     1     -42.928  56.463 -58.684  1.00  0.00     0.170 A 
ENDROOT
BRANCH   5   6
HETATM    6  C   UNL     1     -42.911  55.550 -57.549  1.00  0.00     0.293 C 
HETATM    7  N   UNL     1     -41.952  55.844 -56.599  1.00  0.00    -0.242 N 
HETATM    8  H   UNL     1     -41.333  56.643 -56.721  1.00  0.00     0.192 HD
HETATM    9  O   UNL     1     -43.691  54.601 -57.513  1.00  0.00    -0.264 OA
BRANCH   7  10
HETATM   10  N   UNL     1     -41.868  55.073 -55.482  1.00  0.00    -0.184 NA
HETATM   11  C   UNL     1     -40.711  54.549 -55.229  1.00  0.00     0.150 C 
BRANCH  11  12
HETATM   12  C   UNL     1     -40.503  53.711 -54.029  1.00  0.00    -0.013 A 
HETATM   13  C   UNL     1     -40.183  52.356 -54.164  1.00  0.00     0.035 A 
HETATM   14  C   UNL     1     -40.004  51.579 -53.023  1.00  0.00     0.047 A 
HETATM   15 BR   UNL     1     -39.581  49.743 -53.224  1.00  0.00    -0.048 Br
HETATM   16  C   UNL     1     -40.139  52.153 -51.756  1.00  0.00     0.116 A 
HETATM   17  C   UNL     1     -40.452  53.514 -51.615  1.00  0.00     0.103 A 
HETATM   18  C   UNL     1     -40.639  54.293 -52.762  1.00  0.00     0.052 A 
BRANCH  16  19
HETATM   19  O   UNL     1     -39.966  51.399 -50.622  1.00  0.00    -0.357 OA
HETATM   20  H   UNL     1     -39.150  51.694 -50.181  1.00  0.00     0.218 HD
ENDBRANCH  16  19
BRANCH  17  21
HETATM   21  O   UNL     1     -40.560  53.976 -50.330  1.00  0.00    -0.353 OA
HETATM   22  C   UNL     1     -41.757  54.642 -49.956  1.00  0.00     0.210 C 
ENDBRANCH  17  21
ENDBRANCH  11  12
ENDBRANCH   7  10
ENDBRANCH   5   6
BRANCH   1  23
HETATM   23  C   UNL     1     -43.799  58.638 -57.552  1.00  0.00     0.296 C 
BRANCH  23  24
HETATM   24  N   UNL     1     -42.720  59.519 -56.945  1.00  0.00    -0.066 N 
HETATM   25  H   UNL     1     -41.824  59.037 -57.107  1.00  0.00     0.280 HD
BRANCH  24  26
HETATM   26  C   UNL     1     -42.902  59.641 -55.436  1.00  0.00     0.231 C 
HETATM   27  C   UNL     1     -41.890  58.795 -54.685  1.00  0.00     0.034 C 
ENDBRANCH  24  26
BRANCH  24  28
HETATM   28  C   UNL     1     -42.653  60.891 -57.600  1.00  0.00     0.231 C 
HETATM   29  C   UNL     1     -41.273  61.149 -58.186  1.00  0.00     0.034 C 
ENDBRANCH  24  28
ENDBRANCH  23  24
ENDBRANCH   1  23
BRANCH   2  30
HETATM   30  C   UNL     1     -43.712  59.379 -60.615  1.00  0.00     0.225 A 
HETATM   31  N   UNL     1     -44.990  59.747 -60.489  1.00  0.00    -0.081 NA
HETATM   32  O   UNL     1     -45.062  60.939 -61.216  1.00  0.00    -0.103 OA
HETATM   33  N   UNL     1     -43.838  61.252 -61.787  1.00  0.00    -0.083 NA
HETATM   34  C   UNL     1     -43.001  60.285 -61.418  1.00  0.00     0.201 A 
BRANCH  34  35
HETATM   35  N   UNL     1     -41.707  60.224 -61.765  1.00  0.00    -0.379 N 
HETATM   36  H   UNL     1     -41.240  61.039 -62.156  1.00  0.00     0.158 HD
HETATM   37  H   UNL     1     -41.172  59.359 -61.824  1.00  0.00     0.158 HD
ENDBRANCH  34  35
ENDBRANCH   2  30
TORSDOF 11
ENDMDL
MODEL 9
REMARK VINA RESULT:      -6.9      1.505      2.561
REMARK  11 active torsions:
REMARK  status: ('A' for Active; 'I' for Inactive)
REMARK    1  A    between atoms: C_2  and  N_3 
REMARK    2  A    between atoms: N_3  and  C_5 
REMARK    3  A    between atoms: N_3  and  C_32 
REMARK    4  A    between atoms: C_5  and  C_6 
REMARK    5  A    between atoms: N_7  and  C_8 
REMARK    6  A    between atoms: C_12  and  N_13 
REMARK    7  A    between atoms: C_16  and  C_17 
REMARK       I    between atoms: C_17  and  N_18 
REMARK    8  A    between atoms: N_18  and  N_19 
REMARK    9  A    between atoms: C_20  and  C_21 
REMARK   10  A    between atoms: C_25  and  O_26 
REMARK   11  A    between atoms: C_27  and  O_28 
ROOT
HETATM    1  C   UNL     1     -43.658  58.618 -57.826  1.00  0.00     0.096 A 
HETATM    2  N   UNL     1     -43.156  59.556 -58.723  1.00  0.00    -0.215 N 
HETATM    3  N   UNL     1     -41.888  59.878 -58.355  1.00  0.00     0.012 NA
HETATM    4  N   UNL     1     -41.525  59.119 -57.333  1.00  0.00    -0.152 NA
HETATM    5  C   UNL     1     -42.585  58.331 -56.992  1.00  0.00     0.170 A 
ENDROOT
BRANCH   5   6
HETATM    6  C   UNL     1     -42.556  57.348 -55.918  1.00  0.00     0.293 C 
HETATM    7  N   UNL     1     -41.963  56.148 -56.263  1.00  0.00    -0.242 N 
HETATM    8  H   UNL     1     -41.590  56.008 -57.199  1.00  0.00     0.192 HD
HETATM    9  O   UNL     1     -43.057  57.615 -54.828  1.00  0.00    -0.264 OA
BRANCH   7  10
HETATM   10  N   UNL     1     -41.856  55.169 -55.325  1.00  0.00    -0.184 NA
HETATM   11  C   UNL     1     -40.684  54.998 -54.801  1.00  0.00     0.150 C 
BRANCH  11  12
HETATM   12  C   UNL     1     -40.461  53.976 -53.757  1.00  0.00    -0.013 A 
HETATM   13  C   UNL     1     -40.604  54.307 -52.406  1.00  0.00     0.035 A 
HETATM   14  C   UNL     1     -40.377  53.334 -51.437  1.00  0.00     0.047 A 
HETATM   15 BR   UNL     1     -40.565  53.803 -49.610  1.00  0.00    -0.048 Br
HETATM   16  C   UNL     1     -40.014  52.038 -51.814  1.00  0.00     0.116 A 
HETATM   17  C   UNL     1     -39.877  51.699 -53.170  1.00  0.00     0.103 A 
HETATM   18  C   UNL     1     -40.098  52.679 -54.143  1.00  0.00     0.052 A 
BRANCH  16  19
HETATM   19  O   UNL     1     -39.786  51.069 -50.869  1.00  0.00    -0.357 OA
HETATM   20  H   UNL     1     -39.375  50.304 -51.309  1.00  0.00     0.218 HD
ENDBRANCH  16  19
BRANCH  17  21
HETATM   21  O   UNL     1     -39.520  50.403 -53.431  1.00  0.00    -0.353 OA
HETATM   22  C   UNL     1     -39.830  49.868 -54.709  1.00  0.00     0.210 C 
ENDBRANCH  17  21
ENDBRANCH  11  12
ENDBRANCH   7  10
ENDBRANCH   5   6
BRANCH   1  23
HETATM   23  C   UNL     1     -45.064  58.146 -57.760  1.00  0.00     0.296 C 
BRANCH  23  24
HETATM   24  N   UNL     1     -45.450  57.052 -58.740  1.00  0.00    -0.066 N 
HETATM   25  H   UNL     1     -45.832  56.278 -58.177  1.00  0.00     0.280 HD
BRANCH  24  26
HETATM   26  C   UNL     1     -44.224  56.518 -59.471  1.00  0.00     0.231 C 
HETATM   27  C   UNL     1     -44.096  55.012 -59.315  1.00  0.00     0.034 C 
ENDBRANCH  24  26
BRANCH  24  28
HETATM   28  C   UNL     1     -46.520  57.503 -59.724  1.00  0.00     0.231 C 
HETATM   29  C   UNL     1     -47.118  56.315 -60.462  1.00  0.00     0.034 C 
ENDBRANCH  24  28
ENDBRANCH  23  24
ENDBRANCH   1  23
BRANCH   2  30
HETATM   30  C   UNL     1     -43.773  60.091 -59.879  1.00  0.00     0.225 A 
HETATM   31  N   UNL     1     -43.417  59.646 -61.088  1.00  0.00    -0.081 NA
HETATM   32  O   UNL     1     -44.205  60.403 -61.962  1.00  0.00    -0.103 OA
HETATM   33  N   UNL     1     -44.998  61.304 -61.268  1.00  0.00    -0.083 NA
HETATM   34  C   UNL     1     -44.729  61.114 -59.978  1.00  0.00     0.201 A 
BRANCH  34  35
HETATM   35  N   UNL     1     -45.299  61.796 -58.973  1.00  0.00    -0.379 N 
HETATM   36  H   UNL     1     -45.459  61.348 -58.074  1.00  0.00     0.158 HD
HETATM   37  H   UNL     1     -45.748  62.703 -59.081  1.00  0.00     0.158 HD
ENDBRANCH  34  35
ENDBRANCH   2  30
TORSDOF 11
ENDMDL
MODEL 10
REMARK VINA RESULT:      -6.9      2.279      3.867
REMARK  11 active torsions:
REMARK  status: ('A' for Active; 'I' for Inactive)
REMARK    1  A    between atoms: C_2  and  N_3 
REMARK    2  A    between atoms: N_3  and  C_5 
REMARK    3  A    between atoms: N_3  and  C_32 
REMARK    4  A    between atoms: C_5  and  C_6 
REMARK    5  A    between atoms: N_7  and  C_8 
REMARK    6  A    between atoms: C_12  and  N_13 
REMARK    7  A    between atoms: C_16  and  C_17 
REMARK       I    between atoms: C_17  and  N_18 
REMARK    8  A    between atoms: N_18  and  N_19 
REMARK    9  A    between atoms: C_20  and  C_21 
REMARK   10  A    between atoms: C_25  and  O_26 
REMARK   11  A    between atoms: C_27  and  O_28 
ROOT
HETATM    1  C   UNL     1     -42.750  58.841 -57.887  1.00  0.00     0.096 A 
HETATM    2  N   UNL     1     -43.050  59.245 -59.184  1.00  0.00    -0.215 N 
HETATM    3  N   UNL     1     -43.452  58.160 -59.897  1.00  0.00     0.012 NA
HETATM    4  N   UNL     1     -43.520  57.111 -59.093  1.00  0.00    -0.152 NA
HETATM    5  C   UNL     1     -43.104  57.499 -57.854  1.00  0.00     0.170 A 
ENDROOT
BRANCH   5   6
HETATM    6  C   UNL     1     -43.058  56.615 -56.697  1.00  0.00     0.293 C 
HETATM    7  N   UNL     1     -42.112  55.612 -56.788  1.00  0.00    -0.242 N 
HETATM    8  H   UNL     1     -41.517  55.536 -57.610  1.00  0.00     0.192 HD
HETATM    9  O   UNL     1     -43.840  56.783 -55.764  1.00  0.00    -0.264 OA
BRANCH   7  10
HETATM   10  N   UNL     1     -41.963  54.746 -55.749  1.00  0.00    -0.184 NA
HETATM   11  C   UNL     1     -40.823  54.771 -55.136  1.00  0.00     0.150 C 
BRANCH  11  12
HETATM   12  C   UNL     1     -40.562  53.888 -53.980  1.00  0.00    -0.013 A 
HETATM   13  C   UNL     1     -40.674  54.382 -52.677  1.00  0.00     0.035 A 
HETATM   14  C   UNL     1     -40.412  53.538 -51.601  1.00  0.00     0.047 A 
HETATM   15 BR   UNL     1     -40.559  54.228 -49.842  1.00  0.00    -0.048 Br
HETATM   16  C   UNL     1     -40.045  52.209 -51.825  1.00  0.00     0.116 A 
HETATM   17  C   UNL     1     -39.939  51.706 -53.132  1.00  0.00     0.103 A 
HETATM   18  C   UNL     1     -40.195  52.556 -54.213  1.00  0.00     0.052 A 
BRANCH  16  19
HETATM   19  O   UNL     1     -39.784  51.365 -50.775  1.00  0.00    -0.357 OA
HETATM   20  H   UNL     1     -39.486  50.511 -51.135  1.00  0.00     0.218 HD
ENDBRANCH  16  19
BRANCH  17  21
HETATM   21  O   UNL     1     -39.575  50.390 -53.240  1.00  0.00    -0.353 OA
HETATM   22  C   UNL     1     -39.667  49.773 -54.516  1.00  0.00     0.210 C 
ENDBRANCH  17  21
ENDBRANCH  11  12
ENDBRANCH   7  10
ENDBRANCH   5   6
BRANCH   1  23
HETATM   23  C   UNL     1     -42.100  59.678 -56.846  1.00  0.00     0.296 C 
BRANCH  23  24
HETATM   24  N   UNL     1     -42.830  59.782 -55.518  1.00  0.00    -0.066 N 
HETATM   25  H   UNL     1     -43.384  58.918 -55.421  1.00  0.00     0.280 HD
BRANCH  24  26
HETATM   26  C   UNL     1     -43.810  60.950 -55.524  1.00  0.00     0.231 C 
HETATM   27  C   UNL     1     -43.324  62.086 -54.640  1.00  0.00     0.034 C 
ENDBRANCH  24  26
BRANCH  24  28
HETATM   28  C   UNL     1     -41.876  59.875 -54.336  1.00  0.00     0.231 C 
HETATM   29  C   UNL     1     -41.359  58.499 -53.942  1.00  0.00     0.034 C 
ENDBRANCH  24  28
ENDBRANCH  23  24
ENDBRANCH   1  23
BRANCH   2  30
HETATM   30  C   UNL     1     -43.024  60.550 -59.732  1.00  0.00     0.225 A 
HETATM   31  N   UNL     1     -43.709  61.533 -59.140  1.00  0.00    -0.081 NA
HETATM   32  O   UNL     1     -43.466  62.641 -59.958  1.00  0.00    -0.103 OA
HETATM   33  N   UNL     1     -42.664  62.301 -61.037  1.00  0.00    -0.083 NA
HETATM   34  C   UNL     1     -42.391  61.006 -60.900  1.00  0.00     0.201 A 
BRANCH  34  35
HETATM   35  N   UNL     1     -41.633  60.293 -61.747  1.00  0.00    -0.379 N 
HETATM   36  H   UNL     1     -40.811  60.711 -62.176  1.00  0.00     0.158 HD
HETATM   37  H   UNL     1     -41.904  59.392 -62.134  1.00  0.00     0.158 HD
ENDBRANCH  34  35
ENDBRANCH   2  30
TORSDOF 11
ENDMDL
