MODEL 1
REMARK VINA RESULT:      -8.0      0.000      0.000
REMARK  6 active torsions:
REMARK  status: ('A' for Active; 'I' for Inactive)
REMARK    1  A    between atoms: C_3  and  N_4 
REMARK       I    between atoms: N_4  and  C_5 
REMARK       I    between atoms: C_5  and  N_6 
REMARK    2  A    between atoms: N_6  and  C_7 
REMARK    3  A    between atoms: C_7  and  C_8 
REMARK    4  A    between atoms: C_8  and  N_9 
REMARK    5  A    between atoms: C_8  and  C_13 
REMARK    6  A    between atoms: C_20  and  C_21 
ROOT
HETATM    1  N   UNL     1     -41.110  56.028 -55.229  1.00  0.00    -0.309 N 
HETATM    2  C   UNL     1     -42.244  56.347 -55.933  1.00  0.00     0.320 C 
HETATM    3  N   UNL     1     -41.938  56.996 -57.108  1.00  0.00    -0.340 N 
HETATM    4  O   UNL     1     -43.406  56.108 -55.635  1.00  0.00    -0.247 OA
HETATM    5  H   UNL     1     -40.352  56.680 -55.382  1.00  0.00     0.170 HD
HETATM    6  H   UNL     1     -40.966  57.090 -57.380  1.00  0.00     0.164 HD
ENDROOT
BRANCH   1   7
HETATM    7  C   UNL     1     -41.021  55.305 -54.014  1.00  0.00     0.043 A 
HETATM    8  C   UNL     1     -41.278  55.802 -52.726  1.00  0.00    -0.035 A 
HETATM    9  C   UNL     1     -41.782  57.183 -52.418  1.00  0.00     0.050 C 
HETATM   10  C   UNL     1     -41.084  54.948 -51.621  1.00  0.00     0.010 A 
HETATM   11  C   UNL     1     -40.707  53.614 -51.784  1.00  0.00     0.016 A 
HETATM   12  C   UNL     1     -40.517  53.089 -53.061  1.00  0.00     0.019 A 
HETATM   13  C   UNL     1     -40.682  53.945 -54.161  1.00  0.00     0.046 A 
BRANCH  12  14
HETATM   14  C   UNL     1     -40.149  51.695 -53.287  1.00  0.00     0.179 A 
HETATM   15  O   UNL     1     -40.430  51.168 -54.521  1.00  0.00    -0.302 OA
HETATM   16  C   UNL     1     -39.982  49.884 -54.445  1.00  0.00     0.163 A 
HETATM   17  C   UNL     1     -39.458  49.692 -53.193  1.00  0.00     0.144 A 
HETATM   18  N   UNL     1     -39.564  50.847 -52.459  1.00  0.00    -0.234 NA
ENDBRANCH  12  14
ENDBRANCH   1   7
BRANCH   3  19
HETATM   19  C   UNL     1     -42.957  57.626 -57.934  1.00  0.00     0.164 C 
BRANCH  19  20
HETATM   20  C   UNL     1     -42.921  57.313 -59.457  1.00  0.00     0.261 C 
BRANCH  20  21
HETATM   21  N   UNL     1     -43.200  58.499 -60.385  1.00  0.00    -0.067 N 
HETATM   22  H   UNL     1     -43.618  58.067 -61.217  1.00  0.00     0.280 HD
HETATM   23  C   UNL     1     -44.230  59.490 -59.924  1.00  0.00     0.270 C 
HETATM   24  C   UNL     1     -41.953  59.187 -60.862  1.00  0.00     0.270 C 
ENDBRANCH  20  21
BRANCH  20  25
HETATM   25  C   UNL     1     -43.726  56.094 -59.801  1.00  0.00     0.085 A 
HETATM   26  O   UNL     1     -44.307  56.055 -61.037  1.00  0.00    -0.325 OA
HETATM   27  C   UNL     1     -44.979  54.878 -61.127  1.00  0.00     0.142 A 
HETATM   28  C   UNL     1     -44.841  54.158 -59.965  1.00  0.00     0.027 A 
HETATM   29  C   UNL     1     -44.031  54.941 -59.106  1.00  0.00     0.037 A 
ENDBRANCH  20  25
ENDBRANCH  19  20
ENDBRANCH   3  19
TORSDOF 6
ENDMDL
MODEL 2
REMARK VINA RESULT:      -7.6      1.468      2.711
REMARK  6 active torsions:
REMARK  status: ('A' for Active; 'I' for Inactive)
REMARK    1  A    between atoms: C_3  and  N_4 
REMARK       I    between atoms: N_4  and  C_5 
REMARK       I    between atoms: C_5  and  N_6 
REMARK    2  A    between atoms: N_6  and  C_7 
REMARK    3  A    between atoms: C_7  and  C_8 
REMARK    4  A    between atoms: C_8  and  N_9 
REMARK    5  A    between atoms: C_8  and  C_13 
REMARK    6  A    between atoms: C_20  and  C_21 
ROOT
HETATM    1  N   UNL     1     -41.502  55.577 -55.613  1.00  0.00    -0.309 N 
HETATM    2  C   UNL     1     -42.482  55.169 -56.481  1.00  0.00     0.320 C 
HETATM    3  N   UNL     1     -42.435  55.881 -57.659  1.00  0.00    -0.340 N 
HETATM    4  O   UNL     1     -43.314  54.288 -56.316  1.00  0.00    -0.247 OA
HETATM    5  H   UNL     1     -41.255  56.552 -55.722  1.00  0.00     0.170 HD
HETATM    6  H   UNL     1     -41.674  56.533 -57.811  1.00  0.00     0.164 HD
ENDROOT
BRANCH   1   7
HETATM    7  C   UNL     1     -41.196  55.039 -54.338  1.00  0.00     0.043 A 
HETATM    8  C   UNL     1     -41.281  55.710 -53.107  1.00  0.00    -0.035 A 
HETATM    9  C   UNL     1     -41.799  57.107 -52.918  1.00  0.00     0.050 C 
HETATM   10  C   UNL     1     -40.882  55.029 -51.938  1.00  0.00     0.010 A 
HETATM   11  C   UNL     1     -40.471  53.696 -51.971  1.00  0.00     0.016 A 
HETATM   12  C   UNL     1     -40.449  52.998 -53.178  1.00  0.00     0.019 A 
HETATM   13  C   UNL     1     -40.818  53.682 -54.347  1.00  0.00     0.046 A 
BRANCH  12  14
HETATM   14  C   UNL     1     -40.052  51.596 -53.263  1.00  0.00     0.179 A 
HETATM   15  O   UNL     1     -40.102  51.008 -54.500  1.00  0.00    -0.302 OA
HETATM   16  C   UNL     1     -39.682  49.731 -54.280  1.00  0.00     0.163 A 
HETATM   17  C   UNL     1     -39.400  49.603 -52.945  1.00  0.00     0.144 A 
HETATM   18  N   UNL     1     -39.634  50.792 -52.301  1.00  0.00    -0.234 NA
ENDBRANCH  12  14
ENDBRANCH   1   7
BRANCH   3  19
HETATM   19  C   UNL     1     -43.487  55.792 -58.661  1.00  0.00     0.164 C 
BRANCH  19  20
HETATM   20  C   UNL     1     -44.301  57.087 -58.943  1.00  0.00     0.261 C 
BRANCH  20  21
HETATM   21  N   UNL     1     -45.472  56.935 -59.918  1.00  0.00    -0.067 N 
HETATM   22  H   UNL     1     -45.294  57.652 -60.630  1.00  0.00     0.280 HD
HETATM   23  C   UNL     1     -45.544  55.651 -60.692  1.00  0.00     0.270 C 
HETATM   24  C   UNL     1     -46.801  57.282 -59.309  1.00  0.00     0.270 C 
ENDBRANCH  20  21
BRANCH  20  25
HETATM   25  C   UNL     1     -43.413  58.252 -59.268  1.00  0.00     0.085 A 
HETATM   26  O   UNL     1     -42.729  58.826 -58.234  1.00  0.00    -0.325 OA
HETATM   27  C   UNL     1     -42.002  59.850 -58.753  1.00  0.00     0.142 A 
HETATM   28  C   UNL     1     -42.209  59.944 -60.108  1.00  0.00     0.027 A 
HETATM   29  C   UNL     1     -43.120  58.913 -60.445  1.00  0.00     0.037 A 
ENDBRANCH  20  25
ENDBRANCH  19  20
ENDBRANCH   3  19
TORSDOF 6
ENDMDL
MODEL 3
REMARK VINA RESULT:      -7.5      2.189      2.606
REMARK  6 active torsions:
REMARK  status: ('A' for Active; 'I' for Inactive)
REMARK    1  A    between atoms: C_3  and  N_4 
REMARK       I    between atoms: N_4  and  C_5 
REMARK       I    between atoms: C_5  and  N_6 
REMARK    2  A    between atoms: N_6  and  C_7 
REMARK    3  A    between atoms: C_7  and  C_8 
REMARK    4  A    between atoms: C_8  and  N_9 
REMARK    5  A    between atoms: C_8  and  C_13 
REMARK    6  A    between atoms: C_20  and  C_21 
ROOT
HETATM    1  N   UNL     1     -43.482  54.869 -56.185  1.00  0.00    -0.309 N 
HETATM    2  C   UNL     1     -43.125  55.727 -57.194  1.00  0.00     0.320 C 
HETATM    3  N   UNL     1     -43.868  55.500 -58.330  1.00  0.00    -0.340 N 
HETATM    4  O   UNL     1     -42.282  56.613 -57.164  1.00  0.00    -0.247 OA
HETATM    5  H   UNL     1     -43.816  53.975 -56.523  1.00  0.00     0.170 HD
HETATM    6  H   UNL     1     -44.628  54.831 -58.296  1.00  0.00     0.164 HD
ENDROOT
BRANCH   1   7
HETATM    7  C   UNL     1     -42.988  54.842 -54.857  1.00  0.00     0.043 A 
HETATM    8  C   UNL     1     -43.316  55.738 -53.827  1.00  0.00    -0.035 A 
HETATM    9  C   UNL     1     -44.326  56.844 -53.933  1.00  0.00     0.050 C 
HETATM   10  C   UNL     1     -42.683  55.589 -52.576  1.00  0.00     0.010 A 
HETATM   11  C   UNL     1     -41.794  54.543 -52.324  1.00  0.00     0.016 A 
HETATM   12  C   UNL     1     -41.514  53.606 -53.318  1.00  0.00     0.019 A 
HETATM   13  C   UNL     1     -42.122  53.768 -54.572  1.00  0.00     0.046 A 
BRANCH  12  14
HETATM   14  C   UNL     1     -40.614  52.479 -53.098  1.00  0.00     0.179 A 
HETATM   15  O   UNL     1     -40.199  52.253 -51.810  1.00  0.00    -0.302 OA
HETATM   16  C   UNL     1     -39.391  51.161 -51.906  1.00  0.00     0.163 A 
HETATM   17  C   UNL     1     -39.352  50.778 -53.222  1.00  0.00     0.144 A 
HETATM   18  N   UNL     1     -40.132  51.617 -53.976  1.00  0.00    -0.234 NA
ENDBRANCH  12  14
ENDBRANCH   1   7
BRANCH   3  19
HETATM   19  C   UNL     1     -43.548  56.127 -59.604  1.00  0.00     0.164 C 
BRANCH  19  20
HETATM   20  C   UNL     1     -44.517  57.235 -60.107  1.00  0.00     0.261 C 
BRANCH  20  21
HETATM   21  N   UNL     1     -43.857  58.429 -60.803  1.00  0.00    -0.067 N 
HETATM   22  H   UNL     1     -43.795  58.137 -61.785  1.00  0.00     0.280 HD
HETATM   23  C   UNL     1     -44.643  59.707 -60.842  1.00  0.00     0.270 C 
HETATM   24  C   UNL     1     -42.442  58.669 -60.356  1.00  0.00     0.270 C 
ENDBRANCH  20  21
BRANCH  20  25
HETATM   25  C   UNL     1     -45.505  57.641 -59.053  1.00  0.00     0.085 A 
HETATM   26  O   UNL     1     -45.016  58.272 -57.945  1.00  0.00    -0.325 OA
HETATM   27  C   UNL     1     -46.073  58.539 -57.136  1.00  0.00     0.142 A 
HETATM   28  C   UNL     1     -47.239  58.088 -57.707  1.00  0.00     0.027 A 
HETATM   29  C   UNL     1     -46.876  57.507 -58.946  1.00  0.00     0.037 A 
ENDBRANCH  20  25
ENDBRANCH  19  20
ENDBRANCH   3  19
TORSDOF 6
ENDMDL
MODEL 4
REMARK VINA RESULT:      -7.3      1.843      3.083
REMARK  6 active torsions:
REMARK  status: ('A' for Active; 'I' for Inactive)
REMARK    1  A    between atoms: C_3  and  N_4 
REMARK       I    between atoms: N_4  and  C_5 
REMARK       I    between atoms: C_5  and  N_6 
REMARK    2  A    between atoms: N_6  and  C_7 
REMARK    3  A    between atoms: C_7  and  C_8 
REMARK    4  A    between atoms: C_8  and  N_9 
REMARK    5  A    between atoms: C_8  and  C_13 
REMARK    6  A    between atoms: C_20  and  C_21 
ROOT
HETATM    1  N   UNL     1     -41.199  55.453 -54.730  1.00  0.00    -0.309 N 
HETATM    2  C   UNL     1     -42.293  55.240 -55.531  1.00  0.00     0.320 C 
HETATM    3  N   UNL     1     -42.033  55.596 -56.836  1.00  0.00    -0.340 N 
HETATM    4  O   UNL     1     -43.382  54.785 -55.212  1.00  0.00    -0.247 OA
HETATM    5  H   UNL     1     -40.618  56.218 -55.046  1.00  0.00     0.170 HD
HETATM    6  H   UNL     1     -41.093  55.874 -57.094  1.00  0.00     0.164 HD
ENDROOT
BRANCH   1   7
HETATM    7  C   UNL     1     -41.064  55.148 -53.353  1.00  0.00     0.043 A 
HETATM    8  C   UNL     1     -41.284  56.026 -52.279  1.00  0.00    -0.035 A 
HETATM    9  C   UNL     1     -41.791  57.434 -52.404  1.00  0.00     0.050 C 
HETATM   10  C   UNL     1     -41.046  55.562 -50.969  1.00  0.00     0.010 A 
HETATM   11  C   UNL     1     -40.662  54.244 -50.716  1.00  0.00     0.016 A 
HETATM   12  C   UNL     1     -40.508  53.344 -51.770  1.00  0.00     0.019 A 
HETATM   13  C   UNL     1     -40.716  53.811 -53.077  1.00  0.00     0.046 A 
BRANCH  12  14
HETATM   14  C   UNL     1     -40.134  51.950 -51.558  1.00  0.00     0.179 A 
HETATM   15  O   UNL     1     -39.705  51.245 -52.653  1.00  0.00    -0.302 OA
HETATM   16  C   UNL     1     -39.427  50.005 -52.165  1.00  0.00     0.163 A 
HETATM   17  C   UNL     1     -39.692  50.011 -50.820  1.00  0.00     0.144 A 
HETATM   18  N   UNL     1     -40.140  51.250 -50.437  1.00  0.00    -0.234 NA
ENDBRANCH  12  14
ENDBRANCH   1   7
BRANCH   3  19
HETATM   19  C   UNL     1     -43.082  55.668 -57.843  1.00  0.00     0.164 C 
BRANCH  19  20
HETATM   20  C   UNL     1     -43.901  56.988 -57.914  1.00  0.00     0.261 C 
BRANCH  20  21
HETATM   21  N   UNL     1     -44.871  57.105 -59.093  1.00  0.00    -0.067 N 
HETATM   22  H   UNL     1     -44.409  57.766 -59.727  1.00  0.00     0.280 HD
HETATM   23  C   UNL     1     -45.074  55.872 -59.925  1.00  0.00     0.270 C 
HETATM   24  C   UNL     1     -46.182  57.738 -58.723  1.00  0.00     0.270 C 
ENDBRANCH  20  21
BRANCH  20  25
HETATM   25  C   UNL     1     -43.032  58.200 -57.744  1.00  0.00     0.085 A 
HETATM   26  O   UNL     1     -42.858  58.673 -56.474  1.00  0.00    -0.325 OA
HETATM   27  C   UNL     1     -42.051  59.762 -56.560  1.00  0.00     0.142 A 
HETATM   28  C   UNL     1     -41.703  59.998 -57.868  1.00  0.00     0.027 A 
HETATM   29  C   UNL     1     -42.335  58.991 -58.636  1.00  0.00     0.037 A 
ENDBRANCH  20  25
ENDBRANCH  19  20
ENDBRANCH   3  19
TORSDOF 6
ENDMDL
MODEL 5
REMARK VINA RESULT:      -7.1      2.706      8.616
REMARK  6 active torsions:
REMARK  status: ('A' for Active; 'I' for Inactive)
REMARK    1  A    between atoms: C_3  and  N_4 
REMARK       I    between atoms: N_4  and  C_5 
REMARK       I    between atoms: C_5  and  N_6 
REMARK    2  A    between atoms: N_6  and  C_7 
REMARK    3  A    between atoms: C_7  and  C_8 
REMARK    4  A    between atoms: C_8  and  N_9 
REMARK    5  A    between atoms: C_8  and  C_13 
REMARK    6  A    between atoms: C_20  and  C_21 
ROOT
HETATM    1  N   UNL     1     -43.645  56.505 -56.616  1.00  0.00    -0.309 N 
HETATM    2  C   UNL     1     -43.058  55.565 -55.807  1.00  0.00     0.320 C 
HETATM    3  N   UNL     1     -43.830  55.310 -54.695  1.00  0.00    -0.340 N 
HETATM    4  O   UNL     1     -42.004  54.973 -55.985  1.00  0.00    -0.247 OA
HETATM    5  H   UNL     1     -44.212  57.170 -56.106  1.00  0.00     0.170 HD
HETATM    6  H   UNL     1     -44.746  55.737 -54.623  1.00  0.00     0.164 HD
ENDROOT
BRANCH   1   7
HETATM    7  C   UNL     1     -43.186  56.974 -57.872  1.00  0.00     0.043 A 
HETATM    8  C   UNL     1     -43.259  56.290 -59.096  1.00  0.00    -0.035 A 
HETATM    9  C   UNL     1     -43.925  54.960 -59.303  1.00  0.00     0.050 C 
HETATM   10  C   UNL     1     -42.698  56.892 -60.240  1.00  0.00     0.010 A 
HETATM   11  C   UNL     1     -42.134  58.168 -60.195  1.00  0.00     0.016 A 
HETATM   12  C   UNL     1     -42.117  58.886 -59.000  1.00  0.00     0.019 A 
HETATM   13  C   UNL     1     -42.649  58.277 -57.853  1.00  0.00     0.046 A 
BRANCH  12  14
HETATM   14  C   UNL     1     -41.563  60.233 -58.906  1.00  0.00     0.179 A 
HETATM   15  O   UNL     1     -41.571  60.993 -60.047  1.00  0.00    -0.302 OA
HETATM   16  C   UNL     1     -41.011  62.174 -59.665  1.00  0.00     0.163 A 
HETATM   17  C   UNL     1     -40.694  62.081 -58.335  1.00  0.00     0.144 A 
HETATM   18  N   UNL     1     -41.048  60.846 -57.854  1.00  0.00    -0.234 NA
ENDBRANCH  12  14
ENDBRANCH   1   7
BRANCH   3  19
HETATM   19  C   UNL     1     -43.342  54.514 -53.579  1.00  0.00     0.164 C 
BRANCH  19  20
HETATM   20  C   UNL     1     -42.807  55.290 -52.342  1.00  0.00     0.261 C 
BRANCH  20  21
HETATM   21  N   UNL     1     -42.537  56.782 -52.560  1.00  0.00    -0.067 N 
HETATM   22  H   UNL     1     -43.139  57.027 -53.355  1.00  0.00     0.280 HD
HETATM   23  C   UNL     1     -42.969  57.714 -51.466  1.00  0.00     0.270 C 
HETATM   24  C   UNL     1     -41.132  57.073 -53.004  1.00  0.00     0.270 C 
ENDBRANCH  20  21
BRANCH  20  25
HETATM   25  C   UNL     1     -41.666  54.577 -51.678  1.00  0.00     0.085 A 
HETATM   26  O   UNL     1     -40.979  53.663 -52.425  1.00  0.00    -0.325 OA
HETATM   27  C   UNL     1     -40.007  53.146 -51.630  1.00  0.00     0.142 A 
HETATM   28  C   UNL     1     -40.058  53.714 -50.380  1.00  0.00     0.027 A 
HETATM   29  C   UNL     1     -41.129  54.639 -50.407  1.00  0.00     0.037 A 
ENDBRANCH  20  25
ENDBRANCH  19  20
ENDBRANCH   3  19
TORSDOF 6
ENDMDL
MODEL 6
REMARK VINA RESULT:      -6.9      1.729      2.186
REMARK  6 active torsions:
REMARK  status: ('A' for Active; 'I' for Inactive)
REMARK    1  A    between atoms: C_3  and  N_4 
REMARK       I    between atoms: N_4  and  C_5 
REMARK       I    between atoms: C_5  and  N_6 
REMARK    2  A    between atoms: N_6  and  C_7 
REMARK    3  A    between atoms: C_7  and  C_8 
REMARK    4  A    between atoms: C_8  and  N_9 
REMARK    5  A    between atoms: C_8  and  C_13 
REMARK    6  A    between atoms: C_20  and  C_21 
ROOT
HETATM    1  N   UNL     1     -41.424  55.984 -53.726  1.00  0.00    -0.309 N 
HETATM    2  C   UNL     1     -42.688  56.249 -54.189  1.00  0.00     0.320 C 
HETATM    3  N   UNL     1     -42.655  57.095 -55.275  1.00  0.00    -0.340 N 
HETATM    4  O   UNL     1     -43.750  55.820 -53.763  1.00  0.00    -0.247 OA
HETATM    5  H   UNL     1     -40.775  56.744 -53.883  1.00  0.00     0.170 HD
HETATM    6  H   UNL     1     -41.758  57.354 -55.671  1.00  0.00     0.164 HD
ENDROOT
BRANCH   1   7
HETATM    7  C   UNL     1     -41.054  55.110 -52.673  1.00  0.00     0.043 A 
HETATM    8  C   UNL     1     -41.039  55.416 -51.302  1.00  0.00    -0.035 A 
HETATM    9  C   UNL     1     -41.501  56.713 -50.701  1.00  0.00     0.050 C 
HETATM   10  C   UNL     1     -40.587  54.434 -50.397  1.00  0.00     0.010 A 
HETATM   11  C   UNL     1     -40.220  53.157 -50.823  1.00  0.00     0.016 A 
HETATM   12  C   UNL     1     -40.297  52.820 -52.174  1.00  0.00     0.019 A 
HETATM   13  C   UNL     1     -40.719  53.804 -53.081  1.00  0.00     0.046 A 
BRANCH  12  14
HETATM   14  C   UNL     1     -39.950  51.491 -52.669  1.00  0.00     0.179 A 
HETATM   15  O   UNL     1     -39.975  51.305 -54.027  1.00  0.00    -0.302 OA
HETATM   16  C   UNL     1     -39.611  50.003 -54.192  1.00  0.00     0.163 A 
HETATM   17  C   UNL     1     -39.384  49.466 -52.951  1.00  0.00     0.144 A 
HETATM   18  N   UNL     1     -39.598  50.416 -51.984  1.00  0.00    -0.234 NA
ENDBRANCH  12  14
ENDBRANCH   1   7
BRANCH   3  19
HETATM   19  C   UNL     1     -43.860  57.699 -55.824  1.00  0.00     0.164 C 
BRANCH  19  20
HETATM   20  C   UNL     1     -43.707  58.495 -57.151  1.00  0.00     0.261 C 
BRANCH  20  21
HETATM   21  N   UNL     1     -44.914  59.344 -57.559  1.00  0.00    -0.067 N 
HETATM   22  H   UNL     1     -45.256  59.728 -56.671  1.00  0.00     0.280 HD
HETATM   23  C   UNL     1     -44.635  60.553 -58.404  1.00  0.00     0.270 C 
HETATM   24  C   UNL     1     -46.048  58.534 -58.120  1.00  0.00     0.270 C 
ENDBRANCH  20  21
BRANCH  20  25
HETATM   25  C   UNL     1     -43.187  57.637 -58.267  1.00  0.00     0.085 A 
HETATM   26  O   UNL     1     -42.333  58.220 -59.160  1.00  0.00    -0.325 OA
HETATM   27  C   UNL     1     -41.999  57.271 -60.072  1.00  0.00     0.142 A 
HETATM   28  C   UNL     1     -42.626  56.084 -59.780  1.00  0.00     0.027 A 
HETATM   29  C   UNL     1     -43.394  56.317 -58.613  1.00  0.00     0.037 A 
ENDBRANCH  20  25
ENDBRANCH  19  20
ENDBRANCH   3  19
TORSDOF 6
ENDMDL
MODEL 7
REMARK VINA RESULT:      -6.9      2.990      8.486
REMARK  6 active torsions:
REMARK  status: ('A' for Active; 'I' for Inactive)
REMARK    1  A    between atoms: C_3  and  N_4 
REMARK       I    between atoms: N_4  and  C_5 
REMARK       I    between atoms: C_5  and  N_6 
REMARK    2  A    between atoms: N_6  and  C_7 
REMARK    3  A    between atoms: C_7  and  C_8 
REMARK    4  A    between atoms: C_8  and  N_9 
REMARK    5  A    between atoms: C_8  and  C_13 
REMARK    6  A    between atoms: C_20  and  C_21 
ROOT
HETATM    1  N   UNL     1     -43.577  56.131 -56.424  1.00  0.00    -0.309 N 
HETATM    2  C   UNL     1     -42.837  55.340 -55.582  1.00  0.00     0.320 C 
HETATM    3  N   UNL     1     -43.541  55.029 -54.440  1.00  0.00    -0.340 N 
HETATM    4  O   UNL     1     -41.705  54.911 -55.755  1.00  0.00    -0.247 OA
HETATM    5  H   UNL     1     -44.233  56.727 -55.935  1.00  0.00     0.170 HD
HETATM    6  H   UNL     1     -44.512  55.311 -54.368  1.00  0.00     0.164 HD
ENDROOT
BRANCH   1   7
HETATM    7  C   UNL     1     -43.217  56.597 -57.713  1.00  0.00     0.043 A 
HETATM    8  C   UNL     1     -43.374  55.904 -58.924  1.00  0.00    -0.035 A 
HETATM    9  C   UNL     1     -44.039  54.566 -59.074  1.00  0.00     0.050 C 
HETATM   10  C   UNL     1     -42.905  56.505 -60.111  1.00  0.00     0.010 A 
HETATM   11  C   UNL     1     -42.353  57.787 -60.115  1.00  0.00     0.016 A 
HETATM   12  C   UNL     1     -42.256  58.512 -58.929  1.00  0.00     0.019 A 
HETATM   13  C   UNL     1     -42.695  57.905 -57.742  1.00  0.00     0.046 A 
BRANCH  12  14
HETATM   14  C   UNL     1     -41.711  59.866 -58.883  1.00  0.00     0.179 A 
HETATM   15  O   UNL     1     -41.702  60.575 -60.056  1.00  0.00    -0.302 OA
HETATM   16  C   UNL     1     -41.155  61.775 -59.717  1.00  0.00     0.163 A 
HETATM   17  C   UNL     1     -40.863  61.743 -58.378  1.00  0.00     0.144 A 
HETATM   18  N   UNL     1     -41.219  60.528 -57.850  1.00  0.00    -0.234 NA
ENDBRANCH  12  14
ENDBRANCH   1   7
BRANCH   3  19
HETATM   19  C   UNL     1     -42.916  54.381 -53.296  1.00  0.00     0.164 C 
BRANCH  19  20
HETATM   20  C   UNL     1     -42.197  55.304 -52.272  1.00  0.00     0.261 C 
BRANCH  20  21
HETATM   21  N   UNL     1     -42.744  55.259 -50.842  1.00  0.00    -0.067 N 
HETATM   22  H   UNL     1     -43.063  56.219 -50.671  1.00  0.00     0.280 HD
HETATM   23  C   UNL     1     -43.963  54.415 -50.610  1.00  0.00     0.270 C 
HETATM   24  C   UNL     1     -41.686  54.989 -49.809  1.00  0.00     0.270 C 
ENDBRANCH  20  21
BRANCH  20  25
HETATM   25  C   UNL     1     -42.025  56.700 -52.793  1.00  0.00     0.085 A 
HETATM   26  O   UNL     1     -43.138  57.491 -52.845  1.00  0.00    -0.325 OA
HETATM   27  C   UNL     1     -42.752  58.693 -53.346  1.00  0.00     0.142 A 
HETATM   28  C   UNL     1     -41.405  58.688 -53.619  1.00  0.00     0.027 A 
HETATM   29  C   UNL     1     -40.932  57.401 -53.262  1.00  0.00     0.037 A 
ENDBRANCH  20  25
ENDBRANCH  19  20
ENDBRANCH   3  19
TORSDOF 6
ENDMDL
MODEL 8
REMARK VINA RESULT:      -6.7      3.873      5.254
REMARK  6 active torsions:
REMARK  status: ('A' for Active; 'I' for Inactive)
REMARK    1  A    between atoms: C_3  and  N_4 
REMARK       I    between atoms: N_4  and  C_5 
REMARK       I    between atoms: C_5  and  N_6 
REMARK    2  A    between atoms: N_6  and  C_7 
REMARK    3  A    between atoms: C_7  and  C_8 
REMARK    4  A    between atoms: C_8  and  N_9 
REMARK    5  A    between atoms: C_8  and  C_13 
REMARK    6  A    between atoms: C_20  and  C_21 
ROOT
HETATM    1  N   UNL     1     -41.589  56.123 -53.076  1.00  0.00    -0.309 N 
HETATM    2  C   UNL     1     -42.885  56.327 -53.478  1.00  0.00     0.320 C 
HETATM    3  N   UNL     1     -42.977  57.389 -54.349  1.00  0.00    -0.340 N 
HETATM    4  O   UNL     1     -43.879  55.688 -53.164  1.00  0.00    -0.247 OA
HETATM    5  H   UNL     1     -41.041  56.972 -53.056  1.00  0.00     0.170 HD
HETATM    6  H   UNL     1     -42.126  57.837 -54.672  1.00  0.00     0.164 HD
ENDROOT
BRANCH   1   7
HETATM    7  C   UNL     1     -41.096  55.091 -52.239  1.00  0.00     0.043 A 
HETATM    8  C   UNL     1     -40.909  55.162 -50.849  1.00  0.00    -0.035 A 
HETATM    9  C   UNL     1     -41.287  56.331 -49.985  1.00  0.00     0.050 C 
HETATM   10  C   UNL     1     -40.353  54.049 -50.185  1.00  0.00     0.010 A 
HETATM   11  C   UNL     1     -40.047  52.869 -50.864  1.00  0.00     0.016 A 
HETATM   12  C   UNL     1     -40.292  52.762 -52.232  1.00  0.00     0.019 A 
HETATM   13  C   UNL     1     -40.819  53.878 -52.900  1.00  0.00     0.046 A 
BRANCH  12  14
HETATM   14  C   UNL     1     -40.015  51.542 -52.983  1.00  0.00     0.179 A 
HETATM   15  O   UNL     1     -39.606  50.447 -52.266  1.00  0.00    -0.302 OA
HETATM   16  C   UNL     1     -39.430  49.478 -53.207  1.00  0.00     0.163 A 
HETATM   17  C   UNL     1     -39.735  50.016 -54.431  1.00  0.00     0.144 A 
HETATM   18  N   UNL     1     -40.108  51.329 -54.284  1.00  0.00    -0.234 NA
ENDBRANCH  12  14
ENDBRANCH   1   7
BRANCH   3  19
HETATM   19  C   UNL     1     -44.257  57.947 -54.760  1.00  0.00     0.164 C 
BRANCH  19  20
HETATM   20  C   UNL     1     -44.888  59.021 -53.828  1.00  0.00     0.261 C 
BRANCH  20  21
HETATM   21  N   UNL     1     -45.728  60.094 -54.526  1.00  0.00    -0.067 N 
HETATM   22  H   UNL     1     -46.584  59.598 -54.797  1.00  0.00     0.280 HD
HETATM   23  C   UNL     1     -46.211  61.233 -53.675  1.00  0.00     0.270 C 
HETATM   24  C   UNL     1     -45.117  60.588 -55.806  1.00  0.00     0.270 C 
ENDBRANCH  20  21
BRANCH  20  25
HETATM   25  C   UNL     1     -43.888  59.590 -52.865  1.00  0.00     0.085 A 
HETATM   26  O   UNL     1     -43.824  59.027 -51.622  1.00  0.00    -0.325 OA
HETATM   27  C   UNL     1     -42.866  59.695 -50.928  1.00  0.00     0.142 A 
HETATM   28  C   UNL     1     -42.311  60.682 -51.707  1.00  0.00     0.027 A 
HETATM   29  C   UNL     1     -42.969  60.617 -52.960  1.00  0.00     0.037 A 
ENDBRANCH  20  25
ENDBRANCH  19  20
ENDBRANCH   3  19
TORSDOF 6
ENDMDL
MODEL 9
REMARK VINA RESULT:      -6.7      2.232      8.818
REMARK  6 active torsions:
REMARK  status: ('A' for Active; 'I' for Inactive)
REMARK    1  A    between atoms: C_3  and  N_4 
REMARK       I    between atoms: N_4  and  C_5 
REMARK       I    between atoms: C_5  and  N_6 
REMARK    2  A    between atoms: N_6  and  C_7 
REMARK    3  A    between atoms: C_7  and  C_8 
REMARK    4  A    between atoms: C_8  and  N_9 
REMARK    5  A    between atoms: C_8  and  C_13 
REMARK    6  A    between atoms: C_20  and  C_21 
ROOT
HETATM    1  N   UNL     1     -42.193  55.940 -57.194  1.00  0.00    -0.309 N 
HETATM    2  C   UNL     1     -42.026  56.332 -55.890  1.00  0.00     0.320 C 
HETATM    3  N   UNL     1     -41.533  55.304 -55.118  1.00  0.00    -0.340 N 
HETATM    4  O   UNL     1     -42.245  57.431 -55.401  1.00  0.00    -0.247 OA
HETATM    5  H   UNL     1     -42.405  54.956 -57.289  1.00  0.00     0.170 HD
HETATM    6  H   UNL     1     -41.264  54.436 -55.568  1.00  0.00     0.164 HD
ENDROOT
BRANCH   1   7
HETATM    7  C   UNL     1     -42.616  56.735 -58.289  1.00  0.00     0.043 A 
HETATM    8  C   UNL     1     -43.490  56.344 -59.315  1.00  0.00    -0.035 A 
HETATM    9  C   UNL     1     -44.206  55.025 -59.385  1.00  0.00     0.050 C 
HETATM   10  C   UNL     1     -43.757  57.255 -60.359  1.00  0.00     0.010 A 
HETATM   11  C   UNL     1     -43.226  58.546 -60.358  1.00  0.00     0.016 A 
HETATM   12  C   UNL     1     -42.413  58.969 -59.308  1.00  0.00     0.019 A 
HETATM   13  C   UNL     1     -42.123  58.055 -58.283  1.00  0.00     0.046 A 
BRANCH  12  14
HETATM   14  C   UNL     1     -41.854  60.316 -59.246  1.00  0.00     0.179 A 
HETATM   15  O   UNL     1     -41.122  60.637 -58.133  1.00  0.00    -0.302 OA
HETATM   16  C   UNL     1     -40.732  61.924 -58.349  1.00  0.00     0.163 A 
HETATM   17  C   UNL     1     -41.234  62.320 -59.562  1.00  0.00     0.144 A 
HETATM   18  N   UNL     1     -41.946  61.294 -60.131  1.00  0.00    -0.234 NA
ENDBRANCH  12  14
ENDBRANCH   1   7
BRANCH   3  19
HETATM   19  C   UNL     1     -41.462  55.388 -53.667  1.00  0.00     0.164 C 
BRANCH  19  20
HETATM   20  C   UNL     1     -41.889  54.125 -52.867  1.00  0.00     0.261 C 
BRANCH  20  21
HETATM   21  N   UNL     1     -42.231  54.358 -51.393  1.00  0.00    -0.067 N 
HETATM   22  H   UNL     1     -41.713  53.622 -50.900  1.00  0.00     0.280 HD
HETATM   23  C   UNL     1     -41.737  55.635 -50.778  1.00  0.00     0.270 C 
HETATM   24  C   UNL     1     -43.681  54.123 -51.074  1.00  0.00     0.270 C 
ENDBRANCH  20  21
BRANCH  20  25
HETATM   25  C   UNL     1     -40.945  52.978 -53.077  1.00  0.00     0.085 A 
HETATM   26  O   UNL     1     -40.206  52.569 -52.004  1.00  0.00    -0.325 OA
HETATM   27  C   UNL     1     -39.430  51.536 -52.422  1.00  0.00     0.142 A 
HETATM   28  C   UNL     1     -39.658  51.273 -53.751  1.00  0.00     0.027 A 
HETATM   29  C   UNL     1     -40.637  52.203 -54.178  1.00  0.00     0.037 A 
ENDBRANCH  20  25
ENDBRANCH  19  20
ENDBRANCH   3  19
TORSDOF 6
ENDMDL
MODEL 10
REMARK VINA RESULT:      -6.6      2.541      3.967
REMARK  6 active torsions:
REMARK  status: ('A' for Active; 'I' for Inactive)
REMARK    1  A    between atoms: C_3  and  N_4 
REMARK       I    between atoms: N_4  and  C_5 
REMARK       I    between atoms: C_5  and  N_6 
REMARK    2  A    between atoms: N_6  and  C_7 
REMARK    3  A    between atoms: C_7  and  C_8 
REMARK    4  A    between atoms: C_8  and  N_9 
REMARK    5  A    between atoms: C_8  and  C_13 
REMARK    6  A    between atoms: C_20  and  C_21 
ROOT
HETATM    1  N   UNL     1     -41.411  56.098 -54.240  1.00  0.00    -0.309 N 
HETATM    2  C   UNL     1     -42.608  56.249 -54.892  1.00  0.00     0.320 C 
HETATM    3  N   UNL     1     -42.507  57.166 -55.915  1.00  0.00    -0.340 N 
HETATM    4  O   UNL     1     -43.664  55.675 -54.670  1.00  0.00    -0.247 OA
HETATM    5  H   UNL     1     -40.844  56.935 -54.249  1.00  0.00     0.170 HD
HETATM    6  H   UNL     1     -41.597  57.551 -56.144  1.00  0.00     0.164 HD
ENDROOT
BRANCH   1   7
HETATM    7  C   UNL     1     -41.109  55.202 -53.183  1.00  0.00     0.043 A 
HETATM    8  C   UNL     1     -41.157  55.486 -51.809  1.00  0.00    -0.035 A 
HETATM    9  C   UNL     1     -41.627  56.782 -51.211  1.00  0.00     0.050 C 
HETATM   10  C   UNL     1     -40.768  54.483 -50.898  1.00  0.00     0.010 A 
HETATM   11  C   UNL     1     -40.401  53.207 -51.327  1.00  0.00     0.016 A 
HETATM   12  C   UNL     1     -40.416  52.891 -52.684  1.00  0.00     0.019 A 
HETATM   13  C   UNL     1     -40.775  53.897 -53.595  1.00  0.00     0.046 A 
BRANCH  12  14
HETATM   14  C   UNL     1     -40.066  51.565 -53.182  1.00  0.00     0.179 A 
HETATM   15  O   UNL     1     -39.663  50.637 -52.257  1.00  0.00    -0.302 OA
HETATM   16  C   UNL     1     -39.413  49.518 -52.992  1.00  0.00     0.163 A 
HETATM   17  C   UNL     1     -39.671  49.810 -54.307  1.00  0.00     0.144 A 
HETATM   18  N   UNL     1     -40.088  51.112 -54.424  1.00  0.00    -0.234 NA
ENDBRANCH  12  14
ENDBRANCH   1   7
BRANCH   3  19
HETATM   19  C   UNL     1     -43.674  57.666 -56.627  1.00  0.00     0.164 C 
BRANCH  19  20
HETATM   20  C   UNL     1     -44.060  59.153 -56.389  1.00  0.00     0.261 C 
BRANCH  20  21
HETATM   21  N   UNL     1     -43.823  60.097 -57.571  1.00  0.00    -0.067 N 
HETATM   22  H   UNL     1     -43.068  60.712 -57.247  1.00  0.00     0.280 HD
HETATM   23  C   UNL     1     -43.287  59.481 -58.831  1.00  0.00     0.270 C 
HETATM   24  C   UNL     1     -44.991  60.998 -57.856  1.00  0.00     0.270 C 
ENDBRANCH  20  21
BRANCH  20  25
HETATM   25  C   UNL     1     -43.509  59.679 -55.096  1.00  0.00     0.085 A 
HETATM   26  O   UNL     1     -44.025  59.167 -53.940  1.00  0.00    -0.325 OA
HETATM   27  C   UNL     1     -43.390  59.783 -52.909  1.00  0.00     0.142 A 
HETATM   28  C   UNL     1     -42.470  60.686 -53.385  1.00  0.00     0.027 A 
HETATM   29  C   UNL     1     -42.544  60.622 -54.798  1.00  0.00     0.037 A 
ENDBRANCH  20  25
ENDBRANCH  19  20
ENDBRANCH   3  19
TORSDOF 6
ENDMDL
