MODEL 1
REMARK VINA RESULT:      -8.6      0.000      0.000
REMARK  5 active torsions:
REMARK  status: ('A' for Active; 'I' for Inactive)
REMARK    1  A    between atoms: C_2  and  N_3 
REMARK       I    between atoms: N_3  and  C_4 
REMARK    2  A    between atoms: C_4  and  C_5 
REMARK    3  A    between atoms: C_13  and  C_14 
REMARK    4  A    between atoms: C_16  and  O_17 
REMARK    5  A    between atoms: C_19  and  O_20 
ROOT
HETATM    1  C   UNL     1     -42.873  56.428 -55.469  1.00  0.00     0.046 A 
HETATM    2  C   UNL     1     -43.609  57.239 -54.576  1.00  0.00     0.008 A 
HETATM    3  C   UNL     1     -43.502  56.906 -53.212  1.00  0.00     0.068 A 
HETATM    4  C   UNL     1     -44.197  57.665 -52.280  1.00  0.00     0.032 A 
HETATM    5  C   UNL     1     -44.994  58.750 -52.650  1.00  0.00     0.002 A 
HETATM    6  C   UNL     1     -45.101  59.093 -53.989  1.00  0.00     0.001 A 
HETATM    7  C   UNL     1     -44.413  58.348 -54.945  1.00  0.00     0.015 A 
HETATM    8  N   UNL     1     -42.749  55.888 -52.761  1.00  0.00    -0.248 NA
HETATM    9  C   UNL     1     -42.067  55.110 -53.634  1.00  0.00     0.069 A 
HETATM   10  C   UNL     1     -42.110  55.355 -54.996  1.00  0.00     0.050 A 
ENDROOT
BRANCH   9  11
HETATM   11  C   UNL     1     -41.259  54.024 -53.038  1.00  0.00    -0.004 A 
HETATM   12  C   UNL     1     -40.676  53.033 -53.853  1.00  0.00     0.053 A 
HETATM   13  C   UNL     1     -39.934  51.972 -53.314  1.00  0.00     0.102 A 
HETATM   14  C   UNL     1     -39.776  51.872 -51.921  1.00  0.00     0.101 A 
HETATM   15  C   UNL     1     -40.320  52.860 -51.100  1.00  0.00     0.040 A 
HETATM   16  C   UNL     1     -41.047  53.922 -51.653  1.00  0.00     0.017 A 
BRANCH  13  17
HETATM   17  O   UNL     1     -39.359  50.975 -54.063  1.00  0.00    -0.353 OA
HETATM   18  C   UNL     1     -40.210  49.932 -54.520  1.00  0.00     0.210 C 
ENDBRANCH  13  17
BRANCH  14  19
HETATM   19  O   UNL     1     -39.056  50.797 -51.463  1.00  0.00    -0.353 OA
HETATM   20  C   UNL     1     -39.758  49.820 -50.707  1.00  0.00     0.210 C 
ENDBRANCH  14  19
ENDBRANCH   9  11
BRANCH   1  21
HETATM   21  C   UNL     1     -42.891  56.653 -56.939  1.00  0.00     0.253 C 
HETATM   22  N   UNL     1     -43.686  55.775 -57.649  1.00  0.00    -0.349 N 
HETATM   23  H   UNL     1     -43.999  54.942 -57.165  1.00  0.00     0.163 HD
HETATM   24  O   UNL     1     -42.246  57.566 -57.435  1.00  0.00    -0.268 OA
BRANCH  22  25
HETATM   25  C   UNL     1     -43.841  55.777 -59.113  1.00  0.00     0.022 C 
HETATM   26  C   UNL     1     -44.430  54.444 -59.593  1.00  0.00     0.037 C 
HETATM   27  C   UNL     1     -42.503  56.051 -59.821  1.00  0.00     0.037 C 
HETATM   28  C   UNL     1     -44.815  56.911 -59.483  1.00  0.00     0.037 C 
ENDBRANCH  22  25
ENDBRANCH   1  21
TORSDOF 5
ENDMDL
MODEL 2
REMARK VINA RESULT:      -8.4      0.747      2.017
REMARK  5 active torsions:
REMARK  status: ('A' for Active; 'I' for Inactive)
REMARK    1  A    between atoms: C_2  and  N_3 
REMARK       I    between atoms: N_3  and  C_4 
REMARK    2  A    between atoms: C_4  and  C_5 
REMARK    3  A    between atoms: C_13  and  C_14 
REMARK    4  A    between atoms: C_16  and  O_17 
REMARK    5  A    between atoms: C_19  and  O_20 
ROOT
HETATM    1  C   UNL     1     -43.039  56.577 -55.611  1.00  0.00     0.046 A 
HETATM    2  C   UNL     1     -43.737  57.388 -54.690  1.00  0.00     0.008 A 
HETATM    3  C   UNL     1     -43.624  57.019 -53.336  1.00  0.00     0.068 A 
HETATM    4  C   UNL     1     -44.282  57.776 -52.376  1.00  0.00     0.032 A 
HETATM    5  C   UNL     1     -45.049  58.894 -52.710  1.00  0.00     0.002 A 
HETATM    6  C   UNL     1     -45.162  59.273 -54.038  1.00  0.00     0.001 A 
HETATM    7  C   UNL     1     -44.510  58.530 -55.021  1.00  0.00     0.015 A 
HETATM    8  N   UNL     1     -42.898  55.967 -52.920  1.00  0.00    -0.248 NA
HETATM    9  C   UNL     1     -42.252  55.189 -53.821  1.00  0.00     0.069 A 
HETATM   10  C   UNL     1     -42.304  55.469 -55.175  1.00  0.00     0.050 A 
ENDROOT
BRANCH   9  11
HETATM   11  C   UNL     1     -41.471  54.063 -53.261  1.00  0.00    -0.004 A 
HETATM   12  C   UNL     1     -41.235  53.974 -51.874  1.00  0.00     0.053 A 
HETATM   13  C   UNL     1     -40.470  52.939 -51.319  1.00  0.00     0.102 A 
HETATM   14  C   UNL     1     -39.901  51.967 -52.160  1.00  0.00     0.101 A 
HETATM   15  C   UNL     1     -40.149  52.022 -53.532  1.00  0.00     0.040 A 
HETATM   16  C   UNL     1     -40.928  53.053 -54.072  1.00  0.00     0.017 A 
BRANCH  13  17
HETATM   17  O   UNL     1     -40.197  52.815 -49.978  1.00  0.00    -0.353 OA
HETATM   18  C   UNL     1     -39.894  54.006 -49.264  1.00  0.00     0.210 C 
ENDBRANCH  13  17
BRANCH  14  19
HETATM   19  O   UNL     1     -39.147  50.996 -51.550  1.00  0.00    -0.353 OA
HETATM   20  C   UNL     1     -39.581  49.651 -51.693  1.00  0.00     0.210 C 
ENDBRANCH  14  19
ENDBRANCH   9  11
BRANCH   1  21
HETATM   21  C   UNL     1     -43.068  56.838 -57.076  1.00  0.00     0.253 C 
HETATM   22  N   UNL     1     -43.752  55.895 -57.819  1.00  0.00    -0.349 N 
HETATM   23  H   UNL     1     -43.973  55.020 -57.360  1.00  0.00     0.163 HD
HETATM   24  O   UNL     1     -42.525  57.831 -57.540  1.00  0.00    -0.268 OA
BRANCH  22  25
HETATM   25  C   UNL     1     -43.892  55.920 -59.284  1.00  0.00     0.022 C 
HETATM   26  C   UNL     1     -42.528  56.147 -59.949  1.00  0.00     0.037 C 
HETATM   27  C   UNL     1     -44.889  57.000 -59.737  1.00  0.00     0.037 C 
HETATM   28  C   UNL     1     -44.440  54.551 -59.729  1.00  0.00     0.037 C 
ENDBRANCH  22  25
ENDBRANCH   1  21
TORSDOF 5
ENDMDL
MODEL 3
REMARK VINA RESULT:      -8.2      1.899      4.417
REMARK  5 active torsions:
REMARK  status: ('A' for Active; 'I' for Inactive)
REMARK    1  A    between atoms: C_2  and  N_3 
REMARK       I    between atoms: N_3  and  C_4 
REMARK    2  A    between atoms: C_4  and  C_5 
REMARK    3  A    between atoms: C_13  and  C_14 
REMARK    4  A    between atoms: C_16  and  O_17 
REMARK    5  A    between atoms: C_19  and  O_20 
ROOT
HETATM    1  C   UNL     1     -41.787  57.409 -54.233  1.00  0.00     0.046 A 
HETATM    2  C   UNL     1     -42.347  57.150 -55.502  1.00  0.00     0.008 A 
HETATM    3  C   UNL     1     -42.286  55.813 -55.941  1.00  0.00     0.068 A 
HETATM    4  C   UNL     1     -42.822  55.488 -57.180  1.00  0.00     0.032 A 
HETATM    5  C   UNL     1     -43.424  56.442 -58.002  1.00  0.00     0.002 A 
HETATM    6  C   UNL     1     -43.498  57.760 -57.579  1.00  0.00     0.001 A 
HETATM    7  C   UNL     1     -42.968  58.112 -56.339  1.00  0.00     0.015 A 
HETATM    8  N   UNL     1     -41.737  54.826 -55.212  1.00  0.00    -0.248 NA
HETATM    9  C   UNL     1     -41.187  55.098 -54.006  1.00  0.00     0.069 A 
HETATM   10  C   UNL     1     -41.196  56.382 -53.489  1.00  0.00     0.050 A 
ENDROOT
BRANCH   9  11
HETATM   11  C   UNL     1     -40.620  53.942 -53.277  1.00  0.00    -0.004 A 
HETATM   12  C   UNL     1     -40.151  52.812 -53.979  1.00  0.00     0.053 A 
HETATM   13  C   UNL     1     -39.642  51.687 -53.315  1.00  0.00     0.102 A 
HETATM   14  C   UNL     1     -39.610  51.664 -51.910  1.00  0.00     0.101 A 
HETATM   15  C   UNL     1     -40.042  52.785 -51.200  1.00  0.00     0.040 A 
HETATM   16  C   UNL     1     -40.535  53.908 -51.876  1.00  0.00     0.017 A 
BRANCH  13  17
HETATM   17  O   UNL     1     -39.187  50.558 -53.950  1.00  0.00    -0.353 OA
HETATM   18  C   UNL     1     -40.140  49.791 -54.674  1.00  0.00     0.210 C 
ENDBRANCH  13  17
BRANCH  14  19
HETATM   19  O   UNL     1     -39.118  50.523 -51.328  1.00  0.00    -0.353 OA
HETATM   20  C   UNL     1     -40.016  49.761 -50.534  1.00  0.00     0.210 C 
ENDBRANCH  14  19
ENDBRANCH   9  11
BRANCH   1  21
HETATM   21  C   UNL     1     -41.772  58.773 -53.639  1.00  0.00     0.253 C 
HETATM   22  N   UNL     1     -42.846  59.059 -52.818  1.00  0.00    -0.349 N 
HETATM   23  H   UNL     1     -43.640  58.433 -52.864  1.00  0.00     0.163 HD
HETATM   24  O   UNL     1     -40.852  59.544 -53.877  1.00  0.00    -0.268 OA
BRANCH  22  25
HETATM   25  C   UNL     1     -43.067  60.349 -52.143  1.00  0.00     0.022 C 
HETATM   26  C   UNL     1     -42.901  61.508 -53.135  1.00  0.00     0.037 C 
HETATM   27  C   UNL     1     -42.116  60.531 -50.949  1.00  0.00     0.037 C 
HETATM   28  C   UNL     1     -44.511  60.358 -51.607  1.00  0.00     0.037 C 
ENDBRANCH  22  25
ENDBRANCH   1  21
TORSDOF 5
ENDMDL
MODEL 4
REMARK VINA RESULT:      -8.1      2.010      4.736
REMARK  5 active torsions:
REMARK  status: ('A' for Active; 'I' for Inactive)
REMARK    1  A    between atoms: C_2  and  N_3 
REMARK       I    between atoms: N_3  and  C_4 
REMARK    2  A    between atoms: C_4  and  C_5 
REMARK    3  A    between atoms: C_13  and  C_14 
REMARK    4  A    between atoms: C_16  and  O_17 
REMARK    5  A    between atoms: C_19  and  O_20 
ROOT
HETATM    1  C   UNL     1     -41.855  57.453 -54.368  1.00  0.00     0.046 A 
HETATM    2  C   UNL     1     -42.415  57.249 -55.649  1.00  0.00     0.008 A 
HETATM    3  C   UNL     1     -42.379  55.928 -56.134  1.00  0.00     0.068 A 
HETATM    4  C   UNL     1     -42.916  55.657 -57.385  1.00  0.00     0.032 A 
HETATM    5  C   UNL     1     -43.495  56.651 -58.176  1.00  0.00     0.002 A 
HETATM    6  C   UNL     1     -43.544  57.955 -57.707  1.00  0.00     0.001 A 
HETATM    7  C   UNL     1     -43.012  58.253 -56.454  1.00  0.00     0.015 A 
HETATM    8  N   UNL     1     -41.854  54.904 -55.438  1.00  0.00    -0.248 NA
HETATM    9  C   UNL     1     -41.304  55.123 -54.220  1.00  0.00     0.069 A 
HETATM   10  C   UNL     1     -41.289  56.387 -53.659  1.00  0.00     0.050 A 
ENDROOT
BRANCH   9  11
HETATM   11  C   UNL     1     -40.765  53.930 -53.530  1.00  0.00    -0.004 A 
HETATM   12  C   UNL     1     -40.742  53.865 -52.123  1.00  0.00     0.053 A 
HETATM   13  C   UNL     1     -40.206  52.763 -51.441  1.00  0.00     0.102 A 
HETATM   14  C   UNL     1     -39.655  51.695 -52.170  1.00  0.00     0.101 A 
HETATM   15  C   UNL     1     -39.696  51.729 -53.565  1.00  0.00     0.040 A 
HETATM   16  C   UNL     1     -40.248  52.829 -54.233  1.00  0.00     0.017 A 
BRANCH  13  17
HETATM   17  O   UNL     1     -40.147  52.657 -50.073  1.00  0.00    -0.353 OA
HETATM   18  C   UNL     1     -40.066  53.867 -49.331  1.00  0.00     0.210 C 
ENDBRANCH  13  17
BRANCH  14  19
HETATM   19  O   UNL     1     -39.129  50.661 -51.438  1.00  0.00    -0.353 OA
HETATM   20  C   UNL     1     -39.818  49.419 -51.481  1.00  0.00     0.210 C 
ENDBRANCH  14  19
ENDBRANCH   9  11
BRANCH   1  21
HETATM   21  C   UNL     1     -41.815  58.794 -53.727  1.00  0.00     0.253 C 
HETATM   22  N   UNL     1     -42.942  59.122 -52.999  1.00  0.00    -0.349 N 
HETATM   23  H   UNL     1     -43.765  58.549 -53.141  1.00  0.00     0.163 HD
HETATM   24  O   UNL     1     -40.833  59.512 -53.852  1.00  0.00    -0.268 OA
BRANCH  22  25
HETATM   25  C   UNL     1     -43.149  60.402 -52.303  1.00  0.00     0.022 C 
HETATM   26  C   UNL     1     -42.906  61.579 -53.257  1.00  0.00     0.037 C 
HETATM   27  C   UNL     1     -42.241  60.526 -51.068  1.00  0.00     0.037 C 
HETATM   28  C   UNL     1     -44.612  60.447 -51.823  1.00  0.00     0.037 C 
ENDBRANCH  22  25
ENDBRANCH   1  21
TORSDOF 5
ENDMDL
MODEL 5
REMARK VINA RESULT:      -7.5      2.110      2.953
REMARK  5 active torsions:
REMARK  status: ('A' for Active; 'I' for Inactive)
REMARK    1  A    between atoms: C_2  and  N_3 
REMARK       I    between atoms: N_3  and  C_4 
REMARK    2  A    between atoms: C_4  and  C_5 
REMARK    3  A    between atoms: C_13  and  C_14 
REMARK    4  A    between atoms: C_16  and  O_17 
REMARK    5  A    between atoms: C_19  and  O_20 
ROOT
HETATM    1  C   UNL     1     -42.067  58.169 -54.640  1.00  0.00     0.046 A 
HETATM    2  C   UNL     1     -42.154  58.836 -53.399  1.00  0.00     0.008 A 
HETATM    3  C   UNL     1     -41.812  58.074 -52.265  1.00  0.00     0.068 A 
HETATM    4  C   UNL     1     -41.872  58.670 -51.012  1.00  0.00     0.032 A 
HETATM    5  C   UNL     1     -42.256  60.002 -50.841  1.00  0.00     0.002 A 
HETATM    6  C   UNL     1     -42.587  60.765 -51.949  1.00  0.00     0.001 A 
HETATM    7  C   UNL     1     -42.534  60.191 -53.218  1.00  0.00     0.015 A 
HETATM    8  N   UNL     1     -41.419  56.791 -52.334  1.00  0.00    -0.248 NA
HETATM    9  C   UNL     1     -41.361  56.162 -53.532  1.00  0.00     0.069 A 
HETATM   10  C   UNL     1     -41.680  56.825 -54.704  1.00  0.00     0.050 A 
ENDROOT
BRANCH   9  11
HETATM   11  C   UNL     1     -40.905  54.755 -53.502  1.00  0.00    -0.004 A 
HETATM   12  C   UNL     1     -40.756  54.075 -52.277  1.00  0.00     0.053 A 
HETATM   13  C   UNL     1     -40.292  52.753 -52.215  1.00  0.00     0.102 A 
HETATM   14  C   UNL     1     -39.946  52.082 -53.400  1.00  0.00     0.101 A 
HETATM   15  C   UNL     1     -40.116  52.728 -54.625  1.00  0.00     0.040 A 
HETATM   16  C   UNL     1     -40.594  54.044 -54.674  1.00  0.00     0.017 A 
BRANCH  13  17
HETATM   17  O   UNL     1     -40.115  52.053 -51.047  1.00  0.00    -0.353 OA
HETATM   18  C   UNL     1     -40.458  52.711 -49.835  1.00  0.00     0.210 C 
ENDBRANCH  13  17
BRANCH  14  19
HETATM   19  O   UNL     1     -39.480  50.799 -53.262  1.00  0.00    -0.353 OA
HETATM   20  C   UNL     1     -39.745  49.894 -54.325  1.00  0.00     0.210 C 
ENDBRANCH  14  19
ENDBRANCH   9  11
BRANCH   1  21
HETATM   21  C   UNL     1     -42.402  58.841 -55.924  1.00  0.00     0.253 C 
HETATM   22  N   UNL     1     -43.565  58.396 -56.524  1.00  0.00    -0.349 N 
HETATM   23  H   UNL     1     -43.958  57.529 -56.179  1.00  0.00     0.163 HD
HETATM   24  O   UNL     1     -41.681  59.722 -56.370  1.00  0.00    -0.268 OA
BRANCH  22  25
HETATM   25  C   UNL     1     -44.086  58.885 -57.811  1.00  0.00     0.022 C 
HETATM   26  C   UNL     1     -43.071  58.628 -58.933  1.00  0.00     0.037 C 
HETATM   27  C   UNL     1     -44.437  60.381 -57.746  1.00  0.00     0.037 C 
HETATM   28  C   UNL     1     -45.377  58.107 -58.123  1.00  0.00     0.037 C 
ENDBRANCH  22  25
ENDBRANCH   1  21
TORSDOF 5
ENDMDL
MODEL 6
REMARK VINA RESULT:      -7.3      2.848      6.678
REMARK  5 active torsions:
REMARK  status: ('A' for Active; 'I' for Inactive)
REMARK    1  A    between atoms: C_2  and  N_3 
REMARK       I    between atoms: N_3  and  C_4 
REMARK    2  A    between atoms: C_4  and  C_5 
REMARK    3  A    between atoms: C_13  and  C_14 
REMARK    4  A    between atoms: C_16  and  O_17 
REMARK    5  A    between atoms: C_19  and  O_20 
ROOT
HETATM    1  C   UNL     1     -42.730  56.599 -55.471  1.00  0.00     0.046 A 
HETATM    2  C   UNL     1     -41.968  55.581 -54.857  1.00  0.00     0.008 A 
HETATM    3  C   UNL     1     -41.995  55.555 -53.450  1.00  0.00     0.068 A 
HETATM    4  C   UNL     1     -41.270  54.577 -52.782  1.00  0.00     0.032 A 
HETATM    5  C   UNL     1     -40.519  53.616 -53.461  1.00  0.00     0.002 A 
HETATM    6  C   UNL     1     -40.489  53.626 -54.846  1.00  0.00     0.001 A 
HETATM    7  C   UNL     1     -41.209  54.596 -55.541  1.00  0.00     0.015 A 
HETATM    8  N   UNL     1     -42.701  56.430 -52.713  1.00  0.00    -0.248 NA
HETATM    9  C   UNL     1     -43.409  57.412 -53.319  1.00  0.00     0.069 A 
HETATM   10  C   UNL     1     -43.443  57.522 -54.698  1.00  0.00     0.050 A 
ENDROOT
BRANCH   9  11
HETATM   11  C   UNL     1     -44.161  58.316 -52.421  1.00  0.00    -0.004 A 
HETATM   12  C   UNL     1     -44.070  59.715 -52.572  1.00  0.00     0.053 A 
HETATM   13  C   UNL     1     -44.742  60.598 -51.715  1.00  0.00     0.102 A 
HETATM   14  C   UNL     1     -45.517  60.086 -50.660  1.00  0.00     0.101 A 
HETATM   15  C   UNL     1     -45.643  58.704 -50.513  1.00  0.00     0.040 A 
HETATM   16  C   UNL     1     -44.978  57.834 -51.385  1.00  0.00     0.017 A 
BRANCH  13  17
HETATM   17  O   UNL     1     -44.674  61.966 -51.810  1.00  0.00    -0.353 OA
HETATM   18  C   UNL     1     -43.418  62.574 -51.542  1.00  0.00     0.210 C 
ENDBRANCH  13  17
BRANCH  14  19
HETATM   19  O   UNL     1     -46.129  61.008 -49.848  1.00  0.00    -0.353 OA
HETATM   20  C   UNL     1     -45.638  61.133 -48.521  1.00  0.00     0.210 C 
ENDBRANCH  14  19
ENDBRANCH   9  11
BRANCH   1  21
HETATM   21  C   UNL     1     -42.794  56.757 -56.949  1.00  0.00     0.253 C 
HETATM   22  N   UNL     1     -43.620  55.856 -57.593  1.00  0.00    -0.349 N 
HETATM   23  H   UNL     1     -43.925  55.050 -57.061  1.00  0.00     0.163 HD
HETATM   24  O   UNL     1     -42.155  57.638 -57.507  1.00  0.00    -0.268 OA
BRANCH  22  25
HETATM   25  C   UNL     1     -43.822  55.794 -59.049  1.00  0.00     0.022 C 
HETATM   26  C   UNL     1     -44.417  54.437 -59.451  1.00  0.00     0.037 C 
HETATM   27  C   UNL     1     -42.510  56.043 -59.812  1.00  0.00     0.037 C 
HETATM   28  C   UNL     1     -44.815  56.905 -59.436  1.00  0.00     0.037 C 
ENDBRANCH  22  25
ENDBRANCH   1  21
TORSDOF 5
ENDMDL
MODEL 7
REMARK VINA RESULT:      -7.1      2.222      4.949
REMARK  5 active torsions:
REMARK  status: ('A' for Active; 'I' for Inactive)
REMARK    1  A    between atoms: C_2  and  N_3 
REMARK       I    between atoms: N_3  and  C_4 
REMARK    2  A    between atoms: C_4  and  C_5 
REMARK    3  A    between atoms: C_13  and  C_14 
REMARK    4  A    between atoms: C_16  and  O_17 
REMARK    5  A    between atoms: C_19  and  O_20 
ROOT
HETATM    1  C   UNL     1     -44.045  57.259 -52.563  1.00  0.00     0.046 A 
HETATM    2  C   UNL     1     -44.154  57.444 -53.958  1.00  0.00     0.008 A 
HETATM    3  C   UNL     1     -43.392  56.571 -54.757  1.00  0.00     0.068 A 
HETATM    4  C   UNL     1     -43.456  56.696 -56.139  1.00  0.00     0.032 A 
HETATM    5  C   UNL     1     -44.256  57.656 -56.761  1.00  0.00     0.002 A 
HETATM    6  C   UNL     1     -45.017  58.517 -55.986  1.00  0.00     0.001 A 
HETATM    7  C   UNL     1     -44.971  58.412 -54.597  1.00  0.00     0.015 A 
HETATM    8  N   UNL     1     -42.605  55.608 -54.247  1.00  0.00    -0.248 NA
HETATM    9  C   UNL     1     -42.497  55.459 -52.906  1.00  0.00     0.069 A 
HETATM   10  C   UNL     1     -43.205  56.270 -52.037  1.00  0.00     0.050 A 
ENDROOT
BRANCH   9  11
HETATM   11  C   UNL     1     -41.615  54.364 -52.446  1.00  0.00    -0.004 A 
HETATM   12  C   UNL     1     -40.971  53.523 -53.376  1.00  0.00     0.053 A 
HETATM   13  C   UNL     1     -40.158  52.455 -52.970  1.00  0.00     0.102 A 
HETATM   14  C   UNL     1     -39.987  52.193 -51.599  1.00  0.00     0.101 A 
HETATM   15  C   UNL     1     -40.592  53.034 -50.664  1.00  0.00     0.040 A 
HETATM   16  C   UNL     1     -41.391  54.106 -51.083  1.00  0.00     0.017 A 
BRANCH  13  17
HETATM   17  O   UNL     1     -39.521  51.599 -53.834  1.00  0.00    -0.353 OA
HETATM   18  C   UNL     1     -40.290  50.535 -54.380  1.00  0.00     0.210 C 
ENDBRANCH  13  17
BRANCH  14  19
HETATM   19  O   UNL     1     -39.195  51.121 -51.275  1.00  0.00    -0.353 OA
HETATM   20  C   UNL     1     -39.825  50.016 -50.643  1.00  0.00     0.210 C 
ENDBRANCH  14  19
ENDBRANCH   9  11
BRANCH   1  21
HETATM   21  C   UNL     1     -44.785  58.109 -51.591  1.00  0.00     0.253 C 
HETATM   22  N   UNL     1     -44.329  59.410 -51.496  1.00  0.00    -0.349 N 
HETATM   23  H   UNL     1     -43.424  59.612 -51.904  1.00  0.00     0.163 HD
HETATM   24  O   UNL     1     -45.725  57.651 -50.958  1.00  0.00    -0.268 OA
BRANCH  22  25
HETATM   25  C   UNL     1     -44.878  60.427 -50.585  1.00  0.00     0.022 C 
HETATM   26  C   UNL     1     -45.359  59.777 -49.281  1.00  0.00     0.037 C 
HETATM   27  C   UNL     1     -46.027  61.211 -51.241  1.00  0.00     0.037 C 
HETATM   28  C   UNL     1     -43.751  61.424 -50.256  1.00  0.00     0.037 C 
ENDBRANCH  22  25
ENDBRANCH   1  21
TORSDOF 5
ENDMDL
MODEL 8
REMARK VINA RESULT:      -7.1      2.271      4.764
REMARK  5 active torsions:
REMARK  status: ('A' for Active; 'I' for Inactive)
REMARK    1  A    between atoms: C_2  and  N_3 
REMARK       I    between atoms: N_3  and  C_4 
REMARK    2  A    between atoms: C_4  and  C_5 
REMARK    3  A    between atoms: C_13  and  C_14 
REMARK    4  A    between atoms: C_16  and  O_17 
REMARK    5  A    between atoms: C_19  and  O_20 
ROOT
HETATM    1  C   UNL     1     -42.748  57.903 -56.926  1.00  0.00     0.046 A 
HETATM    2  C   UNL     1     -43.272  57.299 -58.089  1.00  0.00     0.008 A 
HETATM    3  C   UNL     1     -43.257  55.891 -58.112  1.00  0.00     0.068 A 
HETATM    4  C   UNL     1     -43.761  55.232 -59.226  1.00  0.00     0.032 A 
HETATM    5  C   UNL     1     -44.286  55.920 -60.321  1.00  0.00     0.002 A 
HETATM    6  C   UNL     1     -44.314  57.306 -60.308  1.00  0.00     0.001 A 
HETATM    7  C   UNL     1     -43.815  57.991 -59.202  1.00  0.00     0.015 A 
HETATM    8  N   UNL     1     -42.784  55.145 -57.099  1.00  0.00    -0.248 NA
HETATM    9  C   UNL     1     -42.267  55.743 -56.000  1.00  0.00     0.069 A 
HETATM   10  C   UNL     1     -42.234  57.122 -55.884  1.00  0.00     0.050 A 
ENDROOT
BRANCH   9  11
HETATM   11  C   UNL     1     -41.783  54.835 -54.936  1.00  0.00    -0.004 A 
HETATM   12  C   UNL     1     -42.488  54.714 -53.722  1.00  0.00     0.053 A 
HETATM   13  C   UNL     1     -42.036  53.888 -52.683  1.00  0.00     0.102 A 
HETATM   14  C   UNL     1     -40.838  53.171 -52.836  1.00  0.00     0.101 A 
HETATM   15  C   UNL     1     -40.142  53.254 -54.043  1.00  0.00     0.040 A 
HETATM   16  C   UNL     1     -40.612  54.072 -55.079  1.00  0.00     0.017 A 
BRANCH  13  17
HETATM   17  O   UNL     1     -42.677  53.747 -51.476  1.00  0.00    -0.353 OA
HETATM   18  C   UNL     1     -42.714  54.883 -50.623  1.00  0.00     0.210 C 
ENDBRANCH  13  17
BRANCH  14  19
HETATM   19  O   UNL     1     -40.445  52.400 -51.771  1.00  0.00    -0.353 OA
HETATM   20  C   UNL     1     -39.413  51.452 -52.000  1.00  0.00     0.210 C 
ENDBRANCH  14  19
ENDBRANCH   9  11
BRANCH   1  21
HETATM   21  C   UNL     1     -42.691  59.380 -56.759  1.00  0.00     0.253 C 
HETATM   22  N   UNL     1     -43.886  59.968 -56.391  1.00  0.00    -0.349 N 
HETATM   23  H   UNL     1     -44.723  59.405 -56.484  1.00  0.00     0.163 HD
HETATM   24  O   UNL     1     -41.642  59.984 -56.933  1.00  0.00    -0.268 OA
BRANCH  22  25
HETATM   25  C   UNL     1     -44.087  61.413 -56.197  1.00  0.00     0.022 C 
HETATM   26  C   UNL     1     -45.560  61.714 -55.891  1.00  0.00     0.037 C 
HETATM   27  C   UNL     1     -43.626  62.216 -57.424  1.00  0.00     0.037 C 
HETATM   28  C   UNL     1     -43.231  61.851 -54.994  1.00  0.00     0.037 C 
ENDBRANCH  22  25
ENDBRANCH   1  21
TORSDOF 5
ENDMDL
MODEL 9
REMARK VINA RESULT:      -7.1      4.074      9.183
REMARK  5 active torsions:
REMARK  status: ('A' for Active; 'I' for Inactive)
REMARK    1  A    between atoms: C_2  and  N_3 
REMARK       I    between atoms: N_3  and  C_4 
REMARK    2  A    between atoms: C_4  and  C_5 
REMARK    3  A    between atoms: C_13  and  C_14 
REMARK    4  A    between atoms: C_16  and  O_17 
REMARK    5  A    between atoms: C_19  and  O_20 
ROOT
HETATM    1  C   UNL     1     -42.854  56.768 -57.473  1.00  0.00     0.046 A 
HETATM    2  C   UNL     1     -43.495  56.108 -58.544  1.00  0.00     0.008 A 
HETATM    3  C   UNL     1     -43.559  56.820 -59.757  1.00  0.00     0.068 A 
HETATM    4  C   UNL     1     -44.173  56.228 -60.853  1.00  0.00     0.032 A 
HETATM    5  C   UNL     1     -44.725  54.947 -60.792  1.00  0.00     0.002 A 
HETATM    6  C   UNL     1     -44.662  54.231 -59.606  1.00  0.00     0.001 A 
HETATM    7  C   UNL     1     -44.050  54.803 -58.492  1.00  0.00     0.015 A 
HETATM    8  N   UNL     1     -43.044  58.052 -59.913  1.00  0.00    -0.248 NA
HETATM    9  C   UNL     1     -42.451  58.677 -58.868  1.00  0.00     0.069 A 
HETATM   10  C   UNL     1     -42.341  58.060 -57.635  1.00  0.00     0.050 A 
ENDROOT
BRANCH   9  11
HETATM   11  C   UNL     1     -41.906  60.024 -59.145  1.00  0.00    -0.004 A 
HETATM   12  C   UNL     1     -41.865  60.524 -60.463  1.00  0.00     0.053 A 
HETATM   13  C   UNL     1     -41.322  61.782 -60.761  1.00  0.00     0.102 A 
HETATM   14  C   UNL     1     -40.783  62.569 -59.728  1.00  0.00     0.101 A 
HETATM   15  C   UNL     1     -40.843  62.104 -58.414  1.00  0.00     0.040 A 
HETATM   16  C   UNL     1     -41.400  60.851 -58.128  1.00  0.00     0.017 A 
BRANCH  13  17
HETATM   17  O   UNL     1     -41.245  62.308 -62.027  1.00  0.00    -0.353 OA
HETATM   18  C   UNL     1     -42.464  62.694 -62.647  1.00  0.00     0.210 C 
ENDBRANCH  13  17
BRANCH  14  19
HETATM   19  O   UNL     1     -40.250  63.779 -60.096  1.00  0.00    -0.353 OA
HETATM   20  C   UNL     1     -38.846  63.939 -59.957  1.00  0.00     0.210 C 
ENDBRANCH  14  19
ENDBRANCH   9  11
BRANCH   1  21
HETATM   21  C   UNL     1     -42.716  56.144 -56.129  1.00  0.00     0.253 C 
HETATM   22  N   UNL     1     -41.565  55.401 -55.952  1.00  0.00    -0.349 N 
HETATM   23  H   UNL     1     -41.041  55.158 -56.784  1.00  0.00     0.163 HD
HETATM   24  O   UNL     1     -43.574  56.315 -55.275  1.00  0.00    -0.268 OA
BRANCH  22  25
HETATM   25  C   UNL     1     -41.221  54.666 -54.724  1.00  0.00     0.022 C 
HETATM   26  C   UNL     1     -42.334  53.674 -54.363  1.00  0.00     0.037 C 
HETATM   27  C   UNL     1     -40.961  55.622 -53.548  1.00  0.00     0.037 C 
HETATM   28  C   UNL     1     -39.924  53.880 -54.993  1.00  0.00     0.037 C 
ENDBRANCH  22  25
ENDBRANCH   1  21
TORSDOF 5
ENDMDL
MODEL 10
REMARK VINA RESULT:      -6.6     14.599     17.209
REMARK  5 active torsions:
REMARK  status: ('A' for Active; 'I' for Inactive)
REMARK    1  A    between atoms: C_2  and  N_3 
REMARK       I    between atoms: N_3  and  C_4 
REMARK    2  A    between atoms: C_4  and  C_5 
REMARK    3  A    between atoms: C_13  and  C_14 
REMARK    4  A    between atoms: C_16  and  O_17 
REMARK    5  A    between atoms: C_19  and  O_20 
ROOT
HETATM    1  C   UNL     1     -35.700  40.687 -52.160  1.00  0.00     0.046 A 
HETATM    2  C   UNL     1     -34.441  40.438 -51.571  1.00  0.00     0.008 A 
HETATM    3  C   UNL     1     -34.451  39.646 -50.407  1.00  0.00     0.068 A 
HETATM    4  C   UNL     1     -33.247  39.359 -49.779  1.00  0.00     0.032 A 
HETATM    5  C   UNL     1     -32.025  39.827 -50.267  1.00  0.00     0.002 A 
HETATM    6  C   UNL     1     -32.000  40.600 -51.417  1.00  0.00     0.001 A 
HETATM    7  C   UNL     1     -33.195  40.902 -52.067  1.00  0.00     0.015 A 
HETATM    8  N   UNL     1     -35.577  39.142 -49.872  1.00  0.00    -0.248 NA
HETATM    9  C   UNL     1     -36.777  39.408 -50.439  1.00  0.00     0.069 A 
HETATM   10  C   UNL     1     -36.871  40.179 -51.585  1.00  0.00     0.050 A 
ENDROOT
BRANCH   9  11
HETATM   11  C   UNL     1     -37.953  38.797 -49.782  1.00  0.00    -0.004 A 
HETATM   12  C   UNL     1     -39.095  38.453 -50.533  1.00  0.00     0.053 A 
HETATM   13  C   UNL     1     -40.238  37.904 -49.933  1.00  0.00     0.102 A 
HETATM   14  C   UNL     1     -40.265  37.706 -48.542  1.00  0.00     0.101 A 
HETATM   15  C   UNL     1     -39.132  38.013 -47.787  1.00  0.00     0.040 A 
HETATM   16  C   UNL     1     -37.992  38.546 -48.401  1.00  0.00     0.017 A 
BRANCH  13  17
HETATM   17  O   UNL     1     -41.380  37.566 -50.616  1.00  0.00    -0.353 OA
HETATM   18  C   UNL     1     -42.076  38.614 -51.278  1.00  0.00     0.210 C 
ENDBRANCH  13  17
BRANCH  14  19
HETATM   19  O   UNL     1     -41.423  37.186 -48.021  1.00  0.00    -0.353 OA
HETATM   20  C   UNL     1     -42.190  38.029 -47.172  1.00  0.00     0.210 C 
ENDBRANCH  14  19
ENDBRANCH   9  11
BRANCH   1  21
HETATM   21  C   UNL     1     -35.849  41.511 -53.389  1.00  0.00     0.253 C 
HETATM   22  N   UNL     1     -35.934  40.789 -54.564  1.00  0.00    -0.349 N 
HETATM   23  H   UNL     1     -35.670  39.812 -54.524  1.00  0.00     0.163 HD
HETATM   24  O   UNL     1     -35.900  42.731 -53.316  1.00  0.00    -0.268 OA
BRANCH  22  25
HETATM   25  C   UNL     1     -36.054  41.380 -55.907  1.00  0.00     0.022 C 
HETATM   26  C   UNL     1     -34.938  42.407 -56.142  1.00  0.00     0.037 C 
HETATM   27  C   UNL     1     -37.430  42.035 -56.114  1.00  0.00     0.037 C 
HETATM   28  C   UNL     1     -35.908  40.244 -56.937  1.00  0.00     0.037 C 
ENDBRANCH  22  25
ENDBRANCH   1  21
TORSDOF 5
ENDMDL
