MODEL 1
REMARK VINA RESULT:      -6.7      0.000      0.000
REMARK  14 active torsions:
REMARK  status: ('A' for Active; 'I' for Inactive)
REMARK    1  A    between atoms: C_2  and  N_3 
REMARK    2  A    between atoms: N_3  and  C_5 
REMARK    3  A    between atoms: N_3  and  C_37 
REMARK    4  A    between atoms: C_5  and  C_6 
REMARK    5  A    between atoms: C_6  and  N_7 
REMARK    6  A    between atoms: C_10  and  O_11 
REMARK    7  A    between atoms: C_12  and  C_13 
REMARK    8  A    between atoms: C_13  and  C_14 
REMARK    9  A    between atoms: C_18  and  O_19 
REMARK   10  A    between atoms: O_19  and  C_20 
REMARK   11  A    between atoms: C_20  and  C_21 
REMARK   12  A    between atoms: C_27  and  C_28 
REMARK   13  A    between atoms: C_30  and  O_31 
REMARK   14  A    between atoms: C_33  and  O_34 
ROOT
HETATM    1  N   UNL     1     -43.313  61.135 -53.617  1.00  0.00    -0.332 N 
HETATM    2  C   UNL     1     -43.484  60.964 -52.260  1.00  0.00     0.278 A 
HETATM    3  O   UNL     1     -44.336  61.461 -51.548  1.00  0.00    -0.265 OA
HETATM    4  C   UNL     1     -42.444  60.029 -51.789  1.00  0.00     0.146 A 
HETATM    5  C   UNL     1     -41.791  59.595 -52.870  1.00  0.00     0.059 A 
HETATM    6  C   UNL     1     -42.272  60.246 -54.131  1.00  0.00     0.161 A 
ENDROOT
BRANCH   5   7
HETATM    7  C   UNL     1     -40.636  58.681 -52.943  1.00  0.00     0.193 C 
HETATM    8  O   UNL     1     -39.509  59.172 -52.950  1.00  0.00    -0.287 OA
BRANCH   7   9
HETATM    9  C   UNL     1     -40.822  57.208 -53.054  1.00  0.00     0.015 A 
HETATM   10  C   UNL     1     -41.154  56.495 -51.895  1.00  0.00     0.025 A 
HETATM   11  C   UNL     1     -41.328  55.100 -51.931  1.00  0.00    -0.028 A 
HETATM   12  C   UNL     1     -41.685  54.361 -50.669  1.00  0.00     0.051 C 
HETATM   13  C   UNL     1     -41.184  54.413 -53.150  1.00  0.00     0.074 A 
HETATM   14  C   UNL     1     -40.817  55.120 -54.296  1.00  0.00     0.038 A 
HETATM   15  C   UNL     1     -40.622  56.505 -54.246  1.00  0.00     0.018 A 
BRANCH  13  16
HETATM   16  O   UNL     1     -41.413  53.064 -53.104  1.00  0.00    -0.350 OA
BRANCH  16  17
HETATM   17  C   UNL     1     -40.998  52.280 -54.224  1.00  0.00     0.179 C 
BRANCH  17  18
HETATM   18  C   UNL     1     -39.761  51.461 -53.830  1.00  0.00     0.002 C 
HETATM   19  C   UNL     1     -39.575  51.430 -52.311  1.00  0.00     0.011 C 
HETATM   20  C   UNL     1     -39.866  50.040 -54.379  1.00  0.00     0.011 C 
ENDBRANCH  17  18
ENDBRANCH  16  17
ENDBRANCH  13  16
ENDBRANCH   7   9
ENDBRANCH   5   7
BRANCH   4  21
HETATM   21  O   UNL     1     -42.243  59.724 -50.478  1.00  0.00    -0.355 OA
HETATM   22  H   UNL     1     -41.364  59.297 -50.416  1.00  0.00     0.218 HD
ENDBRANCH   4  21
BRANCH   6  23
HETATM   23  C   UNL     1     -42.793  59.286 -55.186  1.00  0.00    -0.028 A 
HETATM   24  C   UNL     1     -42.230  59.211 -56.477  1.00  0.00     0.049 A 
HETATM   25  C   UNL     1     -42.723  58.294 -57.408  1.00  0.00     0.101 A 
HETATM   26  C   UNL     1     -43.743  57.418 -57.035  1.00  0.00     0.099 A 
HETATM   27  C   UNL     1     -44.320  57.482 -55.776  1.00  0.00     0.040 A 
HETATM   28  C   UNL     1     -43.854  58.421 -54.857  1.00  0.00     0.012 A 
BRANCH  25  29
HETATM   29  O   UNL     1     -42.232  58.144 -58.678  1.00  0.00    -0.353 OA
HETATM   30  C   UNL     1     -42.254  59.339 -59.457  1.00  0.00     0.210 C 
ENDBRANCH  25  29
BRANCH  26  31
HETATM   31  O   UNL     1     -44.210  56.481 -57.913  1.00  0.00    -0.358 OA
HETATM   32  H   UNL     1     -45.000  56.878 -58.329  1.00  0.00     0.218 HD
ENDBRANCH  26  31
ENDBRANCH   6  23
BRANCH   1  33
HETATM   33  C   UNL     1     -44.292  61.793 -54.475  1.00  0.00     0.155 C 
BRANCH  33  34
HETATM   34  C   UNL     1     -43.680  62.756 -55.510  1.00  0.00     0.254 C 
BRANCH  34  35
HETATM   35  N   UNL     1     -44.453  62.816 -56.827  1.00  0.00    -0.070 N 
HETATM   36  H   UNL     1     -44.832  63.772 -56.868  1.00  0.00     0.279 HD
BRANCH  35  37
HETATM   37  C   UNL     1     -45.670  61.902 -56.887  1.00  0.00     0.230 C 
HETATM   38  C   UNL     1     -45.446  60.723 -57.815  1.00  0.00     0.034 C 
ENDBRANCH  35  37
BRANCH  35  39
HETATM   39  C   UNL     1     -43.608  62.657 -58.079  1.00  0.00     0.230 C 
HETATM   40  C   UNL     1     -42.125  62.713 -57.761  1.00  0.00     0.034 C 
ENDBRANCH  35  39
ENDBRANCH  34  35
ENDBRANCH  33  34
ENDBRANCH   1  33
TORSDOF 14
ENDMDL
MODEL 2
REMARK VINA RESULT:      -6.6      1.725      4.690
REMARK  14 active torsions:
REMARK  status: ('A' for Active; 'I' for Inactive)
REMARK    1  A    between atoms: C_2  and  N_3 
REMARK    2  A    between atoms: N_3  and  C_5 
REMARK    3  A    between atoms: N_3  and  C_37 
REMARK    4  A    between atoms: C_5  and  C_6 
REMARK    5  A    between atoms: C_6  and  N_7 
REMARK    6  A    between atoms: C_10  and  O_11 
REMARK    7  A    between atoms: C_12  and  C_13 
REMARK    8  A    between atoms: C_13  and  C_14 
REMARK    9  A    between atoms: C_18  and  O_19 
REMARK   10  A    between atoms: O_19  and  C_20 
REMARK   11  A    between atoms: C_20  and  C_21 
REMARK   12  A    between atoms: C_27  and  C_28 
REMARK   13  A    between atoms: C_30  and  O_31 
REMARK   14  A    between atoms: C_33  and  O_34 
ROOT
HETATM    1  N   UNL     1     -42.620  59.335 -56.265  1.00  0.00    -0.332 N 
HETATM    2  C   UNL     1     -42.226  58.424 -57.223  1.00  0.00     0.278 A 
HETATM    3  O   UNL     1     -41.663  58.648 -58.277  1.00  0.00    -0.265 OA
HETATM    4  C   UNL     1     -42.589  57.077 -56.741  1.00  0.00     0.146 A 
HETATM    5  C   UNL     1     -43.058  57.221 -55.498  1.00  0.00     0.059 A 
HETATM    6  C   UNL     1     -43.124  58.657 -55.072  1.00  0.00     0.161 A 
ENDROOT
BRANCH   5   7
HETATM    7  C   UNL     1     -43.594  56.189 -54.591  1.00  0.00     0.193 C 
HETATM    8  O   UNL     1     -44.797  56.211 -54.336  1.00  0.00    -0.287 OA
BRANCH   7   9
HETATM    9  C   UNL     1     -42.703  55.177 -53.960  1.00  0.00     0.015 A 
HETATM   10  C   UNL     1     -42.280  55.399 -52.644  1.00  0.00     0.025 A 
HETATM   11  C   UNL     1     -41.426  54.488 -51.997  1.00  0.00    -0.028 A 
HETATM   12  C   UNL     1     -40.989  54.754 -50.581  1.00  0.00     0.051 C 
HETATM   13  C   UNL     1     -41.004  53.330 -52.673  1.00  0.00     0.074 A 
HETATM   14  C   UNL     1     -41.397  53.129 -53.997  1.00  0.00     0.038 A 
HETATM   15  C   UNL     1     -42.228  54.052 -54.642  1.00  0.00     0.018 A 
BRANCH  13  16
HETATM   16  O   UNL     1     -40.210  52.476 -51.955  1.00  0.00    -0.350 OA
BRANCH  16  17
HETATM   17  C   UNL     1     -39.268  51.680 -52.677  1.00  0.00     0.179 C 
BRANCH  17  18
HETATM   18  C   UNL     1     -39.889  50.305 -52.958  1.00  0.00     0.002 C 
HETATM   19  C   UNL     1     -39.484  49.783 -54.338  1.00  0.00     0.011 C 
HETATM   20  C   UNL     1     -39.485  49.306 -51.875  1.00  0.00     0.011 C 
ENDBRANCH  17  18
ENDBRANCH  16  17
ENDBRANCH  13  16
ENDBRANCH   7   9
ENDBRANCH   5   7
BRANCH   4  21
HETATM   21  O   UNL     1     -42.451  55.948 -57.486  1.00  0.00    -0.355 OA
HETATM   22  H   UNL     1     -42.966  56.084 -58.308  1.00  0.00     0.218 HD
ENDBRANCH   4  21
BRANCH   6  23
HETATM   23  C   UNL     1     -42.320  58.990 -53.828  1.00  0.00    -0.028 A 
HETATM   24  C   UNL     1     -42.875  59.700 -52.743  1.00  0.00     0.049 A 
HETATM   25  C   UNL     1     -42.108  59.961 -51.606  1.00  0.00     0.101 A 
HETATM   26  C   UNL     1     -40.803  59.472 -51.531  1.00  0.00     0.099 A 
HETATM   27  C   UNL     1     -40.232  58.784 -52.590  1.00  0.00     0.040 A 
HETATM   28  C   UNL     1     -40.985  58.552 -53.741  1.00  0.00     0.012 A 
BRANCH  25  29
HETATM   29  O   UNL     1     -42.566  60.632 -50.503  1.00  0.00    -0.353 OA
HETATM   30  C   UNL     1     -43.988  60.679 -50.397  1.00  0.00     0.210 C 
ENDBRANCH  25  29
BRANCH  26  31
HETATM   31  O   UNL     1     -40.048  59.676 -50.411  1.00  0.00    -0.358 OA
HETATM   32  H   UNL     1     -39.538  58.853 -50.280  1.00  0.00     0.218 HD
ENDBRANCH  26  31
ENDBRANCH   6  23
BRANCH   1  33
HETATM   33  C   UNL     1     -42.215  60.736 -56.273  1.00  0.00     0.155 C 
BRANCH  33  34
HETATM   34  C   UNL     1     -42.851  61.571 -57.401  1.00  0.00     0.254 C 
BRANCH  34  35
HETATM   35  N   UNL     1     -41.950  61.738 -58.625  1.00  0.00    -0.070 N 
HETATM   36  H   UNL     1     -41.458  60.838 -58.716  1.00  0.00     0.279 HD
BRANCH  35  37
HETATM   37  C   UNL     1     -40.849  62.777 -58.461  1.00  0.00     0.230 C 
HETATM   38  C   UNL     1     -39.854  62.731 -59.606  1.00  0.00     0.034 C 
ENDBRANCH  35  37
BRANCH  35  39
HETATM   39  C   UNL     1     -42.680  61.941 -59.941  1.00  0.00     0.230 C 
HETATM   40  C   UNL     1     -42.548  60.727 -60.843  1.00  0.00     0.034 C 
ENDBRANCH  35  39
ENDBRANCH  34  35
ENDBRANCH  33  34
ENDBRANCH   1  33
TORSDOF 14
ENDMDL
MODEL 3
REMARK VINA RESULT:      -6.5      1.658      2.641
REMARK  14 active torsions:
REMARK  status: ('A' for Active; 'I' for Inactive)
REMARK    1  A    between atoms: C_2  and  N_3 
REMARK    2  A    between atoms: N_3  and  C_5 
REMARK    3  A    between atoms: N_3  and  C_37 
REMARK    4  A    between atoms: C_5  and  C_6 
REMARK    5  A    between atoms: C_6  and  N_7 
REMARK    6  A    between atoms: C_10  and  O_11 
REMARK    7  A    between atoms: C_12  and  C_13 
REMARK    8  A    between atoms: C_13  and  C_14 
REMARK    9  A    between atoms: C_18  and  O_19 
REMARK   10  A    between atoms: O_19  and  C_20 
REMARK   11  A    between atoms: C_20  and  C_21 
REMARK   12  A    between atoms: C_27  and  C_28 
REMARK   13  A    between atoms: C_30  and  O_31 
REMARK   14  A    between atoms: C_33  and  O_34 
ROOT
HETATM    1  N   UNL     1     -43.331  61.086 -52.656  1.00  0.00    -0.332 N 
HETATM    2  C   UNL     1     -43.318  60.714 -51.327  1.00  0.00     0.278 A 
HETATM    3  O   UNL     1     -44.058  61.095 -50.440  1.00  0.00    -0.265 OA
HETATM    4  C   UNL     1     -42.239  59.725 -51.147  1.00  0.00     0.146 A 
HETATM    5  C   UNL     1     -41.746  59.459 -52.360  1.00  0.00     0.059 A 
HETATM    6  C   UNL     1     -42.384  60.288 -53.433  1.00  0.00     0.161 A 
ENDROOT
BRANCH   5   7
HETATM    7  C   UNL     1     -40.626  58.572 -52.724  1.00  0.00     0.193 C 
HETATM    8  O   UNL     1     -39.517  59.077 -52.889  1.00  0.00    -0.287 OA
BRANCH   7   9
HETATM    9  C   UNL     1     -40.834  57.113 -52.936  1.00  0.00     0.015 A 
HETATM   10  C   UNL     1     -41.131  56.320 -51.822  1.00  0.00     0.025 A 
HETATM   11  C   UNL     1     -41.323  54.933 -51.954  1.00  0.00    -0.028 A 
HETATM   12  C   UNL     1     -41.644  54.106 -50.737  1.00  0.00     0.051 C 
HETATM   13  C   UNL     1     -41.232  54.336 -53.224  1.00  0.00     0.074 A 
HETATM   14  C   UNL     1     -40.899  55.123 -54.327  1.00  0.00     0.038 A 
HETATM   15  C   UNL     1     -40.686  56.498 -54.184  1.00  0.00     0.018 A 
BRANCH  13  16
HETATM   16  O   UNL     1     -41.476  52.989 -53.268  1.00  0.00    -0.350 OA
BRANCH  16  17
HETATM   17  C   UNL     1     -40.973  52.259 -54.389  1.00  0.00     0.179 C 
BRANCH  17  18
HETATM   18  C   UNL     1     -39.777  51.411 -53.936  1.00  0.00     0.002 C 
HETATM   19  C   UNL     1     -39.621  51.437 -52.414  1.00  0.00     0.011 C 
HETATM   20  C   UNL     1     -39.927  49.973 -54.428  1.00  0.00     0.011 C 
ENDBRANCH  17  18
ENDBRANCH  16  17
ENDBRANCH  13  16
ENDBRANCH   7   9
ENDBRANCH   5   7
BRANCH   4  21
HETATM   21  O   UNL     1     -41.866  59.229 -49.936  1.00  0.00    -0.355 OA
HETATM   22  H   UNL     1     -41.091  59.749 -49.641  1.00  0.00     0.218 HD
ENDBRANCH   4  21
BRANCH   6  23
HETATM   23  C   UNL     1     -43.059  59.493 -54.537  1.00  0.00    -0.028 A 
HETATM   24  C   UNL     1     -42.773  59.710 -55.900  1.00  0.00     0.049 A 
HETATM   25  C   UNL     1     -43.397  58.936 -56.882  1.00  0.00     0.101 A 
HETATM   26  C   UNL     1     -44.267  57.914 -56.501  1.00  0.00     0.099 A 
HETATM   27  C   UNL     1     -44.572  57.691 -55.167  1.00  0.00     0.040 A 
HETATM   28  C   UNL     1     -43.978  58.486 -54.187  1.00  0.00     0.012 A 
BRANCH  25  29
HETATM   29  O   UNL     1     -43.173  59.069 -58.227  1.00  0.00    -0.353 OA
HETATM   30  C   UNL     1     -41.890  59.598 -58.556  1.00  0.00     0.210 C 
ENDBRANCH  25  29
BRANCH  26  31
HETATM   31  O   UNL     1     -44.853  57.114 -57.440  1.00  0.00    -0.358 OA
HETATM   32  H   UNL     1     -44.709  57.560 -58.297  1.00  0.00     0.218 HD
ENDBRANCH  26  31
ENDBRANCH   6  23
BRANCH   1  33
HETATM   33  C   UNL     1     -44.408  61.859 -53.264  1.00  0.00     0.155 C 
BRANCH  33  34
HETATM   34  C   UNL     1     -44.356  63.367 -52.955  1.00  0.00     0.254 C 
BRANCH  34  35
HETATM   35  N   UNL     1     -44.814  63.721 -51.540  1.00  0.00    -0.070 N 
HETATM   36  H   UNL     1     -44.679  62.858 -50.995  1.00  0.00     0.279 HD
BRANCH  35  37
HETATM   37  C   UNL     1     -46.298  64.040 -51.418  1.00  0.00     0.230 C 
HETATM   38  C   UNL     1     -47.107  62.819 -51.024  1.00  0.00     0.034 C 
ENDBRANCH  35  37
BRANCH  35  39
HETATM   39  C   UNL     1     -43.983  64.782 -50.839  1.00  0.00     0.230 C 
HETATM   40  C   UNL     1     -42.800  64.172 -50.110  1.00  0.00     0.034 C 
ENDBRANCH  35  39
ENDBRANCH  34  35
ENDBRANCH  33  34
ENDBRANCH   1  33
TORSDOF 14
ENDMDL
MODEL 4
REMARK VINA RESULT:      -6.5      1.882      4.731
REMARK  14 active torsions:
REMARK  status: ('A' for Active; 'I' for Inactive)
REMARK    1  A    between atoms: C_2  and  N_3 
REMARK    2  A    between atoms: N_3  and  C_5 
REMARK    3  A    between atoms: N_3  and  C_37 
REMARK    4  A    between atoms: C_5  and  C_6 
REMARK    5  A    between atoms: C_6  and  N_7 
REMARK    6  A    between atoms: C_10  and  O_11 
REMARK    7  A    between atoms: C_12  and  C_13 
REMARK    8  A    between atoms: C_13  and  C_14 
REMARK    9  A    between atoms: C_18  and  O_19 
REMARK   10  A    between atoms: O_19  and  C_20 
REMARK   11  A    between atoms: C_20  and  C_21 
REMARK   12  A    between atoms: C_27  and  C_28 
REMARK   13  A    between atoms: C_30  and  O_31 
REMARK   14  A    between atoms: C_33  and  O_34 
ROOT
HETATM    1  N   UNL     1     -43.549  59.059 -56.613  1.00  0.00    -0.332 N 
HETATM    2  C   UNL     1     -42.687  58.950 -57.684  1.00  0.00     0.278 A 
HETATM    3  O   UNL     1     -42.226  59.848 -58.363  1.00  0.00    -0.265 OA
HETATM    4  C   UNL     1     -42.381  57.519 -57.874  1.00  0.00     0.146 A 
HETATM    5  C   UNL     1     -42.955  56.861 -56.862  1.00  0.00     0.059 A 
HETATM    6  C   UNL     1     -43.747  57.763 -55.965  1.00  0.00     0.161 A 
ENDROOT
BRANCH   5   7
HETATM    7  C   UNL     1     -42.986  55.408 -56.610  1.00  0.00     0.193 C 
HETATM    8  O   UNL     1     -43.658  54.704 -57.362  1.00  0.00    -0.287 OA
BRANCH   7   9
HETATM    9  C   UNL     1     -42.268  54.809 -55.451  1.00  0.00     0.015 A 
HETATM   10  C   UNL     1     -42.987  54.597 -54.268  1.00  0.00     0.025 A 
HETATM   11  C   UNL     1     -42.362  54.049 -53.133  1.00  0.00    -0.028 A 
HETATM   12  C   UNL     1     -43.161  53.831 -51.876  1.00  0.00     0.051 C 
HETATM   13  C   UNL     1     -41.003  53.694 -53.191  1.00  0.00     0.074 A 
HETATM   14  C   UNL     1     -40.280  53.940 -54.359  1.00  0.00     0.038 A 
HETATM   15  C   UNL     1     -40.903  54.508 -55.477  1.00  0.00     0.018 A 
BRANCH  13  16
HETATM   16  O   UNL     1     -40.486  53.127 -52.057  1.00  0.00    -0.350 OA
BRANCH  16  17
HETATM   17  C   UNL     1     -39.399  52.211 -52.207  1.00  0.00     0.179 C 
BRANCH  17  18
HETATM   18  C   UNL     1     -39.963  50.801 -52.430  1.00  0.00     0.002 C 
HETATM   19  C   UNL     1     -39.550  50.247 -53.795  1.00  0.00     0.011 C 
HETATM   20  C   UNL     1     -39.504  49.861 -51.317  1.00  0.00     0.011 C 
ENDBRANCH  17  18
ENDBRANCH  16  17
ENDBRANCH  13  16
ENDBRANCH   7   9
ENDBRANCH   5   7
BRANCH   4  21
HETATM   21  O   UNL     1     -41.651  57.036 -58.915  1.00  0.00    -0.355 OA
HETATM   22  H   UNL     1     -41.124  56.286 -58.570  1.00  0.00     0.218 HD
ENDBRANCH   4  21
BRANCH   6  23
HETATM   23  C   UNL     1     -43.307  57.763 -54.512  1.00  0.00    -0.028 A 
HETATM   24  C   UNL     1     -44.227  57.644 -53.450  1.00  0.00     0.049 A 
HETATM   25  C   UNL     1     -43.776  57.621 -52.128  1.00  0.00     0.101 A 
HETATM   26  C   UNL     1     -42.406  57.667 -51.869  1.00  0.00     0.099 A 
HETATM   27  C   UNL     1     -41.485  57.797 -52.896  1.00  0.00     0.040 A 
HETATM   28  C   UNL     1     -41.935  57.856 -54.215  1.00  0.00     0.012 A 
BRANCH  25  29
HETATM   29  O   UNL     1     -44.595  57.498 -51.035  1.00  0.00    -0.353 OA
HETATM   30  C   UNL     1     -45.416  58.638 -50.791  1.00  0.00     0.210 C 
ENDBRANCH  25  29
BRANCH  26  31
HETATM   31  O   UNL     1     -41.939  57.600 -50.587  1.00  0.00    -0.358 OA
HETATM   32  H   UNL     1     -42.699  57.322 -50.040  1.00  0.00     0.218 HD
ENDBRANCH  26  31
ENDBRANCH   6  23
BRANCH   1  33
HETATM   33  C   UNL     1     -43.881  60.327 -55.974  1.00  0.00     0.155 C 
BRANCH  33  34
HETATM   34  C   UNL     1     -42.657  61.178 -55.583  1.00  0.00     0.254 C 
BRANCH  34  35
HETATM   35  N   UNL     1     -42.863  62.004 -54.314  1.00  0.00    -0.070 N 
HETATM   36  H   UNL     1     -41.941  62.416 -54.115  1.00  0.00     0.279 HD
BRANCH  35  37
HETATM   37  C   UNL     1     -43.208  61.185 -53.077  1.00  0.00     0.230 C 
HETATM   38  C   UNL     1     -43.325  62.056 -51.839  1.00  0.00     0.034 C 
ENDBRANCH  35  37
BRANCH  35  39
HETATM   39  C   UNL     1     -43.815  63.179 -54.455  1.00  0.00     0.230 C 
HETATM   40  C   UNL     1     -43.067  64.499 -54.492  1.00  0.00     0.034 C 
ENDBRANCH  35  39
ENDBRANCH  34  35
ENDBRANCH  33  34
ENDBRANCH   1  33
TORSDOF 14
ENDMDL
MODEL 5
REMARK VINA RESULT:      -6.5      1.284      1.972
REMARK  14 active torsions:
REMARK  status: ('A' for Active; 'I' for Inactive)
REMARK    1  A    between atoms: C_2  and  N_3 
REMARK    2  A    between atoms: N_3  and  C_5 
REMARK    3  A    between atoms: N_3  and  C_37 
REMARK    4  A    between atoms: C_5  and  C_6 
REMARK    5  A    between atoms: C_6  and  N_7 
REMARK    6  A    between atoms: C_10  and  O_11 
REMARK    7  A    between atoms: C_12  and  C_13 
REMARK    8  A    between atoms: C_13  and  C_14 
REMARK    9  A    between atoms: C_18  and  O_19 
REMARK   10  A    between atoms: O_19  and  C_20 
REMARK   11  A    between atoms: C_20  and  C_21 
REMARK   12  A    between atoms: C_27  and  C_28 
REMARK   13  A    between atoms: C_30  and  O_31 
REMARK   14  A    between atoms: C_33  and  O_34 
ROOT
HETATM    1  N   UNL     1     -43.660  60.682 -54.537  1.00  0.00    -0.332 N 
HETATM    2  C   UNL     1     -44.101  60.517 -53.240  1.00  0.00     0.278 A 
HETATM    3  O   UNL     1     -45.140  60.916 -52.750  1.00  0.00    -0.265 OA
HETATM    4  C   UNL     1     -43.084  59.731 -52.515  1.00  0.00     0.146 A 
HETATM    5  C   UNL     1     -42.164  59.361 -53.411  1.00  0.00     0.059 A 
HETATM    6  C   UNL     1     -42.434  59.921 -54.775  1.00  0.00     0.161 A 
ENDROOT
BRANCH   5   7
HETATM    7  C   UNL     1     -40.921  58.600 -53.193  1.00  0.00     0.193 C 
HETATM    8  O   UNL     1     -39.854  59.211 -53.223  1.00  0.00    -0.287 OA
BRANCH   7   9
HETATM    9  C   UNL     1     -40.943  57.124 -52.991  1.00  0.00     0.015 A 
HETATM   10  C   UNL     1     -40.568  56.306 -54.063  1.00  0.00     0.025 A 
HETATM   11  C   UNL     1     -40.583  54.905 -53.941  1.00  0.00    -0.028 A 
HETATM   12  C   UNL     1     -40.173  54.051 -55.111  1.00  0.00     0.051 C 
HETATM   13  C   UNL     1     -40.964  54.317 -52.721  1.00  0.00     0.074 A 
HETATM   14  C   UNL     1     -41.372  55.135 -51.666  1.00  0.00     0.038 A 
HETATM   15  C   UNL     1     -41.377  56.527 -51.803  1.00  0.00     0.018 A 
BRANCH  13  16
HETATM   16  O   UNL     1     -40.908  52.950 -52.675  1.00  0.00    -0.350 OA
BRANCH  16  17
HETATM   17  C   UNL     1     -40.234  52.349 -51.568  1.00  0.00     0.179 C 
BRANCH  17  18
HETATM   18  C   UNL     1     -39.377  51.183 -52.079  1.00  0.00     0.002 C 
HETATM   19  C   UNL     1     -39.487  49.965 -51.159  1.00  0.00     0.011 C 
HETATM   20  C   UNL     1     -39.783  50.808 -53.503  1.00  0.00     0.011 C 
ENDBRANCH  17  18
ENDBRANCH  16  17
ENDBRANCH  13  16
ENDBRANCH   7   9
ENDBRANCH   5   7
BRANCH   4  21
HETATM   21  O   UNL     1     -43.138  59.479 -51.179  1.00  0.00    -0.355 OA
HETATM   22  H   UNL     1     -43.850  60.043 -50.812  1.00  0.00     0.218 HD
ENDBRANCH   4  21
BRANCH   6  23
HETATM   23  C   UNL     1     -42.595  58.883 -55.871  1.00  0.00    -0.028 A 
HETATM   24  C   UNL     1     -42.028  59.048 -57.151  1.00  0.00     0.049 A 
HETATM   25  C   UNL     1     -42.177  58.054 -58.121  1.00  0.00     0.101 A 
HETATM   26  C   UNL     1     -42.849  56.875 -57.798  1.00  0.00     0.099 A 
HETATM   27  C   UNL     1     -43.425  56.696 -56.550  1.00  0.00     0.040 A 
HETATM   28  C   UNL     1     -43.308  57.702 -55.591  1.00  0.00     0.012 A 
BRANCH  25  29
HETATM   29  O   UNL     1     -41.654  58.125 -59.385  1.00  0.00    -0.353 OA
HETATM   30  C   UNL     1     -42.325  59.044 -60.244  1.00  0.00     0.210 C 
ENDBRANCH  25  29
BRANCH  26  31
HETATM   31  O   UNL     1     -42.969  55.869 -58.715  1.00  0.00    -0.358 OA
HETATM   32  H   UNL     1     -42.279  55.217 -58.485  1.00  0.00     0.218 HD
ENDBRANCH  26  31
ENDBRANCH   6  23
BRANCH   1  33
HETATM   33  C   UNL     1     -44.501  61.193 -55.613  1.00  0.00     0.155 C 
BRANCH  33  34
HETATM   34  C   UNL     1     -45.621  60.230 -56.051  1.00  0.00     0.254 C 
BRANCH  34  35
HETATM   35  N   UNL     1     -45.879  60.232 -57.558  1.00  0.00    -0.070 N 
HETATM   36  H   UNL     1     -46.810  60.656 -57.666  1.00  0.00     0.279 HD
BRANCH  35  37
HETATM   37  C   UNL     1     -45.999  58.846 -58.179  1.00  0.00     0.230 C 
HETATM   38  C   UNL     1     -47.155  58.061 -57.588  1.00  0.00     0.034 C 
ENDBRANCH  35  37
BRANCH  35  39
HETATM   39  C   UNL     1     -44.936  61.099 -58.373  1.00  0.00     0.230 C 
HETATM   40  C   UNL     1     -45.690  62.167 -59.146  1.00  0.00     0.034 C 
ENDBRANCH  35  39
ENDBRANCH  34  35
ENDBRANCH  33  34
ENDBRANCH   1  33
TORSDOF 14
ENDMDL
MODEL 6
REMARK VINA RESULT:      -6.4      1.960      4.597
REMARK  14 active torsions:
REMARK  status: ('A' for Active; 'I' for Inactive)
REMARK    1  A    between atoms: C_2  and  N_3 
REMARK    2  A    between atoms: N_3  and  C_5 
REMARK    3  A    between atoms: N_3  and  C_37 
REMARK    4  A    between atoms: C_5  and  C_6 
REMARK    5  A    between atoms: C_6  and  N_7 
REMARK    6  A    between atoms: C_10  and  O_11 
REMARK    7  A    between atoms: C_12  and  C_13 
REMARK    8  A    between atoms: C_13  and  C_14 
REMARK    9  A    between atoms: C_18  and  O_19 
REMARK   10  A    between atoms: O_19  and  C_20 
REMARK   11  A    between atoms: C_20  and  C_21 
REMARK   12  A    between atoms: C_27  and  C_28 
REMARK   13  A    between atoms: C_30  and  O_31 
REMARK   14  A    between atoms: C_33  and  O_34 
ROOT
HETATM    1  N   UNL     1     -43.317  59.309 -56.544  1.00  0.00    -0.332 N 
HETATM    2  C   UNL     1     -42.462  59.199 -57.621  1.00  0.00     0.278 A 
HETATM    3  O   UNL     1     -41.966  60.099 -58.273  1.00  0.00    -0.265 OA
HETATM    4  C   UNL     1     -42.216  57.764 -57.858  1.00  0.00     0.146 A 
HETATM    5  C   UNL     1     -42.814  57.097 -56.866  1.00  0.00     0.059 A 
HETATM    6  C   UNL     1     -43.567  58.002 -55.939  1.00  0.00     0.161 A 
ENDROOT
BRANCH   5   7
HETATM    7  C   UNL     1     -42.905  55.640 -56.661  1.00  0.00     0.193 C 
HETATM    8  O   UNL     1     -43.598  54.988 -57.439  1.00  0.00    -0.287 OA
BRANCH   7   9
HETATM    9  C   UNL     1     -42.220  54.977 -55.517  1.00  0.00     0.015 A 
HETATM   10  C   UNL     1     -42.961  54.736 -54.354  1.00  0.00     0.025 A 
HETATM   11  C   UNL     1     -42.368  54.128 -53.233  1.00  0.00    -0.028 A 
HETATM   12  C   UNL     1     -43.191  53.881 -51.997  1.00  0.00     0.051 C 
HETATM   13  C   UNL     1     -41.017  53.739 -53.287  1.00  0.00     0.074 A 
HETATM   14  C   UNL     1     -40.271  54.013 -54.434  1.00  0.00     0.038 A 
HETATM   15  C   UNL     1     -40.863  54.641 -55.536  1.00  0.00     0.018 A 
BRANCH  13  16
HETATM   16  O   UNL     1     -40.532  53.114 -52.169  1.00  0.00    -0.350 OA
BRANCH  16  17
HETATM   17  C   UNL     1     -39.445  52.202 -52.336  1.00  0.00     0.179 C 
BRANCH  17  18
HETATM   18  C   UNL     1     -40.006  50.803 -52.623  1.00  0.00     0.002 C 
HETATM   19  C   UNL     1     -39.596  50.313 -54.014  1.00  0.00     0.011 C 
HETATM   20  C   UNL     1     -39.543  49.814 -51.556  1.00  0.00     0.011 C 
ENDBRANCH  17  18
ENDBRANCH  16  17
ENDBRANCH  13  16
ENDBRANCH   7   9
ENDBRANCH   5   7
BRANCH   4  21
HETATM   21  O   UNL     1     -41.508  57.286 -58.916  1.00  0.00    -0.355 OA
HETATM   22  H   UNL     1     -42.160  56.979 -59.580  1.00  0.00     0.218 HD
ENDBRANCH   4  21
BRANCH   6  23
HETATM   23  C   UNL     1     -43.126  57.937 -54.487  1.00  0.00    -0.028 A 
HETATM   24  C   UNL     1     -44.044  57.777 -53.429  1.00  0.00     0.049 A 
HETATM   25  C   UNL     1     -43.592  57.694 -52.111  1.00  0.00     0.101 A 
HETATM   26  C   UNL     1     -42.221  57.723 -51.852  1.00  0.00     0.099 A 
HETATM   27  C   UNL     1     -41.301  57.892 -52.874  1.00  0.00     0.040 A 
HETATM   28  C   UNL     1     -41.752  58.011 -54.188  1.00  0.00     0.012 A 
BRANCH  25  29
HETATM   29  O   UNL     1     -44.409  57.528 -51.023  1.00  0.00    -0.353 OA
HETATM   30  C   UNL     1     -45.455  58.493 -50.926  1.00  0.00     0.210 C 
ENDBRANCH  25  29
BRANCH  26  31
HETATM   31  O   UNL     1     -41.752  57.598 -50.575  1.00  0.00    -0.358 OA
HETATM   32  H   UNL     1     -42.504  57.265 -50.047  1.00  0.00     0.218 HD
ENDBRANCH  26  31
ENDBRANCH   6  23
BRANCH   1  33
HETATM   33  C   UNL     1     -43.596  60.568 -55.864  1.00  0.00     0.155 C 
BRANCH  33  34
HETATM   34  C   UNL     1     -45.007  61.128 -56.126  1.00  0.00     0.254 C 
BRANCH  34  35
HETATM   35  N   UNL     1     -45.559  60.783 -57.509  1.00  0.00    -0.070 N 
HETATM   36  H   UNL     1     -44.899  60.093 -57.892  1.00  0.00     0.279 HD
BRANCH  35  37
HETATM   37  C   UNL     1     -45.545  61.939 -58.501  1.00  0.00     0.230 C 
HETATM   38  C   UNL     1     -46.886  62.105 -59.192  1.00  0.00     0.034 C 
ENDBRANCH  35  37
BRANCH  35  39
HETATM   39  C   UNL     1     -46.915  60.098 -57.511  1.00  0.00     0.230 C 
HETATM   40  C   UNL     1     -46.779  58.595 -57.672  1.00  0.00     0.034 C 
ENDBRANCH  35  39
ENDBRANCH  34  35
ENDBRANCH  33  34
ENDBRANCH   1  33
TORSDOF 14
ENDMDL
MODEL 7
REMARK VINA RESULT:      -6.4      1.771      2.807
REMARK  14 active torsions:
REMARK  status: ('A' for Active; 'I' for Inactive)
REMARK    1  A    between atoms: C_2  and  N_3 
REMARK    2  A    between atoms: N_3  and  C_5 
REMARK    3  A    between atoms: N_3  and  C_37 
REMARK    4  A    between atoms: C_5  and  C_6 
REMARK    5  A    between atoms: C_6  and  N_7 
REMARK    6  A    between atoms: C_10  and  O_11 
REMARK    7  A    between atoms: C_12  and  C_13 
REMARK    8  A    between atoms: C_13  and  C_14 
REMARK    9  A    between atoms: C_18  and  O_19 
REMARK   10  A    between atoms: O_19  and  C_20 
REMARK   11  A    between atoms: C_20  and  C_21 
REMARK   12  A    between atoms: C_27  and  C_28 
REMARK   13  A    between atoms: C_30  and  O_31 
REMARK   14  A    between atoms: C_33  and  O_34 
ROOT
HETATM    1  N   UNL     1     -42.644  59.742 -52.431  1.00  0.00    -0.332 N 
HETATM    2  C   UNL     1     -43.566  60.250 -51.540  1.00  0.00     0.278 A 
HETATM    3  O   UNL     1     -43.852  61.417 -51.349  1.00  0.00    -0.265 OA
HETATM    4  C   UNL     1     -44.192  59.112 -50.840  1.00  0.00     0.146 A 
HETATM    5  C   UNL     1     -43.725  57.998 -51.411  1.00  0.00     0.059 A 
HETATM    6  C   UNL     1     -42.704  58.281 -52.471  1.00  0.00     0.161 A 
ENDROOT
BRANCH   5   7
HETATM    7  C   UNL     1     -44.004  56.595 -51.055  1.00  0.00     0.193 C 
HETATM    8  O   UNL     1     -45.087  56.334 -50.534  1.00  0.00    -0.287 OA
BRANCH   7   9
HETATM    9  C   UNL     1     -42.989  55.527 -51.270  1.00  0.00     0.015 A 
HETATM   10  C   UNL     1     -41.893  55.472 -50.401  1.00  0.00     0.025 A 
HETATM   11  C   UNL     1     -40.893  54.497 -50.561  1.00  0.00    -0.028 A 
HETATM   12  C   UNL     1     -39.727  54.463 -49.609  1.00  0.00     0.051 C 
HETATM   13  C   UNL     1     -41.002  53.553 -51.597  1.00  0.00     0.074 A 
HETATM   14  C   UNL     1     -42.076  53.632 -52.485  1.00  0.00     0.038 A 
HETATM   15  C   UNL     1     -43.055  54.620 -52.333  1.00  0.00     0.018 A 
BRANCH  13  16
HETATM   16  O   UNL     1     -40.008  52.613 -51.654  1.00  0.00    -0.350 OA
BRANCH  16  17
HETATM   17  C   UNL     1     -39.651  52.100 -52.939  1.00  0.00     0.179 C 
BRANCH  17  18
HETATM   18  C   UNL     1     -40.032  50.614 -53.006  1.00  0.00     0.002 C 
HETATM   19  C   UNL     1     -39.484  49.957 -54.275  1.00  0.00     0.011 C 
HETATM   20  C   UNL     1     -39.523  49.878 -51.768  1.00  0.00     0.011 C 
ENDBRANCH  17  18
ENDBRANCH  16  17
ENDBRANCH  13  16
ENDBRANCH   7   9
ENDBRANCH   5   7
BRANCH   4  21
HETATM   21  O   UNL     1     -45.067  59.252 -49.808  1.00  0.00    -0.355 OA
HETATM   22  H   UNL     1     -44.608  59.767 -49.113  1.00  0.00     0.218 HD
ENDBRANCH   4  21
BRANCH   6  23
HETATM   23  C   UNL     1     -43.052  57.749 -53.850  1.00  0.00    -0.028 A 
HETATM   24  C   UNL     1     -44.277  58.044 -54.482  1.00  0.00     0.049 A 
HETATM   25  C   UNL     1     -44.544  57.556 -55.763  1.00  0.00     0.101 A 
HETATM   26  C   UNL     1     -43.569  56.816 -56.433  1.00  0.00     0.099 A 
HETATM   27  C   UNL     1     -42.363  56.504 -55.827  1.00  0.00     0.040 A 
HETATM   28  C   UNL     1     -42.108  56.960 -54.534  1.00  0.00     0.012 A 
BRANCH  25  29
HETATM   29  O   UNL     1     -45.701  57.800 -56.456  1.00  0.00    -0.353 OA
HETATM   30  C   UNL     1     -45.954  59.182 -56.701  1.00  0.00     0.210 C 
ENDBRANCH  25  29
BRANCH  26  31
HETATM   31  O   UNL     1     -43.789  56.367 -57.704  1.00  0.00    -0.358 OA
HETATM   32  H   UNL     1     -44.230  55.501 -57.608  1.00  0.00     0.218 HD
ENDBRANCH  26  31
ENDBRANCH   6  23
BRANCH   1  33
HETATM   33  C   UNL     1     -42.003  60.540 -53.469  1.00  0.00     0.155 C 
BRANCH  33  34
HETATM   34  C   UNL     1     -42.961  61.480 -54.225  1.00  0.00     0.254 C 
BRANCH  34  35
HETATM   35  N   UNL     1     -43.099  61.152 -55.711  1.00  0.00    -0.070 N 
HETATM   36  H   UNL     1     -43.950  60.577 -55.777  1.00  0.00     0.279 HD
BRANCH  35  37
HETATM   37  C   UNL     1     -41.985  60.276 -56.270  1.00  0.00     0.230 C 
HETATM   38  C   UNL     1     -42.174  59.998 -57.750  1.00  0.00     0.034 C 
ENDBRANCH  35  37
BRANCH  35  39
HETATM   39  C   UNL     1     -43.340  62.347 -56.617  1.00  0.00     0.230 C 
HETATM   40  C   UNL     1     -44.805  62.742 -56.639  1.00  0.00     0.034 C 
ENDBRANCH  35  39
ENDBRANCH  34  35
ENDBRANCH  33  34
ENDBRANCH   1  33
TORSDOF 14
ENDMDL
MODEL 8
REMARK VINA RESULT:      -6.3      1.580      4.601
REMARK  14 active torsions:
REMARK  status: ('A' for Active; 'I' for Inactive)
REMARK    1  A    between atoms: C_2  and  N_3 
REMARK    2  A    between atoms: N_3  and  C_5 
REMARK    3  A    between atoms: N_3  and  C_37 
REMARK    4  A    between atoms: C_5  and  C_6 
REMARK    5  A    between atoms: C_6  and  N_7 
REMARK    6  A    between atoms: C_10  and  O_11 
REMARK    7  A    between atoms: C_12  and  C_13 
REMARK    8  A    between atoms: C_13  and  C_14 
REMARK    9  A    between atoms: C_18  and  O_19 
REMARK   10  A    between atoms: O_19  and  C_20 
REMARK   11  A    between atoms: C_20  and  C_21 
REMARK   12  A    between atoms: C_27  and  C_28 
REMARK   13  A    between atoms: C_30  and  O_31 
REMARK   14  A    between atoms: C_33  and  O_34 
ROOT
HETATM    1  N   UNL     1     -42.611  59.205 -56.255  1.00  0.00    -0.332 N 
HETATM    2  C   UNL     1     -42.252  58.257 -57.191  1.00  0.00     0.278 A 
HETATM    3  O   UNL     1     -41.680  58.436 -58.250  1.00  0.00    -0.265 OA
HETATM    4  C   UNL     1     -42.667  56.937 -56.679  1.00  0.00     0.146 A 
HETATM    5  C   UNL     1     -43.129  57.127 -55.440  1.00  0.00     0.059 A 
HETATM    6  C   UNL     1     -43.140  58.574 -55.047  1.00  0.00     0.161 A 
ENDROOT
BRANCH   5   7
HETATM    7  C   UNL     1     -43.705  56.138 -54.510  1.00  0.00     0.193 C 
HETATM    8  O   UNL     1     -44.917  56.173 -54.305  1.00  0.00    -0.287 OA
BRANCH   7   9
HETATM    9  C   UNL     1     -42.844  55.153 -53.799  1.00  0.00     0.015 A 
HETATM   10  C   UNL     1     -42.564  55.378 -52.445  1.00  0.00     0.025 A 
HETATM   11  C   UNL     1     -41.745  54.494 -51.721  1.00  0.00    -0.028 A 
HETATM   12  C   UNL     1     -41.463  54.762 -50.266  1.00  0.00     0.051 C 
HETATM   13  C   UNL     1     -41.212  53.359 -52.359  1.00  0.00     0.074 A 
HETATM   14  C   UNL     1     -41.463  53.158 -53.717  1.00  0.00     0.038 A 
HETATM   15  C   UNL     1     -42.260  54.055 -54.437  1.00  0.00     0.018 A 
BRANCH  13  16
HETATM   16  O   UNL     1     -40.462  52.529 -51.570  1.00  0.00    -0.350 OA
BRANCH  16  17
HETATM   17  C   UNL     1     -39.242  52.020 -52.112  1.00  0.00     0.179 C 
BRANCH  17  18
HETATM   18  C   UNL     1     -39.218  50.495 -51.940  1.00  0.00     0.002 C 
HETATM   19  C   UNL     1     -39.931  50.069 -50.655  1.00  0.00     0.011 C 
HETATM   20  C   UNL     1     -39.854  49.812 -53.149  1.00  0.00     0.011 C 
ENDBRANCH  17  18
ENDBRANCH  16  17
ENDBRANCH  13  16
ENDBRANCH   7   9
ENDBRANCH   5   7
BRANCH   4  21
HETATM   21  O   UNL     1     -42.572  55.786 -57.398  1.00  0.00    -0.355 OA
HETATM   22  H   UNL     1     -41.897  55.938 -58.091  1.00  0.00     0.218 HD
ENDBRANCH   4  21
BRANCH   6  23
HETATM   23  C   UNL     1     -42.325  58.905 -53.810  1.00  0.00    -0.028 A 
HETATM   24  C   UNL     1     -42.884  59.563 -52.695  1.00  0.00     0.049 A 
HETATM   25  C   UNL     1     -42.103  59.823 -51.567  1.00  0.00     0.101 A 
HETATM   26  C   UNL     1     -40.780  59.383 -51.530  1.00  0.00     0.099 A 
HETATM   27  C   UNL     1     -40.206  58.745 -52.619  1.00  0.00     0.040 A 
HETATM   28  C   UNL     1     -40.972  58.516 -53.760  1.00  0.00     0.012 A 
BRANCH  25  29
HETATM   29  O   UNL     1     -42.564  60.447 -50.437  1.00  0.00    -0.353 OA
HETATM   30  C   UNL     1     -42.871  61.828 -50.617  1.00  0.00     0.210 C 
ENDBRANCH  25  29
BRANCH  26  31
HETATM   31  O   UNL     1     -40.010  59.585 -50.420  1.00  0.00    -0.358 OA
HETATM   32  H   UNL     1     -40.274  58.892 -49.784  1.00  0.00     0.218 HD
ENDBRANCH  26  31
ENDBRANCH   6  23
BRANCH   1  33
HETATM   33  C   UNL     1     -42.153  60.588 -56.294  1.00  0.00     0.155 C 
BRANCH  33  34
HETATM   34  C   UNL     1     -43.052  61.529 -57.119  1.00  0.00     0.254 C 
BRANCH  34  35
HETATM   35  N   UNL     1     -43.846  62.521 -56.270  1.00  0.00    -0.070 N 
HETATM   36  H   UNL     1     -44.822  62.202 -56.335  1.00  0.00     0.279 HD
BRANCH  35  37
HETATM   37  C   UNL     1     -43.857  63.946 -56.809  1.00  0.00     0.230 C 
HETATM   38  C   UNL     1     -42.502  64.351 -57.359  1.00  0.00     0.034 C 
ENDBRANCH  35  37
BRANCH  35  39
HETATM   39  C   UNL     1     -43.511  62.517 -54.789  1.00  0.00     0.230 C 
HETATM   40  C   UNL     1     -44.765  62.555 -53.935  1.00  0.00     0.034 C 
ENDBRANCH  35  39
ENDBRANCH  34  35
ENDBRANCH  33  34
ENDBRANCH   1  33
TORSDOF 14
ENDMDL
MODEL 9
REMARK VINA RESULT:      -6.3      2.640      8.037
REMARK  14 active torsions:
REMARK  status: ('A' for Active; 'I' for Inactive)
REMARK    1  A    between atoms: C_2  and  N_3 
REMARK    2  A    between atoms: N_3  and  C_5 
REMARK    3  A    between atoms: N_3  and  C_37 
REMARK    4  A    between atoms: C_5  and  C_6 
REMARK    5  A    between atoms: C_6  and  N_7 
REMARK    6  A    between atoms: C_10  and  O_11 
REMARK    7  A    between atoms: C_12  and  C_13 
REMARK    8  A    between atoms: C_13  and  C_14 
REMARK    9  A    between atoms: C_18  and  O_19 
REMARK   10  A    between atoms: O_19  and  C_20 
REMARK   11  A    between atoms: C_20  and  C_21 
REMARK   12  A    between atoms: C_27  and  C_28 
REMARK   13  A    between atoms: C_30  and  O_31 
REMARK   14  A    between atoms: C_33  and  O_34 
ROOT
HETATM    1  N   UNL     1     -42.480  55.994 -56.340  1.00  0.00    -0.332 N 
HETATM    2  C   UNL     1     -43.130  56.392 -57.490  1.00  0.00     0.278 A 
HETATM    3  O   UNL     1     -43.663  55.687 -58.326  1.00  0.00    -0.265 OA
HETATM    4  C   UNL     1     -43.096  57.866 -57.540  1.00  0.00     0.146 A 
HETATM    5  C   UNL     1     -42.555  58.283 -56.393  1.00  0.00     0.059 A 
HETATM    6  C   UNL     1     -42.113  57.148 -55.520  1.00  0.00     0.161 A 
ENDROOT
BRANCH   5   7
HETATM    7  C   UNL     1     -42.257  59.662 -55.964  1.00  0.00     0.193 C 
HETATM    8  O   UNL     1     -41.503  60.336 -56.663  1.00  0.00    -0.287 OA
BRANCH   7   9
HETATM    9  C   UNL     1     -42.810  60.214 -54.695  1.00  0.00     0.015 A 
HETATM   10  C   UNL     1     -44.164  60.567 -54.665  1.00  0.00     0.025 A 
HETATM   11  C   UNL     1     -44.743  61.108 -53.502  1.00  0.00    -0.028 A 
HETATM   12  C   UNL     1     -46.202  61.477 -53.499  1.00  0.00     0.051 C 
HETATM   13  C   UNL     1     -43.956  61.280 -52.349  1.00  0.00     0.074 A 
HETATM   14  C   UNL     1     -42.598  60.961 -52.394  1.00  0.00     0.038 A 
HETATM   15  C   UNL     1     -42.024  60.446 -53.562  1.00  0.00     0.018 A 
BRANCH  13  16
HETATM   16  O   UNL     1     -44.608  61.771 -51.250  1.00  0.00    -0.350 OA
BRANCH  16  17
HETATM   17  C   UNL     1     -44.246  61.244 -49.972  1.00  0.00     0.179 C 
BRANCH  17  18
HETATM   18  C   UNL     1     -45.496  61.187 -49.083  1.00  0.00     0.002 C 
HETATM   19  C   UNL     1     -45.128  61.257 -47.600  1.00  0.00     0.011 C 
HETATM   20  C   UNL     1     -46.457  62.319 -49.443  1.00  0.00     0.011 C 
ENDBRANCH  17  18
ENDBRANCH  16  17
ENDBRANCH  13  16
ENDBRANCH   7   9
ENDBRANCH   5   7
BRANCH   4  21
HETATM   21  O   UNL     1     -43.545  58.594 -58.599  1.00  0.00    -0.355 OA
HETATM   22  H   UNL     1     -42.951  59.368 -58.684  1.00  0.00     0.218 HD
ENDBRANCH   4  21
BRANCH   6  23
HETATM   23  C   UNL     1     -42.754  57.114 -54.144  1.00  0.00    -0.028 A 
HETATM   24  C   UNL     1     -41.989  57.100 -52.959  1.00  0.00     0.049 A 
HETATM   25  C   UNL     1     -42.621  57.097 -51.714  1.00  0.00     0.101 A 
HETATM   26  C   UNL     1     -44.014  57.157 -51.650  1.00  0.00     0.099 A 
HETATM   27  C   UNL     1     -44.786  57.159 -52.801  1.00  0.00     0.040 A 
HETATM   28  C   UNL     1     -44.158  57.126 -54.046  1.00  0.00     0.012 A 
BRANCH  25  29
HETATM   29  O   UNL     1     -41.960  57.094 -50.513  1.00  0.00    -0.353 OA
HETATM   30  C   UNL     1     -40.834  57.968 -50.465  1.00  0.00     0.210 C 
ENDBRANCH  25  29
BRANCH  26  31
HETATM   31  O   UNL     1     -44.653  57.201 -50.443  1.00  0.00    -0.358 OA
HETATM   32  H   UNL     1     -45.299  57.930 -50.511  1.00  0.00     0.218 HD
ENDBRANCH  26  31
ENDBRANCH   6  23
BRANCH   1  33
HETATM   33  C   UNL     1     -42.520  54.632 -55.823  1.00  0.00     0.155 C 
BRANCH  33  34
HETATM   34  C   UNL     1     -41.188  54.145 -55.221  1.00  0.00     0.254 C 
BRANCH  34  35
HETATM   35  N   UNL     1     -41.356  53.099 -54.119  1.00  0.00    -0.070 N 
HETATM   36  H   UNL     1     -42.024  52.417 -54.502  1.00  0.00     0.279 HD
BRANCH  35  37
HETATM   37  C   UNL     1     -42.010  53.623 -52.847  1.00  0.00     0.230 C 
HETATM   38  C   UNL     1     -41.046  53.622 -51.675  1.00  0.00     0.034 C 
ENDBRANCH  35  37
BRANCH  35  39
HETATM   39  C   UNL     1     -40.105  52.306 -53.784  1.00  0.00     0.230 C 
HETATM   40  C   UNL     1     -40.174  50.896 -54.342  1.00  0.00     0.034 C 
ENDBRANCH  35  39
ENDBRANCH  34  35
ENDBRANCH  33  34
ENDBRANCH   1  33
TORSDOF 14
ENDMDL
MODEL 10
REMARK VINA RESULT:      -6.3      2.324      4.324
REMARK  14 active torsions:
REMARK  status: ('A' for Active; 'I' for Inactive)
REMARK    1  A    between atoms: C_2  and  N_3 
REMARK    2  A    between atoms: N_3  and  C_5 
REMARK    3  A    between atoms: N_3  and  C_37 
REMARK    4  A    between atoms: C_5  and  C_6 
REMARK    5  A    between atoms: C_6  and  N_7 
REMARK    6  A    between atoms: C_10  and  O_11 
REMARK    7  A    between atoms: C_12  and  C_13 
REMARK    8  A    between atoms: C_13  and  C_14 
REMARK    9  A    between atoms: C_18  and  O_19 
REMARK   10  A    between atoms: O_19  and  C_20 
REMARK   11  A    between atoms: C_20  and  C_21 
REMARK   12  A    between atoms: C_27  and  C_28 
REMARK   13  A    between atoms: C_30  and  O_31 
REMARK   14  A    between atoms: C_33  and  O_34 
ROOT
HETATM    1  N   UNL     1     -44.590  59.272 -56.107  1.00  0.00    -0.332 N 
HETATM    2  C   UNL     1     -43.765  60.215 -56.685  1.00  0.00     0.278 A 
HETATM    3  O   UNL     1     -44.064  61.069 -57.497  1.00  0.00    -0.265 OA
HETATM    4  C   UNL     1     -42.412  60.032 -56.126  1.00  0.00     0.146 A 
HETATM    5  C   UNL     1     -42.506  59.100 -55.173  1.00  0.00     0.059 A 
HETATM    6  C   UNL     1     -43.887  58.528 -55.064  1.00  0.00     0.161 A 
ENDROOT
BRANCH   5   7
HETATM    7  C   UNL     1     -41.434  58.523 -54.341  1.00  0.00     0.193 C 
HETATM    8  O   UNL     1     -40.596  59.287 -53.865  1.00  0.00    -0.287 OA
BRANCH   7   9
HETATM    9  C   UNL     1     -41.332  57.054 -54.121  1.00  0.00     0.015 A 
HETATM   10  C   UNL     1     -41.142  56.594 -52.813  1.00  0.00     0.025 A 
HETATM   11  C   UNL     1     -41.023  55.219 -52.541  1.00  0.00    -0.028 A 
HETATM   12  C   UNL     1     -40.820  54.755 -51.123  1.00  0.00     0.051 C 
HETATM   13  C   UNL     1     -41.113  54.292 -53.594  1.00  0.00     0.074 A 
HETATM   14  C   UNL     1     -41.267  54.755 -54.902  1.00  0.00     0.038 A 
HETATM   15  C   UNL     1     -41.360  56.126 -55.167  1.00  0.00     0.018 A 
BRANCH  13  16
HETATM   16  O   UNL     1     -41.031  52.973 -53.236  1.00  0.00    -0.350 OA
BRANCH  16  17
HETATM   17  C   UNL     1     -40.597  52.040 -54.228  1.00  0.00     0.179 C 
BRANCH  17  18
HETATM   18  C   UNL     1     -39.427  51.222 -53.665  1.00  0.00     0.002 C 
HETATM   19  C   UNL     1     -39.431  51.224 -52.134  1.00  0.00     0.011 C 
HETATM   20  C   UNL     1     -39.479  49.788 -54.191  1.00  0.00     0.011 C 
ENDBRANCH  17  18
ENDBRANCH  16  17
ENDBRANCH  13  16
ENDBRANCH   7   9
ENDBRANCH   5   7
BRANCH   4  21
HETATM   21  O   UNL     1     -41.320  60.718 -56.558  1.00  0.00    -0.355 OA
HETATM   22  H   UNL     1     -41.173  60.460 -57.492  1.00  0.00     0.218 HD
ENDBRANCH   4  21
BRANCH   6  23
HETATM   23  C   UNL     1     -44.535  58.681 -53.700  1.00  0.00    -0.028 A 
HETATM   24  C   UNL     1     -44.551  57.634 -52.755  1.00  0.00     0.049 A 
HETATM   25  C   UNL     1     -45.134  57.828 -51.500  1.00  0.00     0.101 A 
HETATM   26  C   UNL     1     -45.656  59.079 -51.171  1.00  0.00     0.099 A 
HETATM   27  C   UNL     1     -45.662  60.118 -52.088  1.00  0.00     0.040 A 
HETATM   28  C   UNL     1     -45.113  59.917 -53.354  1.00  0.00     0.012 A 
BRANCH  25  29
HETATM   29  O   UNL     1     -45.187  56.873 -50.518  1.00  0.00    -0.353 OA
HETATM   30  C   UNL     1     -44.168  55.880 -50.615  1.00  0.00     0.210 C 
ENDBRANCH  25  29
BRANCH  26  31
HETATM   31  O   UNL     1     -46.190  59.306 -49.934  1.00  0.00    -0.358 OA
HETATM   32  H   UNL     1     -46.884  58.629 -49.816  1.00  0.00     0.218 HD
ENDBRANCH  26  31
ENDBRANCH   6  23
BRANCH   1  33
HETATM   33  C   UNL     1     -46.044  59.295 -56.226  1.00  0.00     0.155 C 
BRANCH  33  34
HETATM   34  C   UNL     1     -46.582  58.657 -57.521  1.00  0.00     0.254 C 
BRANCH  34  35
HETATM   35  N   UNL     1     -46.743  59.648 -58.673  1.00  0.00    -0.070 N 
HETATM   36  H   UNL     1     -46.177  60.463 -58.402  1.00  0.00     0.279 HD
BRANCH  35  37
HETATM   37  C   UNL     1     -48.157  60.187 -58.849  1.00  0.00     0.230 C 
HETATM   38  C   UNL     1     -48.192  61.704 -58.806  1.00  0.00     0.034 C 
ENDBRANCH  35  37
BRANCH  35  39
HETATM   39  C   UNL     1     -46.183  59.184 -60.007  1.00  0.00     0.230 C 
HETATM   40  C   UNL     1     -47.240  58.484 -60.841  1.00  0.00     0.034 C 
ENDBRANCH  35  39
ENDBRANCH  34  35
ENDBRANCH  33  34
ENDBRANCH   1  33
TORSDOF 14
ENDMDL
