MODEL 1
REMARK VINA RESULT:      -7.6      0.000      0.000
REMARK  4 active torsions:
REMARK  status: ('A' for Active; 'I' for Inactive)
REMARK    1  A    between atoms: C_5  and  C_6 
REMARK    2  A    between atoms: C_6  and  N_7 
REMARK       I    between atoms: N_7  and  C_8 
REMARK       I    between atoms: C_8  and  N_9 
REMARK    3  A    between atoms: N_9  and  C_10 
REMARK    4  A    between atoms: C_11  and  C_12 
ROOT
HETATM    1  N   UNL     1     -41.827  54.236 -50.217  1.00  0.00    -0.339 N 
HETATM    2  C   UNL     1     -42.899  54.802 -50.849  1.00  0.00     0.321 C 
HETATM    3  N   UNL     1     -42.595  55.821 -51.706  1.00  0.00    -0.305 N 
HETATM    4  O   UNL     1     -44.019  54.381 -50.587  1.00  0.00    -0.247 OA
HETATM    5  H   UNL     1     -42.116  53.456 -49.639  1.00  0.00     0.164 HD
HETATM    6  H   UNL     1     -41.762  56.332 -51.472  1.00  0.00     0.171 HD
ENDROOT
BRANCH   1   7
HETATM    7  C   UNL     1     -40.469  54.185 -50.718  1.00  0.00     0.162 C 
BRANCH   7   8
HETATM    8  C   UNL     1     -40.268  53.051 -51.687  1.00  0.00    -0.040 A 
HETATM    9  C   UNL     1     -40.459  53.245 -53.061  1.00  0.00     0.009 A 
HETATM   10  C   UNL     1     -40.221  52.207 -53.966  1.00  0.00     0.007 A 
HETATM   11  C   UNL     1     -39.782  50.959 -53.515  1.00  0.00    -0.062 A 
HETATM   12  C   UNL     1     -39.515  49.839 -54.477  1.00  0.00     0.048 C 
HETATM   13  C   UNL     1     -39.594  50.759 -52.143  1.00  0.00     0.007 A 
HETATM   14  C   UNL     1     -39.831  51.797 -51.238  1.00  0.00     0.009 A 
ENDBRANCH   7   8
ENDBRANCH   1   7
BRANCH   3  15
HETATM   15  C   UNL     1     -43.462  56.442 -52.596  1.00  0.00     0.095 A 
HETATM   16  C   UNL     1     -43.614  56.106 -53.934  1.00  0.00     0.112 A 
HETATM   17  O   UNL     1     -44.564  56.916 -54.483  1.00  0.00    -0.215 OA
HETATM   18  N   UNL     1     -45.064  57.773 -53.537  1.00  0.00    -0.131 NA
HETATM   19  C   UNL     1     -44.418  57.488 -52.400  1.00  0.00     0.087 A 
HETATM   20  C   UNL     1     -44.811  58.225 -51.176  1.00  0.00     0.075 C 
BRANCH  16  21
HETATM   21  C   UNL     1     -42.929  55.062 -54.811  1.00  0.00     0.048 A 
HETATM   22  C   UNL     1     -42.957  55.167 -56.319  1.00  0.00     0.012 A 
HETATM   23  C   UNL     1     -41.673  55.384 -55.588  1.00  0.00     0.012 A 
ENDBRANCH  16  21
ENDBRANCH   3  15
TORSDOF 4
ENDMDL
MODEL 2
REMARK VINA RESULT:      -7.3      1.926      3.380
REMARK  4 active torsions:
REMARK  status: ('A' for Active; 'I' for Inactive)
REMARK    1  A    between atoms: C_5  and  C_6 
REMARK    2  A    between atoms: C_6  and  N_7 
REMARK       I    between atoms: N_7  and  C_8 
REMARK       I    between atoms: C_8  and  N_9 
REMARK    3  A    between atoms: N_9  and  C_10 
REMARK    4  A    between atoms: C_11  and  C_12 
ROOT
HETATM    1  N   UNL     1     -40.250  55.052 -54.927  1.00  0.00    -0.339 N 
HETATM    2  C   UNL     1     -40.967  56.012 -54.270  1.00  0.00     0.321 C 
HETATM    3  N   UNL     1     -42.324  55.890 -54.367  1.00  0.00    -0.305 N 
HETATM    4  O   UNL     1     -40.356  56.897 -53.683  1.00  0.00    -0.247 OA
HETATM    5  H   UNL     1     -39.256  55.170 -54.771  1.00  0.00     0.164 HD
HETATM    6  H   UNL     1     -42.646  55.442 -55.206  1.00  0.00     0.171 HD
ENDROOT
BRANCH   1   7
HETATM    7  C   UNL     1     -40.690  53.702 -55.212  1.00  0.00     0.162 C 
BRANCH   7   8
HETATM    8  C   UNL     1     -40.298  52.739 -54.123  1.00  0.00    -0.040 A 
HETATM    9  C   UNL     1     -40.216  53.166 -52.791  1.00  0.00     0.009 A 
HETATM   10  C   UNL     1     -39.905  52.260 -51.773  1.00  0.00     0.007 A 
HETATM   11  C   UNL     1     -39.676  50.912 -52.066  1.00  0.00    -0.062 A 
HETATM   12  C   UNL     1     -39.349  49.930 -50.981  1.00  0.00     0.048 C 
HETATM   13  C   UNL     1     -39.754  50.484 -53.396  1.00  0.00     0.007 A 
HETATM   14  C   UNL     1     -40.066  51.388 -54.414  1.00  0.00     0.009 A 
ENDBRANCH   7   8
ENDBRANCH   1   7
BRANCH   3  15
HETATM   15  C   UNL     1     -43.275  56.617 -53.661  1.00  0.00     0.095 A 
HETATM   16  C   UNL     1     -43.618  56.408 -52.332  1.00  0.00     0.112 A 
HETATM   17  O   UNL     1     -44.569  57.320 -51.978  1.00  0.00    -0.215 OA
HETATM   18  N   UNL     1     -44.853  58.147 -53.034  1.00  0.00    -0.131 NA
HETATM   19  C   UNL     1     -44.073  57.740 -54.044  1.00  0.00     0.087 A 
HETATM   20  C   UNL     1     -44.121  58.509 -55.310  1.00  0.00     0.075 C 
BRANCH  16  21
HETATM   21  C   UNL     1     -43.142  55.391 -51.299  1.00  0.00     0.048 A 
HETATM   22  C   UNL     1     -44.116  54.707 -50.367  1.00  0.00     0.012 A 
HETATM   23  C   UNL     1     -43.447  53.917 -51.443  1.00  0.00     0.012 A 
ENDBRANCH  16  21
ENDBRANCH   3  15
TORSDOF 4
ENDMDL
MODEL 3
REMARK VINA RESULT:      -7.2      0.752      2.817
REMARK  4 active torsions:
REMARK  status: ('A' for Active; 'I' for Inactive)
REMARK    1  A    between atoms: C_5  and  C_6 
REMARK    2  A    between atoms: C_6  and  N_7 
REMARK       I    between atoms: N_7  and  C_8 
REMARK       I    between atoms: C_8  and  N_9 
REMARK    3  A    between atoms: N_9  and  C_10 
REMARK    4  A    between atoms: C_11  and  C_12 
ROOT
HETATM    1  N   UNL     1     -41.836  54.394 -50.269  1.00  0.00    -0.339 N 
HETATM    2  C   UNL     1     -42.914  54.913 -50.930  1.00  0.00     0.321 C 
HETATM    3  N   UNL     1     -42.621  55.883 -51.846  1.00  0.00    -0.305 N 
HETATM    4  O   UNL     1     -44.030  54.499 -50.641  1.00  0.00    -0.247 OA
HETATM    5  H   UNL     1     -42.117  53.647 -49.646  1.00  0.00     0.164 HD
HETATM    6  H   UNL     1     -41.792  56.414 -51.643  1.00  0.00     0.171 HD
ENDROOT
BRANCH   1   7
HETATM    7  C   UNL     1     -40.478  54.326 -50.769  1.00  0.00     0.162 C 
BRANCH   7   8
HETATM    8  C   UNL     1     -40.288  53.181 -51.727  1.00  0.00    -0.040 A 
HETATM    9  C   UNL     1     -40.516  53.354 -53.098  1.00  0.00     0.009 A 
HETATM   10  C   UNL     1     -40.287  52.306 -53.995  1.00  0.00     0.007 A 
HETATM   11  C   UNL     1     -39.822  51.069 -53.538  1.00  0.00    -0.062 A 
HETATM   12  C   UNL     1     -39.565  49.940 -54.491  1.00  0.00     0.048 C 
HETATM   13  C   UNL     1     -39.597  50.891 -52.168  1.00  0.00     0.007 A 
HETATM   14  C   UNL     1     -39.824  51.938 -51.272  1.00  0.00     0.009 A 
ENDBRANCH   7   8
ENDBRANCH   1   7
BRANCH   3  15
HETATM   15  C   UNL     1     -43.495  56.444 -52.769  1.00  0.00     0.095 A 
HETATM   16  C   UNL     1     -44.159  57.653 -52.611  1.00  0.00     0.112 A 
HETATM   17  O   UNL     1     -44.911  57.887 -53.724  1.00  0.00    -0.215 OA
HETATM   18  N   UNL     1     -44.749  56.870 -54.630  1.00  0.00    -0.131 NA
HETATM   19  C   UNL     1     -43.892  56.007 -54.071  1.00  0.00     0.087 A 
HETATM   20  C   UNL     1     -43.476  54.829 -54.867  1.00  0.00     0.075 C 
BRANCH  16  21
HETATM   21  C   UNL     1     -44.180  58.668 -51.472  1.00  0.00     0.048 A 
HETATM   22  C   UNL     1     -45.007  59.931 -51.565  1.00  0.00     0.012 A 
HETATM   23  C   UNL     1     -45.405  58.858 -50.605  1.00  0.00     0.012 A 
ENDBRANCH  16  21
ENDBRANCH   3  15
TORSDOF 4
ENDMDL
MODEL 4
REMARK VINA RESULT:      -7.2      2.676      3.989
REMARK  4 active torsions:
REMARK  status: ('A' for Active; 'I' for Inactive)
REMARK    1  A    between atoms: C_5  and  C_6 
REMARK    2  A    between atoms: C_6  and  N_7 
REMARK       I    between atoms: N_7  and  C_8 
REMARK       I    between atoms: C_8  and  N_9 
REMARK    3  A    between atoms: N_9  and  C_10 
REMARK    4  A    between atoms: C_11  and  C_12 
ROOT
HETATM    1  N   UNL     1     -42.203  54.248 -54.393  1.00  0.00    -0.339 N 
HETATM    2  C   UNL     1     -42.539  55.573 -54.387  1.00  0.00     0.321 C 
HETATM    3  N   UNL     1     -41.497  56.435 -54.199  1.00  0.00    -0.305 N 
HETATM    4  O   UNL     1     -43.719  55.876 -54.521  1.00  0.00    -0.247 OA
HETATM    5  H   UNL     1     -43.010  53.669 -54.589  1.00  0.00     0.164 HD
HETATM    6  H   UNL     1     -40.733  56.059 -53.665  1.00  0.00     0.171 HD
ENDROOT
BRANCH   1   7
HETATM    7  C   UNL     1     -40.919  53.694 -54.771  1.00  0.00     0.162 C 
BRANCH   7   8
HETATM    8  C   UNL     1     -40.433  52.671 -53.781  1.00  0.00    -0.040 A 
HETATM    9  C   UNL     1     -40.303  52.997 -52.425  1.00  0.00     0.009 A 
HETATM   10  C   UNL     1     -39.903  52.032 -51.497  1.00  0.00     0.007 A 
HETATM   11  C   UNL     1     -39.632  50.722 -51.905  1.00  0.00    -0.062 A 
HETATM   12  C   UNL     1     -39.210  49.676 -50.917  1.00  0.00     0.048 C 
HETATM   13  C   UNL     1     -39.757  50.394 -53.260  1.00  0.00     0.007 A 
HETATM   14  C   UNL     1     -40.157  51.358 -54.188  1.00  0.00     0.009 A 
ENDBRANCH   7   8
ENDBRANCH   1   7
BRANCH   3  15
HETATM   15  C   UNL     1     -41.532  57.818 -54.324  1.00  0.00     0.095 A 
HETATM   16  C   UNL     1     -41.061  58.720 -53.380  1.00  0.00     0.112 A 
HETATM   17  O   UNL     1     -41.245  59.985 -53.855  1.00  0.00    -0.215 OA
HETATM   18  N   UNL     1     -41.809  59.948 -55.104  1.00  0.00    -0.131 NA
HETATM   19  C   UNL     1     -41.974  58.653 -55.399  1.00  0.00     0.087 A 
HETATM   20  C   UNL     1     -42.510  58.308 -56.736  1.00  0.00     0.075 C 
BRANCH  16  21
HETATM   21  C   UNL     1     -40.433  58.526 -52.003  1.00  0.00     0.048 A 
HETATM   22  C   UNL     1     -40.691  59.505 -50.880  1.00  0.00     0.012 A 
HETATM   23  C   UNL     1     -41.264  58.128 -50.805  1.00  0.00     0.012 A 
ENDBRANCH  16  21
ENDBRANCH   3  15
TORSDOF 4
ENDMDL
MODEL 5
REMARK VINA RESULT:      -7.2     14.062     16.154
REMARK  4 active torsions:
REMARK  status: ('A' for Active; 'I' for Inactive)
REMARK    1  A    between atoms: C_5  and  C_6 
REMARK    2  A    between atoms: C_6  and  N_7 
REMARK       I    between atoms: N_7  and  C_8 
REMARK       I    between atoms: C_8  and  N_9 
REMARK    3  A    between atoms: N_9  and  C_10 
REMARK    4  A    between atoms: C_11  and  C_12 
ROOT
HETATM    1  N   UNL     1     -37.265  41.932 -53.507  1.00  0.00    -0.339 N 
HETATM    2  C   UNL     1     -35.938  41.982 -53.181  1.00  0.00     0.321 C 
HETATM    3  N   UNL     1     -35.302  40.774 -53.156  1.00  0.00    -0.305 N 
HETATM    4  O   UNL     1     -35.443  43.071 -52.919  1.00  0.00    -0.247 OA
HETATM    5  H   UNL     1     -37.662  42.862 -53.560  1.00  0.00     0.164 HD
HETATM    6  H   UNL     1     -35.893  39.992 -52.934  1.00  0.00     0.171 HD
ENDROOT
BRANCH   1   7
HETATM    7  C   UNL     1     -37.906  40.922 -54.325  1.00  0.00     0.162 C 
BRANCH   7   8
HETATM    8  C   UNL     1     -37.691  41.167 -55.794  1.00  0.00    -0.040 A 
HETATM    9  C   UNL     1     -38.445  40.473 -56.749  1.00  0.00     0.009 A 
HETATM   10  C   UNL     1     -38.283  40.738 -58.112  1.00  0.00     0.007 A 
HETATM   11  C   UNL     1     -37.372  41.707 -58.544  1.00  0.00    -0.062 A 
HETATM   12  C   UNL     1     -37.196  42.007 -60.003  1.00  0.00     0.048 C 
HETATM   13  C   UNL     1     -36.615  42.400 -57.593  1.00  0.00     0.007 A 
HETATM   14  C   UNL     1     -36.776  42.135 -56.230  1.00  0.00     0.009 A 
ENDBRANCH   7   8
ENDBRANCH   1   7
BRANCH   3  15
HETATM   15  C   UNL     1     -33.934  40.560 -53.029  1.00  0.00     0.095 A 
HETATM   16  C   UNL     1     -33.021  40.572 -54.075  1.00  0.00     0.112 A 
HETATM   17  O   UNL     1     -31.775  40.343 -53.569  1.00  0.00    -0.215 OA
HETATM   18  N   UNL     1     -31.833  40.199 -52.207  1.00  0.00    -0.131 NA
HETATM   19  C   UNL     1     -33.122  40.340 -51.873  1.00  0.00     0.087 A 
HETATM   20  C   UNL     1     -33.474  40.298 -50.434  1.00  0.00     0.075 C 
BRANCH  16  21
HETATM   21  C   UNL     1     -33.189  40.773 -55.578  1.00  0.00     0.048 A 
HETATM   22  C   UNL     1     -32.275  40.086 -56.566  1.00  0.00     0.012 A 
HETATM   23  C   UNL     1     -33.705  39.667 -56.471  1.00  0.00     0.012 A 
ENDBRANCH  16  21
ENDBRANCH   3  15
TORSDOF 4
ENDMDL
MODEL 6
REMARK VINA RESULT:      -7.2      1.933      2.275
REMARK  4 active torsions:
REMARK  status: ('A' for Active; 'I' for Inactive)
REMARK    1  A    between atoms: C_5  and  C_6 
REMARK    2  A    between atoms: C_6  and  N_7 
REMARK       I    between atoms: N_7  and  C_8 
REMARK       I    between atoms: C_8  and  N_9 
REMARK    3  A    between atoms: N_9  and  C_10 
REMARK    4  A    between atoms: C_11  and  C_12 
ROOT
HETATM    1  N   UNL     1     -41.416  54.014 -49.924  1.00  0.00    -0.339 N 
HETATM    2  C   UNL     1     -41.942  55.121 -50.528  1.00  0.00     0.321 C 
HETATM    3  N   UNL     1     -41.037  56.091 -50.851  1.00  0.00    -0.305 N 
HETATM    4  O   UNL     1     -43.154  55.169 -50.705  1.00  0.00    -0.247 OA
HETATM    5  H   UNL     1     -42.130  53.315 -49.760  1.00  0.00     0.164 HD
HETATM    6  H   UNL     1     -40.225  56.122 -50.260  1.00  0.00     0.171 HD
ENDROOT
BRANCH   1   7
HETATM    7  C   UNL     1     -40.065  53.515 -50.083  1.00  0.00     0.162 C 
BRANCH   7   8
HETATM    8  C   UNL     1     -39.948  52.567 -51.246  1.00  0.00    -0.040 A 
HETATM    9  C   UNL     1     -39.713  51.203 -51.031  1.00  0.00     0.009 A 
HETATM   10  C   UNL     1     -39.658  50.313 -52.108  1.00  0.00     0.007 A 
HETATM   11  C   UNL     1     -39.842  50.769 -53.417  1.00  0.00    -0.062 A 
HETATM   12  C   UNL     1     -39.793  49.823 -54.580  1.00  0.00     0.048 C 
HETATM   13  C   UNL     1     -40.073  52.132 -53.635  1.00  0.00     0.007 A 
HETATM   14  C   UNL     1     -40.129  53.022 -52.560  1.00  0.00     0.009 A 
ENDBRANCH   7   8
ENDBRANCH   1   7
BRANCH   3  15
HETATM   15  C   UNL     1     -41.274  57.224 -51.620  1.00  0.00     0.095 A 
HETATM   16  C   UNL     1     -41.680  57.221 -52.948  1.00  0.00     0.112 A 
HETATM   17  O   UNL     1     -41.830  58.512 -53.362  1.00  0.00    -0.215 OA
HETATM   18  N   UNL     1     -41.554  59.377 -52.334  1.00  0.00    -0.131 NA
HETATM   19  C   UNL     1     -41.231  58.614 -51.283  1.00  0.00     0.087 A 
HETATM   20  C   UNL     1     -40.947  59.290 -49.996  1.00  0.00     0.075 C 
BRANCH  16  21
HETATM   21  C   UNL     1     -41.950  56.088 -53.933  1.00  0.00     0.048 A 
HETATM   22  C   UNL     1     -42.032  56.347 -55.421  1.00  0.00     0.012 A 
HETATM   23  C   UNL     1     -40.874  55.581 -54.868  1.00  0.00     0.012 A 
ENDBRANCH  16  21
ENDBRANCH   3  15
TORSDOF 4
ENDMDL
MODEL 7
REMARK VINA RESULT:      -7.0     14.362     16.650
REMARK  4 active torsions:
REMARK  status: ('A' for Active; 'I' for Inactive)
REMARK    1  A    between atoms: C_5  and  C_6 
REMARK    2  A    between atoms: C_6  and  N_7 
REMARK       I    between atoms: N_7  and  C_8 
REMARK       I    between atoms: C_8  and  N_9 
REMARK    3  A    between atoms: N_9  and  C_10 
REMARK    4  A    between atoms: C_11  and  C_12 
ROOT
HETATM    1  N   UNL     1     -37.053  42.250 -55.669  1.00  0.00    -0.339 N 
HETATM    2  C   UNL     1     -35.736  42.193 -55.308  1.00  0.00     0.321 C 
HETATM    3  N   UNL     1     -35.362  41.052 -54.658  1.00  0.00    -0.305 N 
HETATM    4  O   UNL     1     -35.019  43.153 -55.565  1.00  0.00    -0.247 OA
HETATM    5  H   UNL     1     -37.251  43.094 -56.192  1.00  0.00     0.164 HD
HETATM    6  H   UNL     1     -36.096  40.608 -54.134  1.00  0.00     0.171 HD
ENDROOT
BRANCH   1   7
HETATM    7  C   UNL     1     -37.912  41.117 -55.948  1.00  0.00     0.162 C 
BRANCH   7   8
HETATM    8  C   UNL     1     -37.836  40.692 -57.390  1.00  0.00    -0.040 A 
HETATM    9  C   UNL     1     -37.448  41.603 -58.380  1.00  0.00     0.009 A 
HETATM   10  C   UNL     1     -37.325  41.196 -59.712  1.00  0.00     0.007 A 
HETATM   11  C   UNL     1     -37.581  39.871 -60.076  1.00  0.00    -0.062 A 
HETATM   12  C   UNL     1     -37.445  39.420 -61.500  1.00  0.00     0.048 C 
HETATM   13  C   UNL     1     -37.973  38.959 -59.089  1.00  0.00     0.007 A 
HETATM   14  C   UNL     1     -38.095  39.365 -57.758  1.00  0.00     0.009 A 
ENDBRANCH   7   8
ENDBRANCH   1   7
BRANCH   3  15
HETATM   15  C   UNL     1     -34.066  40.665 -54.341  1.00  0.00     0.095 A 
HETATM   16  C   UNL     1     -33.601  40.393 -53.062  1.00  0.00     0.112 A 
HETATM   17  O   UNL     1     -32.289  40.027 -53.142  1.00  0.00    -0.215 OA
HETATM   18  N   UNL     1     -31.874  40.029 -54.449  1.00  0.00    -0.131 NA
HETATM   19  C   UNL     1     -32.935  40.398 -55.176  1.00  0.00     0.087 A 
HETATM   20  C   UNL     1     -32.792  40.421 -56.650  1.00  0.00     0.075 C 
BRANCH  16  21
HETATM   21  C   UNL     1     -34.275  40.448 -51.694  1.00  0.00     0.048 A 
HETATM   22  C   UNL     1     -33.477  40.719 -50.439  1.00  0.00     0.012 A 
HETATM   23  C   UNL     1     -34.432  41.751 -50.943  1.00  0.00     0.012 A 
ENDBRANCH  16  21
ENDBRANCH   3  15
TORSDOF 4
ENDMDL
MODEL 8
REMARK VINA RESULT:      -6.9      1.977      3.247
REMARK  4 active torsions:
REMARK  status: ('A' for Active; 'I' for Inactive)
REMARK    1  A    between atoms: C_5  and  C_6 
REMARK    2  A    between atoms: C_6  and  N_7 
REMARK       I    between atoms: N_7  and  C_8 
REMARK       I    between atoms: C_8  and  N_9 
REMARK    3  A    between atoms: N_9  and  C_10 
REMARK    4  A    between atoms: C_11  and  C_12 
ROOT
HETATM    1  N   UNL     1     -40.708  55.395 -54.549  1.00  0.00    -0.339 N 
HETATM    2  C   UNL     1     -41.371  56.187 -53.654  1.00  0.00     0.321 C 
HETATM    3  N   UNL     1     -42.714  55.956 -53.561  1.00  0.00    -0.305 N 
HETATM    4  O   UNL     1     -40.734  57.035 -53.042  1.00  0.00    -0.247 OA
HETATM    5  H   UNL     1     -39.712  55.581 -54.531  1.00  0.00     0.164 HD
HETATM    6  H   UNL     1     -43.138  55.600 -54.398  1.00  0.00     0.171 HD
ENDROOT
BRANCH   1   7
HETATM    7  C   UNL     1     -41.096  54.062 -54.963  1.00  0.00     0.162 C 
BRANCH   7   8
HETATM    8  C   UNL     1     -40.654  53.015 -53.978  1.00  0.00    -0.040 A 
HETATM    9  C   UNL     1     -40.301  51.731 -54.413  1.00  0.00     0.009 A 
HETATM   10  C   UNL     1     -39.839  50.774 -53.505  1.00  0.00     0.007 A 
HETATM   11  C   UNL     1     -39.715  51.085 -52.147  1.00  0.00    -0.062 A 
HETATM   12  C   UNL     1     -39.212  50.070 -51.165  1.00  0.00     0.048 C 
HETATM   13  C   UNL     1     -40.069  52.366 -51.708  1.00  0.00     0.007 A 
HETATM   14  C   UNL     1     -40.531  53.323 -52.615  1.00  0.00     0.009 A 
ENDBRANCH   7   8
ENDBRANCH   1   7
BRANCH   3  15
HETATM   15  C   UNL     1     -43.583  56.490 -52.616  1.00  0.00     0.095 A 
HETATM   16  C   UNL     1     -44.465  57.538 -52.841  1.00  0.00     0.112 A 
HETATM   17  O   UNL     1     -45.165  57.772 -51.694  1.00  0.00    -0.215 OA
HETATM   18  N   UNL     1     -44.785  56.891 -50.715  1.00  0.00    -0.131 NA
HETATM   19  C   UNL     1     -43.846  56.110 -51.262  1.00  0.00     0.087 A 
HETATM   20  C   UNL     1     -43.296  55.007 -50.441  1.00  0.00     0.075 C 
BRANCH  16  21
HETATM   21  C   UNL     1     -44.737  58.401 -54.069  1.00  0.00     0.048 A 
HETATM   22  C   UNL     1     -45.233  59.823 -53.931  1.00  0.00     0.012 A 
HETATM   23  C   UNL     1     -43.846  59.570 -54.427  1.00  0.00     0.012 A 
ENDBRANCH  16  21
ENDBRANCH   3  15
TORSDOF 4
ENDMDL
MODEL 9
REMARK VINA RESULT:      -6.8      2.554      6.339
REMARK  4 active torsions:
REMARK  status: ('A' for Active; 'I' for Inactive)
REMARK    1  A    between atoms: C_5  and  C_6 
REMARK    2  A    between atoms: C_6  and  N_7 
REMARK       I    between atoms: N_7  and  C_8 
REMARK       I    between atoms: C_8  and  N_9 
REMARK    3  A    between atoms: N_9  and  C_10 
REMARK    4  A    between atoms: C_11  and  C_12 
ROOT
HETATM    1  N   UNL     1     -42.612  56.293 -54.280  1.00  0.00    -0.339 N 
HETATM    2  C   UNL     1     -41.863  55.822 -53.238  1.00  0.00     0.321 C 
HETATM    3  N   UNL     1     -42.038  54.499 -52.949  1.00  0.00    -0.305 N 
HETATM    4  O   UNL     1     -41.132  56.606 -52.644  1.00  0.00    -0.247 OA
HETATM    5  H   UNL     1     -42.396  57.263 -54.474  1.00  0.00     0.164 HD
HETATM    6  H   UNL     1     -42.945  54.135 -53.183  1.00  0.00     0.171 HD
ENDROOT
BRANCH   1   7
HETATM    7  C   UNL     1     -43.100  55.516 -55.401  1.00  0.00     0.162 C 
BRANCH   7   8
HETATM    8  C   UNL     1     -42.881  56.220 -56.712  1.00  0.00    -0.040 A 
HETATM    9  C   UNL     1     -42.394  57.534 -56.743  1.00  0.00     0.009 A 
HETATM   10  C   UNL     1     -42.140  58.169 -57.962  1.00  0.00     0.007 A 
HETATM   11  C   UNL     1     -42.360  57.502 -59.171  1.00  0.00    -0.062 A 
HETATM   12  C   UNL     1     -42.083  58.171 -60.484  1.00  0.00     0.048 C 
HETATM   13  C   UNL     1     -42.850  56.191 -59.144  1.00  0.00     0.007 A 
HETATM   14  C   UNL     1     -43.104  55.555 -57.926  1.00  0.00     0.009 A 
ENDBRANCH   7   8
ENDBRANCH   1   7
BRANCH   3  15
HETATM   15  C   UNL     1     -41.283  53.735 -52.068  1.00  0.00     0.095 A 
HETATM   16  C   UNL     1     -40.396  52.732 -52.434  1.00  0.00     0.112 A 
HETATM   17  O   UNL     1     -39.825  52.221 -51.306  1.00  0.00    -0.215 OA
HETATM   18  N   UNL     1     -40.296  52.873 -50.196  1.00  0.00    -0.131 NA
HETATM   19  C   UNL     1     -41.161  53.791 -50.644  1.00  0.00     0.087 A 
HETATM   20  C   UNL     1     -41.782  54.702 -49.653  1.00  0.00     0.075 C 
BRANCH  16  21
HETATM   21  C   UNL     1     -40.004  52.157 -53.792  1.00  0.00     0.048 A 
HETATM   22  C   UNL     1     -39.346  50.801 -53.907  1.00  0.00     0.012 A 
HETATM   23  C   UNL     1     -40.745  50.986 -54.397  1.00  0.00     0.012 A 
ENDBRANCH  16  21
ENDBRANCH   3  15
TORSDOF 4
ENDMDL
MODEL 10
REMARK VINA RESULT:      -6.8      2.414      3.414
REMARK  4 active torsions:
REMARK  status: ('A' for Active; 'I' for Inactive)
REMARK    1  A    between atoms: C_5  and  C_6 
REMARK    2  A    between atoms: C_6  and  N_7 
REMARK       I    between atoms: N_7  and  C_8 
REMARK       I    between atoms: C_8  and  N_9 
REMARK    3  A    between atoms: N_9  and  C_10 
REMARK    4  A    between atoms: C_11  and  C_12 
ROOT
HETATM    1  N   UNL     1     -40.258  55.023 -54.688  1.00  0.00    -0.339 N 
HETATM    2  C   UNL     1     -41.134  56.071 -54.724  1.00  0.00     0.321 C 
HETATM    3  N   UNL     1     -42.116  55.975 -55.668  1.00  0.00    -0.305 N 
HETATM    4  O   UNL     1     -40.961  57.002 -53.947  1.00  0.00    -0.247 OA
HETATM    5  H   UNL     1     -39.590  55.132 -53.935  1.00  0.00     0.164 HD
HETATM    6  H   UNL     1     -41.865  55.440 -56.481  1.00  0.00     0.171 HD
ENDROOT
BRANCH   1   7
HETATM    7  C   UNL     1     -40.539  53.660 -55.093  1.00  0.00     0.162 C 
BRANCH   7   8
HETATM    8  C   UNL     1     -40.207  52.670 -54.010  1.00  0.00    -0.040 A 
HETATM    9  C   UNL     1     -40.177  53.067 -52.667  1.00  0.00     0.009 A 
HETATM   10  C   UNL     1     -39.920  52.137 -51.656  1.00  0.00     0.007 A 
HETATM   11  C   UNL     1     -39.696  50.793 -51.968  1.00  0.00    -0.062 A 
HETATM   12  C   UNL     1     -39.428  49.783 -50.892  1.00  0.00     0.048 C 
HETATM   13  C   UNL     1     -39.722  50.393 -53.309  1.00  0.00     0.007 A 
HETATM   14  C   UNL     1     -39.978  51.322 -54.320  1.00  0.00     0.009 A 
ENDBRANCH   7   8
ENDBRANCH   1   7
BRANCH   3  15
HETATM   15  C   UNL     1     -43.223  56.803 -55.800  1.00  0.00     0.095 A 
HETATM   16  C   UNL     1     -43.654  57.382 -56.986  1.00  0.00     0.112 A 
HETATM   17  O   UNL     1     -44.778  58.111 -56.734  1.00  0.00    -0.215 OA
HETATM   18  N   UNL     1     -45.120  58.016 -55.409  1.00  0.00    -0.131 NA
HETATM   19  C   UNL     1     -44.201  57.224 -54.845  1.00  0.00     0.087 A 
HETATM   20  C   UNL     1     -44.362  56.887 -53.411  1.00  0.00     0.075 C 
BRANCH  16  21
HETATM   21  C   UNL     1     -43.099  57.339 -58.407  1.00  0.00     0.048 A 
HETATM   22  C   UNL     1     -43.235  58.523 -59.337  1.00  0.00     0.012 A 
HETATM   23  C   UNL     1     -41.889  58.152 -58.808  1.00  0.00     0.012 A 
ENDBRANCH  16  21
ENDBRANCH   3  15
TORSDOF 4
ENDMDL
