MODEL 1
REMARK VINA RESULT:      -8.5      0.000      0.000
REMARK  3 active torsions:
REMARK  status: ('A' for Active; 'I' for Inactive)
REMARK    1  A    between atoms: O_2  and  C_3 
REMARK    2  A    between atoms: C_6  and  C_7 
REMARK       I    between atoms: C_7  and  N_8 
REMARK    3  A    between atoms: C_11  and  C_12 
ROOT
HETATM    1  C   UNL     1     -43.575  57.180 -56.120  1.00  0.00     0.274 C 
HETATM    2  N   UNL     1     -42.830  56.399 -55.222  1.00  0.00    -0.343 N 
HETATM    3  C   UNL     1     -43.521  56.046 -53.987  1.00  0.00     0.154 C 
HETATM    4  C   UNL     1     -42.790  55.009 -53.193  1.00  0.00     0.001 C 
HETATM    5  C   UNL     1     -41.577  54.515 -53.496  1.00  0.00    -0.046 C 
HETATM    6  C   UNL     1     -40.835  55.016 -54.710  1.00  0.00     0.059 C 
HETATM    7  C   UNL     1     -41.364  56.380 -55.162  1.00  0.00     0.131 C 
HETATM    8  O   UNL     1     -44.731  57.529 -55.860  1.00  0.00    -0.266 OA
ENDROOT
BRANCH   1   9
HETATM    9  C   UNL     1     -43.012  57.635 -57.421  1.00  0.00     0.147 A 
HETATM   10  N   UNL     1     -43.041  56.791 -58.477  1.00  0.00    -0.142 NA
HETATM   11  N   UNL     1     -42.560  57.210 -59.694  1.00  0.00    -0.124 NA
HETATM   12  C   UNL     1     -42.091  58.470 -59.831  1.00  0.00     0.185 A 
HETATM   13  C   UNL     1     -42.072  59.365 -58.780  1.00  0.00     0.062 A 
HETATM   14  C   UNL     1     -42.548  58.939 -57.543  1.00  0.00     0.043 A 
BRANCH  12  15
HETATM   15  O   UNL     1     -41.606  58.923 -61.040  1.00  0.00    -0.338 OA
HETATM   16  C   UNL     1     -41.976  60.268 -61.322  1.00  0.00     0.211 C 
ENDBRANCH  12  15
ENDBRANCH   1   9
BRANCH   5  17
HETATM   17  C   UNL     1     -40.898  53.529 -52.711  1.00  0.00    -0.002 A 
HETATM   18  C   UNL     1     -40.498  52.210 -53.102  1.00  0.00     0.003 A 
HETATM   19  C   UNL     1     -39.835  51.643 -52.011  1.00  0.00     0.043 A 
HETATM   20  C   UNL     1     -40.636  51.433 -54.274  1.00  0.00     0.014 A 
HETATM   21  C   UNL     1     -39.292  50.352 -52.039  1.00  0.00     0.030 A 
HETATM   22  N   UNL     1     -39.846  52.576 -51.000  1.00  0.00    -0.364 N 
HETATM   23  C   UNL     1     -39.434  49.612 -53.217  1.00  0.00     0.002 A 
HETATM   24  C   UNL     1     -40.099  50.141 -54.319  1.00  0.00     0.001 A 
HETATM   25  H   UNL     1     -39.432  52.435 -50.089  1.00  0.00     0.165 HD
HETATM   26  C   UNL     1     -40.489  53.714 -51.407  1.00  0.00     0.101 A 
ENDBRANCH   5  17
TORSDOF 3
ENDMDL
MODEL 2
REMARK VINA RESULT:      -8.1      4.497      6.501
REMARK  3 active torsions:
REMARK  status: ('A' for Active; 'I' for Inactive)
REMARK    1  A    between atoms: O_2  and  C_3 
REMARK    2  A    between atoms: C_6  and  C_7 
REMARK       I    between atoms: C_7  and  N_8 
REMARK    3  A    between atoms: C_11  and  C_12 
ROOT
HETATM    1  C   UNL     1     -43.076  59.579 -52.162  1.00  0.00     0.274 C 
HETATM    2  N   UNL     1     -42.673  58.239 -52.054  1.00  0.00    -0.343 N 
HETATM    3  C   UNL     1     -41.770  57.776 -53.102  1.00  0.00     0.154 C 
HETATM    4  C   UNL     1     -41.171  56.439 -52.799  1.00  0.00     0.001 C 
HETATM    5  C   UNL     1     -41.490  55.669 -51.744  1.00  0.00    -0.046 C 
HETATM    6  C   UNL     1     -42.538  56.127 -50.759  1.00  0.00     0.059 C 
HETATM    7  C   UNL     1     -43.447  57.196 -51.371  1.00  0.00     0.131 C 
HETATM    8  O   UNL     1     -42.678  60.296 -53.087  1.00  0.00    -0.266 OA
ENDROOT
BRANCH   1   9
HETATM    9  C   UNL     1     -44.005  60.203 -51.180  1.00  0.00     0.147 A 
HETATM   10  N   UNL     1     -45.338  60.089 -51.377  1.00  0.00    -0.142 NA
HETATM   11  N   UNL     1     -46.208  60.627 -50.459  1.00  0.00    -0.124 NA
HETATM   12  C   UNL     1     -45.723  61.238 -49.356  1.00  0.00     0.185 A 
HETATM   13  C   UNL     1     -44.369  61.348 -49.112  1.00  0.00     0.062 A 
HETATM   14  C   UNL     1     -43.486  60.814 -50.046  1.00  0.00     0.043 A 
BRANCH  12  15
HETATM   15  O   UNL     1     -46.570  61.784 -48.413  1.00  0.00    -0.338 OA
HETATM   16  C   UNL     1     -46.036  61.745 -47.093  1.00  0.00     0.211 C 
ENDBRANCH  12  15
ENDBRANCH   1   9
BRANCH   5  17
HETATM   17  C   UNL     1     -40.906  54.388 -51.484  1.00  0.00    -0.002 A 
HETATM   18  C   UNL     1     -40.594  53.352 -52.422  1.00  0.00     0.003 A 
HETATM   19  C   UNL     1     -40.005  52.311 -51.702  1.00  0.00     0.043 A 
HETATM   20  C   UNL     1     -40.757  53.188 -53.816  1.00  0.00     0.014 A 
HETATM   21  C   UNL     1     -39.557  51.128 -52.304  1.00  0.00     0.030 A 
HETATM   22  N   UNL     1     -39.975  52.697 -50.381  1.00  0.00    -0.364 N 
HETATM   23  C   UNL     1     -39.720  50.999 -53.687  1.00  0.00     0.002 A 
HETATM   24  C   UNL     1     -40.315  52.012 -54.434  1.00  0.00     0.001 A 
HETATM   25  H   UNL     1     -39.597  52.136 -49.631  1.00  0.00     0.165 HD
HETATM   26  C   UNL     1     -40.521  53.944 -50.237  1.00  0.00     0.101 A 
ENDBRANCH   5  17
TORSDOF 3
ENDMDL
MODEL 3
REMARK VINA RESULT:      -8.1      1.804      1.894
REMARK  3 active torsions:
REMARK  status: ('A' for Active; 'I' for Inactive)
REMARK    1  A    between atoms: O_2  and  C_3 
REMARK    2  A    between atoms: C_6  and  C_7 
REMARK       I    between atoms: C_7  and  N_8 
REMARK    3  A    between atoms: C_11  and  C_12 
ROOT
HETATM    1  C   UNL     1     -43.492  57.803 -54.623  1.00  0.00     0.274 C 
HETATM    2  N   UNL     1     -42.766  56.817 -53.936  1.00  0.00    -0.343 N 
HETATM    3  C   UNL     1     -43.495  56.144 -52.866  1.00  0.00     0.154 C 
HETATM    4  C   UNL     1     -42.776  54.938 -52.348  1.00  0.00     0.001 C 
HETATM    5  C   UNL     1     -41.544  54.552 -52.722  1.00  0.00    -0.046 C 
HETATM    6  C   UNL     1     -40.767  55.362 -53.730  1.00  0.00     0.059 C 
HETATM    7  C   UNL     1     -41.304  56.793 -53.826  1.00  0.00     0.131 C 
HETATM    8  O   UNL     1     -44.662  58.062 -54.326  1.00  0.00    -0.266 OA
ENDROOT
BRANCH   1   9
HETATM    9  C   UNL     1     -42.890  58.590 -55.734  1.00  0.00     0.147 A 
HETATM   10  N   UNL     1     -42.362  59.806 -55.464  1.00  0.00    -0.142 NA
HETATM   11  N   UNL     1     -41.770  60.528 -56.471  1.00  0.00    -0.124 NA
HETATM   12  C   UNL     1     -41.695  60.005 -57.715  1.00  0.00     0.185 A 
HETATM   13  C   UNL     1     -42.200  58.756 -58.019  1.00  0.00     0.062 A 
HETATM   14  C   UNL     1     -42.811  58.028 -57.002  1.00  0.00     0.043 A 
BRANCH  12  15
HETATM   15  O   UNL     1     -41.102  60.702 -58.748  1.00  0.00    -0.338 OA
HETATM   16  C   UNL     1     -40.821  62.058 -58.418  1.00  0.00     0.211 C 
ENDBRANCH  12  15
ENDBRANCH   1   9
BRANCH   5  17
HETATM   17  C   UNL     1     -40.876  53.398 -52.201  1.00  0.00    -0.002 A 
HETATM   18  C   UNL     1     -40.495  52.206 -52.898  1.00  0.00     0.003 A 
HETATM   19  C   UNL     1     -39.838  51.386 -51.979  1.00  0.00     0.043 A 
HETATM   20  C   UNL     1     -40.646  51.735 -54.221  1.00  0.00     0.014 A 
HETATM   21  C   UNL     1     -39.312  50.132 -52.319  1.00  0.00     0.030 A 
HETATM   22  N   UNL     1     -39.834  52.049 -50.773  1.00  0.00    -0.364 N 
HETATM   23  C   UNL     1     -39.466  49.698 -53.639  1.00  0.00     0.002 A 
HETATM   24  C   UNL     1     -40.127  50.485 -54.578  1.00  0.00     0.001 A 
HETATM   25  H   UNL     1     -39.420  51.689 -49.925  1.00  0.00     0.165 HD
HETATM   26  C   UNL     1     -40.463  53.259 -50.892  1.00  0.00     0.101 A 
ENDBRANCH   5  17
TORSDOF 3
ENDMDL
MODEL 4
REMARK VINA RESULT:      -7.9      2.195      2.438
REMARK  3 active torsions:
REMARK  status: ('A' for Active; 'I' for Inactive)
REMARK    1  A    between atoms: O_2  and  C_3 
REMARK    2  A    between atoms: C_6  and  C_7 
REMARK       I    between atoms: C_7  and  N_8 
REMARK    3  A    between atoms: C_11  and  C_12 
ROOT
HETATM    1  C   UNL     1     -42.834  57.582 -57.765  1.00  0.00     0.274 C 
HETATM    2  N   UNL     1     -42.567  56.852 -56.597  1.00  0.00    -0.343 N 
HETATM    3  C   UNL     1     -42.859  55.425 -56.677  1.00  0.00     0.154 C 
HETATM    4  C   UNL     1     -42.317  54.658 -55.512  1.00  0.00     0.001 C 
HETATM    5  C   UNL     1     -41.720  55.202 -54.438  1.00  0.00    -0.046 C 
HETATM    6  C   UNL     1     -41.567  56.699 -54.331  1.00  0.00     0.059 C 
HETATM    7  C   UNL     1     -42.555  57.427 -55.247  1.00  0.00     0.131 C 
HETATM    8  O   UNL     1     -43.282  57.033 -58.777  1.00  0.00    -0.266 OA
ENDROOT
BRANCH   1   9
HETATM    9  C   UNL     1     -42.601  59.051 -57.845  1.00  0.00     0.147 A 
HETATM   10  N   UNL     1     -41.360  59.531 -57.606  1.00  0.00    -0.142 NA
HETATM   11  N   UNL     1     -41.121  60.879 -57.713  1.00  0.00    -0.124 NA
HETATM   12  C   UNL     1     -42.121  61.709 -58.085  1.00  0.00     0.185 A 
HETATM   13  C   UNL     1     -43.392  61.248 -58.363  1.00  0.00     0.062 A 
HETATM   14  C   UNL     1     -43.639  59.884 -58.244  1.00  0.00     0.043 A 
BRANCH  12  15
HETATM   15  O   UNL     1     -41.912  63.067 -58.207  1.00  0.00    -0.338 OA
HETATM   16  C   UNL     1     -40.639  63.390 -58.756  1.00  0.00     0.211 C 
ENDBRANCH  12  15
ENDBRANCH   1   9
BRANCH   5  17
HETATM   17  C   UNL     1     -41.220  54.443 -53.332  1.00  0.00    -0.002 A 
HETATM   18  C   UNL     1     -40.667  53.121 -53.345  1.00  0.00     0.003 A 
HETATM   19  C   UNL     1     -40.283  52.826 -52.035  1.00  0.00     0.043 A 
HETATM   20  C   UNL     1     -40.457  52.139 -54.338  1.00  0.00     0.014 A 
HETATM   21  C   UNL     1     -39.687  51.610 -51.674  1.00  0.00     0.030 A 
HETATM   22  N   UNL     1     -40.603  53.918 -51.261  1.00  0.00    -0.364 N 
HETATM   23  C   UNL     1     -39.481  50.662 -52.680  1.00  0.00     0.002 A 
HETATM   24  C   UNL     1     -39.863  50.919 -53.994  1.00  0.00     0.001 A 
HETATM   25  H   UNL     1     -40.434  53.983 -50.268  1.00  0.00     0.165 HD
HETATM   26  C   UNL     1     -41.174  54.896 -52.031  1.00  0.00     0.101 A 
ENDBRANCH   5  17
TORSDOF 3
ENDMDL
MODEL 5
REMARK VINA RESULT:      -7.6      4.929      5.802
REMARK  3 active torsions:
REMARK  status: ('A' for Active; 'I' for Inactive)
REMARK    1  A    between atoms: O_2  and  C_3 
REMARK    2  A    between atoms: C_6  and  C_7 
REMARK       I    between atoms: C_7  and  N_8 
REMARK    3  A    between atoms: C_11  and  C_12 
ROOT
HETATM    1  C   UNL     1     -42.833  59.878 -50.924  1.00  0.00     0.274 C 
HETATM    2  N   UNL     1     -42.323  58.585 -51.125  1.00  0.00    -0.343 N 
HETATM    3  C   UNL     1     -40.969  58.369 -50.627  1.00  0.00     0.154 C 
HETATM    4  C   UNL     1     -40.577  56.925 -50.629  1.00  0.00     0.001 C 
HETATM    5  C   UNL     1     -41.319  55.922 -51.130  1.00  0.00    -0.046 C 
HETATM    6  C   UNL     1     -42.656  56.212 -51.767  1.00  0.00     0.059 C 
HETATM    7  C   UNL     1     -42.763  57.679 -52.191  1.00  0.00     0.131 C 
HETATM    8  O   UNL     1     -42.165  60.751 -50.361  1.00  0.00    -0.266 OA
ENDROOT
BRANCH   1   9
HETATM    9  C   UNL     1     -44.195  60.265 -51.383  1.00  0.00     0.147 A 
HETATM   10  N   UNL     1     -45.264  59.910 -50.634  1.00  0.00    -0.142 NA
HETATM   11  N   UNL     1     -46.524  60.294 -51.025  1.00  0.00    -0.124 NA
HETATM   12  C   UNL     1     -46.680  61.046 -52.137  1.00  0.00     0.185 A 
HETATM   13  C   UNL     1     -45.608  61.448 -52.908  1.00  0.00     0.062 A 
HETATM   14  C   UNL     1     -44.332  61.051 -52.521  1.00  0.00     0.043 A 
BRANCH  12  15
HETATM   15  O   UNL     1     -47.931  61.452 -52.554  1.00  0.00    -0.338 OA
HETATM   16  C   UNL     1     -48.153  62.847 -52.379  1.00  0.00     0.211 C 
ENDBRANCH  12  15
ENDBRANCH   1   9
BRANCH   5  17
HETATM   17  C   UNL     1     -40.913  54.550 -51.127  1.00  0.00    -0.002 A 
HETATM   18  C   UNL     1     -40.585  53.721 -52.249  1.00  0.00     0.003 A 
HETATM   19  C   UNL     1     -40.213  52.474 -51.743  1.00  0.00     0.043 A 
HETATM   20  C   UNL     1     -40.573  53.902 -53.650  1.00  0.00     0.014 A 
HETATM   21  C   UNL     1     -39.813  51.410 -52.561  1.00  0.00     0.030 A 
HETATM   22  N   UNL     1     -40.323  52.543 -50.372  1.00  0.00    -0.364 N 
HETATM   23  C   UNL     1     -39.798  51.622 -53.943  1.00  0.00     0.002 A 
HETATM   24  C   UNL     1     -40.176  52.849 -54.483  1.00  0.00     0.001 A 
HETATM   25  H   UNL     1     -40.112  51.781 -49.744  1.00  0.00     0.165 HD
HETATM   26  C   UNL     1     -40.751  53.786 -49.990  1.00  0.00     0.101 A 
ENDBRANCH   5  17
TORSDOF 3
ENDMDL
MODEL 6
REMARK VINA RESULT:      -7.5     15.006     17.554
REMARK  3 active torsions:
REMARK  status: ('A' for Active; 'I' for Inactive)
REMARK    1  A    between atoms: O_2  and  C_3 
REMARK    2  A    between atoms: C_6  and  C_7 
REMARK       I    between atoms: C_7  and  N_8 
REMARK    3  A    between atoms: C_11  and  C_12 
ROOT
HETATM    1  C   UNL     1     -37.499  41.135 -52.884  1.00  0.00     0.274 C 
HETATM    2  N   UNL     1     -37.512  40.847 -54.258  1.00  0.00    -0.343 N 
HETATM    3  C   UNL     1     -38.779  41.107 -54.934  1.00  0.00     0.154 C 
HETATM    4  C   UNL     1     -38.664  41.035 -56.424  1.00  0.00     0.001 C 
HETATM    5  C   UNL     1     -37.561  40.664 -57.098  1.00  0.00    -0.046 C 
HETATM    6  C   UNL     1     -36.313  40.265 -56.350  1.00  0.00     0.059 C 
HETATM    7  C   UNL     1     -36.632  39.868 -54.906  1.00  0.00     0.131 C 
HETATM    8  O   UNL     1     -38.500  41.578 -52.312  1.00  0.00    -0.266 OA
ENDROOT
BRANCH   1   9
HETATM    9  C   UNL     1     -36.288  40.915 -52.046  1.00  0.00     0.147 A 
HETATM   10  N   UNL     1     -36.152  39.741 -51.389  1.00  0.00    -0.142 NA
HETATM   11  N   UNL     1     -35.022  39.508 -50.642  1.00  0.00    -0.124 NA
HETATM   12  C   UNL     1     -34.046  40.442 -50.596  1.00  0.00     0.185 A 
HETATM   13  C   UNL     1     -34.142  41.639 -51.277  1.00  0.00     0.062 A 
HETATM   14  C   UNL     1     -35.290  41.881 -52.024  1.00  0.00     0.043 A 
BRANCH  12  15
HETATM   15  O   UNL     1     -32.897  40.237 -49.860  1.00  0.00    -0.338 OA
HETATM   16  C   UNL     1     -31.766  39.925 -50.666  1.00  0.00     0.211 C 
ENDBRANCH  12  15
ENDBRANCH   1   9
BRANCH   5  17
HETATM   17  C   UNL     1     -37.483  40.595 -58.525  1.00  0.00    -0.002 A 
HETATM   18  C   UNL     1     -37.739  39.468 -59.372  1.00  0.00     0.003 A 
HETATM   19  C   UNL     1     -37.571  39.898 -60.689  1.00  0.00     0.043 A 
HETATM   20  C   UNL     1     -38.092  38.118 -59.152  1.00  0.00     0.014 A 
HETATM   21  C   UNL     1     -37.754  39.056 -61.794  1.00  0.00     0.030 A 
HETATM   22  N   UNL     1     -37.216  41.227 -60.640  1.00  0.00    -0.364 N 
HETATM   23  C   UNL     1     -38.116  37.728 -61.546  1.00  0.00     0.002 A 
HETATM   24  C   UNL     1     -38.279  37.262 -60.244  1.00  0.00     0.001 A 
HETATM   25  H   UNL     1     -37.033  41.800 -61.452  1.00  0.00     0.165 HD
HETATM   26  C   UNL     1     -37.153  41.657 -59.342  1.00  0.00     0.101 A 
ENDBRANCH   5  17
TORSDOF 3
ENDMDL
MODEL 7
REMARK VINA RESULT:      -7.4      3.151      8.863
REMARK  3 active torsions:
REMARK  status: ('A' for Active; 'I' for Inactive)
REMARK    1  A    between atoms: O_2  and  C_3 
REMARK    2  A    between atoms: C_6  and  C_7 
REMARK       I    between atoms: C_7  and  N_8 
REMARK    3  A    between atoms: C_11  and  C_12 
ROOT
HETATM    1  C   UNL     1     -41.032  55.606 -53.825  1.00  0.00     0.274 C 
HETATM    2  N   UNL     1     -41.886  55.893 -54.901  1.00  0.00    -0.343 N 
HETATM    3  C   UNL     1     -42.227  57.302 -55.065  1.00  0.00     0.154 C 
HETATM    4  C   UNL     1     -42.916  57.583 -56.363  1.00  0.00     0.001 C 
HETATM    5  C   UNL     1     -43.297  56.652 -57.254  1.00  0.00    -0.046 C 
HETATM    6  C   UNL     1     -43.051  55.190 -56.976  1.00  0.00     0.059 C 
HETATM    7  C   UNL     1     -42.835  54.936 -55.482  1.00  0.00     0.131 C 
HETATM    8  O   UNL     1     -40.610  56.501 -53.086  1.00  0.00    -0.266 OA
ENDROOT
BRANCH   1   9
HETATM    9  C   UNL     1     -40.598  54.217 -53.515  1.00  0.00     0.147 A 
HETATM   10  N   UNL     1     -40.591  53.806 -52.226  1.00  0.00    -0.142 NA
HETATM   11  N   UNL     1     -40.229  52.514 -51.927  1.00  0.00    -0.124 NA
HETATM   12  C   UNL     1     -39.913  51.660 -52.925  1.00  0.00     0.185 A 
HETATM   13  C   UNL     1     -39.936  52.039 -54.252  1.00  0.00     0.062 A 
HETATM   14  C   UNL     1     -40.291  53.350 -54.556  1.00  0.00     0.043 A 
BRANCH  12  15
HETATM   15  O   UNL     1     -39.551  50.355 -52.659  1.00  0.00    -0.338 OA
HETATM   16  C   UNL     1     -39.461  50.073 -51.266  1.00  0.00     0.211 C 
ENDBRANCH  12  15
ENDBRANCH   1   9
BRANCH   5  17
HETATM   17  C   UNL     1     -43.964  56.950 -58.485  1.00  0.00    -0.002 A 
HETATM   18  C   UNL     1     -45.193  57.660 -58.675  1.00  0.00     0.003 A 
HETATM   19  C   UNL     1     -45.416  57.732 -60.052  1.00  0.00     0.043 A 
HETATM   20  C   UNL     1     -46.147  58.249 -57.815  1.00  0.00     0.014 A 
HETATM   21  C   UNL     1     -46.530  58.373 -60.609  1.00  0.00     0.030 A 
HETATM   22  N   UNL     1     -44.372  57.080 -60.667  1.00  0.00    -0.364 N 
HETATM   23  C   UNL     1     -47.451  58.957 -59.733  1.00  0.00     0.002 A 
HETATM   24  C   UNL     1     -47.266  58.893 -58.355  1.00  0.00     0.001 A 
HETATM   25  H   UNL     1     -44.271  56.979 -61.667  1.00  0.00     0.165 HD
HETATM   26  C   UNL     1     -43.493  56.599 -59.733  1.00  0.00     0.101 A 
ENDBRANCH   5  17
TORSDOF 3
ENDMDL
MODEL 8
REMARK VINA RESULT:      -7.4     15.297     16.958
REMARK  3 active torsions:
REMARK  status: ('A' for Active; 'I' for Inactive)
REMARK    1  A    between atoms: O_2  and  C_3 
REMARK    2  A    between atoms: C_6  and  C_7 
REMARK       I    between atoms: C_7  and  N_8 
REMARK    3  A    between atoms: C_11  and  C_12 
ROOT
HETATM    1  C   UNL     1     -36.888  41.381 -58.726  1.00  0.00     0.274 C 
HETATM    2  N   UNL     1     -35.905  41.066 -57.775  1.00  0.00    -0.343 N 
HETATM    3  C   UNL     1     -35.312  42.211 -57.093  1.00  0.00     0.154 C 
HETATM    4  C   UNL     1     -34.472  41.813 -55.920  1.00  0.00     0.001 C 
HETATM    5  C   UNL     1     -34.182  40.548 -55.569  1.00  0.00    -0.046 C 
HETATM    6  C   UNL     1     -34.702  39.394 -56.391  1.00  0.00     0.059 C 
HETATM    7  C   UNL     1     -35.090  39.846 -57.802  1.00  0.00     0.131 C 
HETATM    8  O   UNL     1     -37.211  42.552 -58.950  1.00  0.00    -0.266 OA
ENDROOT
BRANCH   1   9
HETATM    9  C   UNL     1     -37.583  40.329 -59.517  1.00  0.00     0.147 A 
HETATM   10  N   UNL     1     -37.224  40.136 -60.807  1.00  0.00    -0.142 NA
HETATM   11  N   UNL     1     -37.830  39.144 -61.539  1.00  0.00    -0.124 NA
HETATM   12  C   UNL     1     -38.756  38.351 -60.955  1.00  0.00     0.185 A 
HETATM   13  C   UNL     1     -39.125  38.504 -59.634  1.00  0.00     0.062 A 
HETATM   14  C   UNL     1     -38.521  39.516 -58.894  1.00  0.00     0.043 A 
BRANCH  12  15
HETATM   15  O   UNL     1     -39.378  37.343 -61.661  1.00  0.00    -0.338 OA
HETATM   16  C   UNL     1     -40.351  37.824 -62.583  1.00  0.00     0.211 C 
ENDBRANCH  12  15
ENDBRANCH   1   9
BRANCH   5  17
HETATM   17  C   UNL     1     -33.367  40.198 -54.446  1.00  0.00    -0.002 A 
HETATM   18  C   UNL     1     -33.618  40.449 -53.058  1.00  0.00     0.003 A 
HETATM   19  C   UNL     1     -32.560  39.886 -52.342  1.00  0.00     0.043 A 
HETATM   20  C   UNL     1     -34.638  41.105 -52.333  1.00  0.00     0.014 A 
HETATM   21  C   UNL     1     -32.479  39.931 -50.944  1.00  0.00     0.030 A 
HETATM   22  N   UNL     1     -31.699  39.330 -53.260  1.00  0.00    -0.364 N 
HETATM   23  C   UNL     1     -33.510  40.576 -50.253  1.00  0.00     0.002 A 
HETATM   24  C   UNL     1     -34.574  41.159 -50.936  1.00  0.00     0.001 A 
HETATM   25  H   UNL     1     -30.843  38.849 -53.021  1.00  0.00     0.165 HD
HETATM   26  C   UNL     1     -32.171  39.517 -54.531  1.00  0.00     0.101 A 
ENDBRANCH   5  17
TORSDOF 3
ENDMDL
MODEL 9
REMARK VINA RESULT:      -7.3      2.260      2.950
REMARK  3 active torsions:
REMARK  status: ('A' for Active; 'I' for Inactive)
REMARK    1  A    between atoms: O_2  and  C_3 
REMARK    2  A    between atoms: C_6  and  C_7 
REMARK       I    between atoms: C_7  and  N_8 
REMARK    3  A    between atoms: C_11  and  C_12 
ROOT
HETATM    1  C   UNL     1     -43.185  57.407 -56.683  1.00  0.00     0.274 C 
HETATM    2  N   UNL     1     -42.773  56.462 -55.730  1.00  0.00    -0.343 N 
HETATM    3  C   UNL     1     -42.586  55.108 -56.239  1.00  0.00     0.154 C 
HETATM    4  C   UNL     1     -41.903  54.211 -55.256  1.00  0.00     0.001 C 
HETATM    5  C   UNL     1     -41.583  54.546 -53.994  1.00  0.00    -0.046 C 
HETATM    6  C   UNL     1     -41.926  55.916 -53.463  1.00  0.00     0.059 C 
HETATM    7  C   UNL     1     -43.034  56.573 -54.290  1.00  0.00     0.131 C 
HETATM    8  O   UNL     1     -43.367  57.090 -57.863  1.00  0.00    -0.266 OA
ENDROOT
BRANCH   1   9
HETATM    9  C   UNL     1     -43.432  58.830 -56.324  1.00  0.00     0.147 A 
HETATM   10  N   UNL     1     -44.703  59.241 -56.111  1.00  0.00    -0.142 NA
HETATM   11  N   UNL     1     -44.943  60.542 -55.742  1.00  0.00    -0.124 NA
HETATM   12  C   UNL     1     -43.906  61.391 -55.567  1.00  0.00     0.185 A 
HETATM   13  C   UNL     1     -42.595  60.997 -55.749  1.00  0.00     0.062 A 
HETATM   14  C   UNL     1     -42.350  59.682 -56.135  1.00  0.00     0.043 A 
BRANCH  12  15
HETATM   15  O   UNL     1     -44.113  62.702 -55.191  1.00  0.00    -0.338 OA
HETATM   16  C   UNL     1     -43.595  63.640 -56.129  1.00  0.00     0.211 C 
ENDBRANCH  12  15
ENDBRANCH   1   9
BRANCH   5  17
HETATM   17  C   UNL     1     -40.937  53.662 -53.072  1.00  0.00    -0.002 A 
HETATM   18  C   UNL     1     -40.531  52.305 -53.284  1.00  0.00     0.003 A 
HETATM   19  C   UNL     1     -39.911  51.874 -52.109  1.00  0.00     0.043 A 
HETATM   20  C   UNL     1     -40.632  51.391 -54.357  1.00  0.00     0.014 A 
HETATM   21  C   UNL     1     -39.374  50.589 -51.960  1.00  0.00     0.030 A 
HETATM   22  N   UNL     1     -39.953  52.924 -51.220  1.00  0.00    -0.364 N 
HETATM   23  C   UNL     1     -39.478  49.711 -53.043  1.00  0.00     0.002 A 
HETATM   24  C   UNL     1     -40.101  50.103 -54.225  1.00  0.00     0.001 A 
HETATM   25  H   UNL     1     -39.573  52.895 -50.285  1.00  0.00     0.165 HD
HETATM   26  C   UNL     1     -40.575  54.004 -51.786  1.00  0.00     0.101 A 
ENDBRANCH   5  17
TORSDOF 3
ENDMDL
MODEL 10
REMARK VINA RESULT:      -7.3     15.456     18.476
REMARK  3 active torsions:
REMARK  status: ('A' for Active; 'I' for Inactive)
REMARK    1  A    between atoms: O_2  and  C_3 
REMARK    2  A    between atoms: C_6  and  C_7 
REMARK       I    between atoms: C_7  and  N_8 
REMARK    3  A    between atoms: C_11  and  C_12 
ROOT
HETATM    1  C   UNL     1     -35.156  41.678 -57.016  1.00  0.00     0.274 C 
HETATM    2  N   UNL     1     -35.902  40.971 -57.972  1.00  0.00    -0.343 N 
HETATM    3  C   UNL     1     -36.804  41.785 -58.779  1.00  0.00     0.154 C 
HETATM    4  C   UNL     1     -37.372  41.036 -59.944  1.00  0.00     0.001 C 
HETATM    5  C   UNL     1     -37.184  39.728 -60.188  1.00  0.00    -0.046 C 
HETATM    6  C   UNL     1     -36.356  38.890 -59.245  1.00  0.00     0.059 C 
HETATM    7  C   UNL     1     -36.246  39.549 -57.867  1.00  0.00     0.131 C 
HETATM    8  O   UNL     1     -35.272  42.900 -56.887  1.00  0.00    -0.266 OA
ENDROOT
BRANCH   1   9
HETATM    9  C   UNL     1     -34.198  40.994 -56.104  1.00  0.00     0.147 A 
HETATM   10  N   UNL     1     -32.956  40.705 -56.556  1.00  0.00    -0.142 NA
HETATM   11  N   UNL     1     -32.049  40.109 -55.715  1.00  0.00    -0.124 NA
HETATM   12  C   UNL     1     -32.396  39.844 -54.436  1.00  0.00     0.185 A 
HETATM   13  C   UNL     1     -33.645  40.150 -53.935  1.00  0.00     0.062 A 
HETATM   14  C   UNL     1     -34.570  40.744 -54.789  1.00  0.00     0.043 A 
BRANCH  12  15
HETATM   15  O   UNL     1     -31.506  39.251 -53.564  1.00  0.00    -0.338 OA
HETATM   16  C   UNL     1     -31.926  39.317 -52.205  1.00  0.00     0.211 C 
ENDBRANCH  12  15
ENDBRANCH   1   9
BRANCH   5  17
HETATM   17  C   UNL     1     -37.748  39.035 -61.306  1.00  0.00    -0.002 A 
HETATM   18  C   UNL     1     -39.022  38.385 -61.393  1.00  0.00     0.003 A 
HETATM   19  C   UNL     1     -39.140  37.887 -62.692  1.00  0.00     0.043 A 
HETATM   20  C   UNL     1     -40.090  38.162 -60.496  1.00  0.00     0.014 A 
HETATM   21  C   UNL     1     -40.274  37.197 -63.142  1.00  0.00     0.030 A 
HETATM   22  N   UNL     1     -37.980  38.211 -63.359  1.00  0.00    -0.364 N 
HETATM   23  C   UNL     1     -41.319  37.003 -62.234  1.00  0.00     0.002 A 
HETATM   24  C   UNL     1     -41.230  37.475 -60.928  1.00  0.00     0.001 A 
HETATM   25  H   UNL     1     -37.791  37.977 -64.323  1.00  0.00     0.165 HD
HETATM   26  C   UNL     1     -37.131  38.897 -62.532  1.00  0.00     0.101 A 
ENDBRANCH   5  17
TORSDOF 3
ENDMDL
