MODEL 1
REMARK VINA RESULT:      -9.9      0.000      0.000
REMARK  4 active torsions:
REMARK  status: ('A' for Active; 'I' for Inactive)
REMARK    1  A    between atoms: C_2  and  C_3 
REMARK    2  A    between atoms: C_11  and  N_12 
REMARK       I    between atoms: N_12  and  C_13 
REMARK    3  A    between atoms: C_13  and  C_14 
REMARK    4  A    between atoms: C_16  and  C_17 
ROOT
HETATM    1  C   UNL     1     -44.796  58.776 -53.448  1.00  0.00     0.032 A 
HETATM    2  C   UNL     1     -44.557  57.932 -54.544  1.00  0.00     0.029 A 
HETATM    3  C   UNL     1     -44.714  58.382 -55.867  1.00  0.00    -0.024 A 
HETATM    4  C   UNL     1     -45.125  59.714 -56.055  1.00  0.00     0.012 A 
HETATM    5  C   UNL     1     -45.364  60.562 -54.969  1.00  0.00     0.002 A 
HETATM    6  C   UNL     1     -45.194  60.097 -53.666  1.00  0.00     0.017 A 
ENDROOT
BRANCH   1   7
HETATM    7  C   UNL     1     -44.556  58.237 -52.079  1.00  0.00     0.252 C 
HETATM    8  N   UNL     1     -43.636  57.214 -51.971  1.00  0.00    -0.352 N 
HETATM    9  H   UNL     1     -43.006  57.056 -52.747  1.00  0.00     0.163 HD
HETATM   10  O   UNL     1     -45.155  58.715 -51.122  1.00  0.00    -0.268 OA
BRANCH   8  11
HETATM   11  C   UNL     1     -43.277  56.648 -50.675  1.00  0.00     0.084 C 
HETATM   12  C   UNL     1     -43.843  55.238 -50.523  1.00  0.00     0.026 C 
HETATM   13  C   UNL     1     -43.128  54.204 -51.395  1.00  0.00     0.016 C 
HETATM   14  C   UNL     1     -41.578  54.169 -51.239  1.00  0.00    -0.017 C 
HETATM   15  C   UNL     1     -41.211  53.574 -49.860  1.00  0.00     0.020 C 
HETATM   16  C   UNL     1     -41.041  55.629 -51.344  1.00  0.00     0.016 C 
HETATM   17  C   UNL     1     -41.765  56.647 -50.460  1.00  0.00     0.026 C 
BRANCH  14  18
HETATM   18  C   UNL     1     -40.921  53.254 -52.304  1.00  0.00    -0.050 A 
HETATM   19  C   UNL     1     -41.291  53.315 -53.661  1.00  0.00     0.008 A 
HETATM   20  C   UNL     1     -40.713  52.472 -54.618  1.00  0.00     0.001 A 
HETATM   21  C   UNL     1     -39.759  51.535 -54.239  1.00  0.00     0.000 A 
HETATM   22  C   UNL     1     -39.392  51.435 -52.902  1.00  0.00     0.001 A 
HETATM   23  C   UNL     1     -39.971  52.277 -51.947  1.00  0.00     0.008 A 
ENDBRANCH  14  18
ENDBRANCH   8  11
ENDBRANCH   1   7
BRANCH   3  24
HETATM   24  C   UNL     1     -44.437  57.495 -57.015  1.00  0.00    -0.006 A 
HETATM   25  C   UNL     1     -43.265  56.702 -57.073  1.00  0.00     0.131 A 
HETATM   26  N   UNL     1     -42.926  55.847 -58.078  1.00  0.00    -0.240 NA
HETATM   27  C   UNL     1     -43.816  55.810 -59.068  1.00  0.00     0.158 A 
HETATM   28  C   UNL     1     -44.994  56.545 -59.125  1.00  0.00     0.085 A 
HETATM   29  N   UNL     1     -43.739  55.039 -60.216  1.00  0.00    -0.291 N 
HETATM   30  N   UNL     1     -45.644  56.231 -60.322  1.00  0.00    -0.300 N 
HETATM   31  C   UNL     1     -45.330  57.398 -58.099  1.00  0.00     0.047 A 
HETATM   32  C   UNL     1     -46.892  56.781 -60.764  1.00  0.00     0.161 C 
HETATM   33  C   UNL     1     -44.864  55.284 -61.012  1.00  0.00     0.328 A 
HETATM   34  O   UNL     1     -45.101  54.765 -62.090  1.00  0.00    -0.247 OA
HETATM   35  H   UNL     1     -42.992  54.407 -60.439  1.00  0.00     0.172 HD
ENDBRANCH   3  24
TORSDOF 4
ENDMDL
MODEL 2
REMARK VINA RESULT:      -9.9      3.400      7.970
REMARK  4 active torsions:
REMARK  status: ('A' for Active; 'I' for Inactive)
REMARK    1  A    between atoms: C_2  and  C_3 
REMARK    2  A    between atoms: C_11  and  N_12 
REMARK       I    between atoms: N_12  and  C_13 
REMARK    3  A    between atoms: C_13  and  C_14 
REMARK    4  A    between atoms: C_16  and  C_17 
ROOT
HETATM    1  C   UNL     1     -41.642  58.359 -53.004  1.00  0.00     0.032 A 
HETATM    2  C   UNL     1     -41.308  57.083 -53.485  1.00  0.00     0.029 A 
HETATM    3  C   UNL     1     -41.117  55.996 -52.613  1.00  0.00    -0.024 A 
HETATM    4  C   UNL     1     -41.269  56.234 -51.235  1.00  0.00     0.012 A 
HETATM    5  C   UNL     1     -41.604  57.502 -50.748  1.00  0.00     0.002 A 
HETATM    6  C   UNL     1     -41.797  58.563 -51.631  1.00  0.00     0.017 A 
ENDROOT
BRANCH   1   7
HETATM    7  C   UNL     1     -41.879  59.445 -53.997  1.00  0.00     0.252 C 
HETATM    8  N   UNL     1     -42.125  59.050 -55.297  1.00  0.00    -0.352 N 
HETATM    9  H   UNL     1     -42.376  58.084 -55.462  1.00  0.00     0.163 HD
HETATM   10  O   UNL     1     -41.863  60.616 -53.635  1.00  0.00    -0.268 OA
BRANCH   8  11
HETATM   11  C   UNL     1     -42.427  60.022 -56.342  1.00  0.00     0.084 C 
HETATM   12  C   UNL     1     -41.678  59.686 -57.630  1.00  0.00     0.026 C 
HETATM   13  C   UNL     1     -42.230  58.449 -58.343  1.00  0.00     0.016 C 
HETATM   14  C   UNL     1     -43.764  58.477 -58.618  1.00  0.00    -0.017 C 
HETATM   15  C   UNL     1     -44.073  59.514 -59.721  1.00  0.00     0.020 C 
HETATM   16  C   UNL     1     -44.492  58.877 -57.299  1.00  0.00     0.016 C 
HETATM   17  C   UNL     1     -43.929  60.119 -56.603  1.00  0.00     0.026 C 
BRANCH  14  18
HETATM   18  C   UNL     1     -44.270  57.108 -59.143  1.00  0.00    -0.050 A 
HETATM   19  C   UNL     1     -43.574  55.913 -58.882  1.00  0.00     0.008 A 
HETATM   20  C   UNL     1     -44.021  54.682 -59.377  1.00  0.00     0.001 A 
HETATM   21  C   UNL     1     -45.168  54.617 -60.158  1.00  0.00     0.000 A 
HETATM   22  C   UNL     1     -45.863  55.784 -60.452  1.00  0.00     0.001 A 
HETATM   23  C   UNL     1     -45.415  57.014 -59.959  1.00  0.00     0.008 A 
ENDBRANCH  14  18
ENDBRANCH   8  11
ENDBRANCH   1   7
BRANCH   3  24
HETATM   24  C   UNL     1     -40.788  54.652 -53.128  1.00  0.00    -0.006 A 
HETATM   25  C   UNL     1     -40.750  54.379 -54.517  1.00  0.00     0.131 A 
HETATM   26  N   UNL     1     -40.448  53.181 -55.090  1.00  0.00    -0.240 NA
HETATM   27  C   UNL     1     -40.186  52.219 -54.207  1.00  0.00     0.158 A 
HETATM   28  C   UNL     1     -40.200  52.365 -52.825  1.00  0.00     0.085 A 
HETATM   29  N   UNL     1     -39.852  50.906 -54.493  1.00  0.00    -0.291 N 
HETATM   30  N   UNL     1     -39.880  51.129 -52.254  1.00  0.00    -0.300 N 
HETATM   31  C   UNL     1     -40.498  53.583 -52.258  1.00  0.00     0.047 A 
HETATM   32  C   UNL     1     -39.794  50.855 -50.850  1.00  0.00     0.161 C 
HETATM   33  C   UNL     1     -39.657  50.208 -53.296  1.00  0.00     0.328 A 
HETATM   34  O   UNL     1     -39.353  49.031 -53.198  1.00  0.00    -0.247 OA
HETATM   35  H   UNL     1     -39.765  50.520 -55.416  1.00  0.00     0.172 HD
ENDBRANCH   3  24
TORSDOF 4
ENDMDL
MODEL 3
REMARK VINA RESULT:      -9.5      2.775      4.499
REMARK  4 active torsions:
REMARK  status: ('A' for Active; 'I' for Inactive)
REMARK    1  A    between atoms: C_2  and  C_3 
REMARK    2  A    between atoms: C_11  and  N_12 
REMARK       I    between atoms: N_12  and  C_13 
REMARK    3  A    between atoms: C_13  and  C_14 
REMARK    4  A    between atoms: C_16  and  C_17 
ROOT
HETATM    1  C   UNL     1     -43.947  56.966 -57.796  1.00  0.00     0.032 A 
HETATM    2  C   UNL     1     -45.099  57.271 -58.539  1.00  0.00     0.029 A 
HETATM    3  C   UNL     1     -45.235  56.871 -59.881  1.00  0.00    -0.024 A 
HETATM    4  C   UNL     1     -44.170  56.155 -60.456  1.00  0.00     0.012 A 
HETATM    5  C   UNL     1     -43.020  55.846 -59.722  1.00  0.00     0.002 A 
HETATM    6  C   UNL     1     -42.910  56.244 -58.391  1.00  0.00     0.017 A 
ENDROOT
BRANCH   1   7
HETATM    7  C   UNL     1     -43.904  57.380 -56.365  1.00  0.00     0.252 C 
HETATM    8  N   UNL     1     -43.025  56.694 -55.550  1.00  0.00    -0.352 N 
HETATM    9  H   UNL     1     -42.300  56.143 -55.989  1.00  0.00     0.163 HD
HETATM   10  O   UNL     1     -44.617  58.298 -55.974  1.00  0.00    -0.268 OA
BRANCH   8  11
HETATM   11  C   UNL     1     -42.855  57.051 -54.146  1.00  0.00     0.084 C 
HETATM   12  C   UNL     1     -43.589  56.063 -53.242  1.00  0.00     0.026 C 
HETATM   13  C   UNL     1     -42.917  54.689 -53.180  1.00  0.00     0.016 C 
HETATM   14  C   UNL     1     -41.402  54.713 -52.815  1.00  0.00    -0.017 C 
HETATM   15  C   UNL     1     -41.234  55.099 -51.327  1.00  0.00     0.020 C 
HETATM   16  C   UNL     1     -40.696  55.770 -53.717  1.00  0.00     0.016 C 
HETATM   17  C   UNL     1     -41.380  57.139 -53.762  1.00  0.00     0.026 C 
BRANCH  14  18
HETATM   18  C   UNL     1     -40.756  53.313 -52.984  1.00  0.00    -0.050 A 
HETATM   19  C   UNL     1     -40.864  52.590 -54.187  1.00  0.00     0.008 A 
HETATM   20  C   UNL     1     -40.300  51.317 -54.330  1.00  0.00     0.001 A 
HETATM   21  C   UNL     1     -39.624  50.728 -53.268  1.00  0.00     0.000 A 
HETATM   22  C   UNL     1     -39.522  51.409 -52.061  1.00  0.00     0.001 A 
HETATM   23  C   UNL     1     -40.088  52.680 -51.919  1.00  0.00     0.008 A 
ENDBRANCH  14  18
ENDBRANCH   8  11
ENDBRANCH   1   7
BRANCH   3  24
HETATM   24  C   UNL     1     -46.459  57.175 -60.649  1.00  0.00    -0.006 A 
HETATM   25  C   UNL     1     -47.141  56.175 -61.384  1.00  0.00     0.131 A 
HETATM   26  N   UNL     1     -48.280  56.352 -62.111  1.00  0.00    -0.240 NA
HETATM   27  C   UNL     1     -48.731  57.605 -62.096  1.00  0.00     0.158 A 
HETATM   28  C   UNL     1     -48.145  58.668 -61.420  1.00  0.00     0.085 A 
HETATM   29  N   UNL     1     -49.860  58.082 -62.742  1.00  0.00    -0.291 N 
HETATM   30  N   UNL     1     -48.914  59.811 -61.659  1.00  0.00    -0.300 N 
HETATM   31  C   UNL     1     -47.001  58.475 -60.681  1.00  0.00     0.047 A 
HETATM   32  C   UNL     1     -48.644  61.122 -61.144  1.00  0.00     0.161 C 
HETATM   33  C   UNL     1     -49.995  59.451 -62.486  1.00  0.00     0.328 A 
HETATM   34  O   UNL     1     -50.884  60.171 -62.907  1.00  0.00    -0.247 OA
HETATM   35  H   UNL     1     -50.480  57.528 -63.305  1.00  0.00     0.172 HD
ENDBRANCH   3  24
TORSDOF 4
ENDMDL
MODEL 4
REMARK VINA RESULT:      -9.0      4.602      8.953
REMARK  4 active torsions:
REMARK  status: ('A' for Active; 'I' for Inactive)
REMARK    1  A    between atoms: C_2  and  C_3 
REMARK    2  A    between atoms: C_11  and  N_12 
REMARK       I    between atoms: N_12  and  C_13 
REMARK    3  A    between atoms: C_13  and  C_14 
REMARK    4  A    between atoms: C_16  and  C_17 
ROOT
HETATM    1  C   UNL     1     -43.444  59.455 -51.892  1.00  0.00     0.032 A 
HETATM    2  C   UNL     1     -44.426  60.112 -51.133  1.00  0.00     0.029 A 
HETATM    3  C   UNL     1     -44.087  60.918 -50.031  1.00  0.00    -0.024 A 
HETATM    4  C   UNL     1     -42.723  61.040 -49.711  1.00  0.00     0.012 A 
HETATM    5  C   UNL     1     -41.738  60.391 -50.463  1.00  0.00     0.002 A 
HETATM    6  C   UNL     1     -42.096  59.604 -51.557  1.00  0.00     0.017 A 
ENDROOT
BRANCH   1   7
HETATM    7  C   UNL     1     -43.883  58.663 -53.075  1.00  0.00     0.252 C 
HETATM    8  N   UNL     1     -42.958  57.789 -53.610  1.00  0.00    -0.352 N 
HETATM    9  H   UNL     1     -42.151  57.547 -53.050  1.00  0.00     0.163 HD
HETATM   10  O   UNL     1     -45.021  58.799 -53.512  1.00  0.00    -0.268 OA
BRANCH   8  11
HETATM   11  C   UNL     1     -43.294  56.920 -54.733  1.00  0.00     0.084 C 
HETATM   12  C   UNL     1     -42.036  56.486 -55.481  1.00  0.00     0.026 C 
HETATM   13  C   UNL     1     -41.187  55.480 -54.699  1.00  0.00     0.016 C 
HETATM   14  C   UNL     1     -41.957  54.224 -54.190  1.00  0.00    -0.017 C 
HETATM   15  C   UNL     1     -42.314  53.316 -55.389  1.00  0.00     0.020 C 
HETATM   16  C   UNL     1     -43.262  54.702 -53.483  1.00  0.00     0.016 C 
HETATM   17  C   UNL     1     -44.099  55.703 -54.282  1.00  0.00     0.026 C 
BRANCH  14  18
HETATM   18  C   UNL     1     -41.082  53.372 -53.235  1.00  0.00    -0.050 A 
HETATM   19  C   UNL     1     -40.298  52.302 -53.707  1.00  0.00     0.008 A 
HETATM   20  C   UNL     1     -39.528  51.520 -52.839  1.00  0.00     0.001 A 
HETATM   21  C   UNL     1     -39.532  51.778 -51.474  1.00  0.00     0.000 A 
HETATM   22  C   UNL     1     -40.315  52.813 -50.976  1.00  0.00     0.001 A 
HETATM   23  C   UNL     1     -41.085  53.594 -51.844  1.00  0.00     0.008 A 
ENDBRANCH  14  18
ENDBRANCH   8  11
ENDBRANCH   1   7
BRANCH   3  24
HETATM   24  C   UNL     1     -45.125  61.624 -49.252  1.00  0.00    -0.006 A 
HETATM   25  C   UNL     1     -46.364  61.989 -49.830  1.00  0.00     0.131 A 
HETATM   26  N   UNL     1     -47.386  62.630 -49.196  1.00  0.00    -0.240 NA
HETATM   27  C   UNL     1     -47.124  62.918 -47.922  1.00  0.00     0.158 A 
HETATM   28  C   UNL     1     -45.945  62.618 -47.251  1.00  0.00     0.085 A 
HETATM   29  N   UNL     1     -47.968  63.563 -47.033  1.00  0.00    -0.291 N 
HETATM   30  N   UNL     1     -46.059  63.090 -45.940  1.00  0.00    -0.300 N 
HETATM   31  C   UNL     1     -44.924  61.962 -47.900  1.00  0.00     0.047 A 
HETATM   32  C   UNL     1     -45.055  62.982 -44.923  1.00  0.00     0.161 C 
HETATM   33  C   UNL     1     -47.329  63.683 -45.794  1.00  0.00     0.328 A 
HETATM   34  O   UNL     1     -47.799  64.202 -44.796  1.00  0.00    -0.247 OA
HETATM   35  H   UNL     1     -48.891  63.893 -47.249  1.00  0.00     0.172 HD
ENDBRANCH   3  24
TORSDOF 4
ENDMDL
MODEL 5
REMARK VINA RESULT:      -8.9      1.490      2.117
REMARK  4 active torsions:
REMARK  status: ('A' for Active; 'I' for Inactive)
REMARK    1  A    between atoms: C_2  and  C_3 
REMARK    2  A    between atoms: C_11  and  N_12 
REMARK       I    between atoms: N_12  and  C_13 
REMARK    3  A    between atoms: C_13  and  C_14 
REMARK    4  A    between atoms: C_16  and  C_17 
ROOT
HETATM    1  C   UNL     1     -44.157  60.520 -54.136  1.00  0.00     0.032 A 
HETATM    2  C   UNL     1     -44.564  59.553 -55.069  1.00  0.00     0.029 A 
HETATM    3  C   UNL     1     -44.816  59.887 -56.413  1.00  0.00    -0.024 A 
HETATM    4  C   UNL     1     -44.649  61.231 -56.789  1.00  0.00     0.012 A 
HETATM    5  C   UNL     1     -44.242  62.201 -55.867  1.00  0.00     0.002 A 
HETATM    6  C   UNL     1     -43.990  61.846 -54.543  1.00  0.00     0.017 A 
ENDROOT
BRANCH   1   7
HETATM    7  C   UNL     1     -43.859  60.075 -52.746  1.00  0.00     0.252 C 
HETATM    8  N   UNL     1     -43.770  58.712 -52.540  1.00  0.00    -0.352 N 
HETATM    9  H   UNL     1     -43.660  58.114 -53.348  1.00  0.00     0.163 HD
HETATM   10  O   UNL     1     -43.695  60.907 -51.861  1.00  0.00    -0.268 OA
BRANCH   8  11
HETATM   11  C   UNL     1     -43.426  58.163 -51.233  1.00  0.00     0.084 C 
HETATM   12  C   UNL     1     -44.030  56.772 -51.052  1.00  0.00     0.026 C 
HETATM   13  C   UNL     1     -43.343  55.702 -51.904  1.00  0.00     0.016 C 
HETATM   14  C   UNL     1     -41.794  55.629 -51.747  1.00  0.00    -0.017 C 
HETATM   15  C   UNL     1     -41.442  55.052 -50.357  1.00  0.00     0.020 C 
HETATM   16  C   UNL     1     -41.218  57.071 -51.881  1.00  0.00     0.016 C 
HETATM   17  C   UNL     1     -41.915  58.126 -51.017  1.00  0.00     0.026 C 
BRANCH  14  18
HETATM   18  C   UNL     1     -41.162  54.675 -52.794  1.00  0.00    -0.050 A 
HETATM   19  C   UNL     1     -40.788  55.126 -54.075  1.00  0.00     0.008 A 
HETATM   20  C   UNL     1     -40.239  54.259 -55.026  1.00  0.00     0.001 A 
HETATM   21  C   UNL     1     -40.062  52.913 -54.726  1.00  0.00     0.000 A 
HETATM   22  C   UNL     1     -40.444  52.435 -53.478  1.00  0.00     0.001 A 
HETATM   23  C   UNL     1     -40.994  53.302 -52.529  1.00  0.00     0.008 A 
ENDBRANCH  14  18
ENDBRANCH   8  11
ENDBRANCH   1   7
BRANCH   3  24
HETATM   24  C   UNL     1     -45.221  58.859 -57.392  1.00  0.00    -0.006 A 
HETATM   25  C   UNL     1     -46.585  58.564 -57.636  1.00  0.00     0.131 A 
HETATM   26  N   UNL     1     -47.060  57.646 -58.524  1.00  0.00    -0.240 NA
HETATM   27  C   UNL     1     -46.101  56.995 -59.180  1.00  0.00     0.158 A 
HETATM   28  C   UNL     1     -44.734  57.192 -59.020  1.00  0.00     0.085 A 
HETATM   29  N   UNL     1     -46.280  56.010 -60.137  1.00  0.00    -0.291 N 
HETATM   30  N   UNL     1     -44.066  56.315 -59.880  1.00  0.00    -0.300 N 
HETATM   31  C   UNL     1     -44.268  58.129 -58.128  1.00  0.00     0.047 A 
HETATM   32  C   UNL     1     -42.643  56.201 -60.015  1.00  0.00     0.161 C 
HETATM   33  C   UNL     1     -45.030  55.571 -60.587  1.00  0.00     0.328 A 
HETATM   34  O   UNL     1     -44.837  54.711 -61.429  1.00  0.00    -0.247 OA
HETATM   35  H   UNL     1     -47.169  55.667 -60.453  1.00  0.00     0.172 HD
ENDBRANCH   3  24
TORSDOF 4
ENDMDL
MODEL 6
REMARK VINA RESULT:      -8.9      1.804      2.558
REMARK  4 active torsions:
REMARK  status: ('A' for Active; 'I' for Inactive)
REMARK    1  A    between atoms: C_2  and  C_3 
REMARK    2  A    between atoms: C_11  and  N_12 
REMARK       I    between atoms: N_12  and  C_13 
REMARK    3  A    between atoms: C_13  and  C_14 
REMARK    4  A    between atoms: C_16  and  C_17 
ROOT
HETATM    1  C   UNL     1     -42.480  57.920 -52.767  1.00  0.00     0.032 A 
HETATM    2  C   UNL     1     -43.363  57.676 -53.831  1.00  0.00     0.029 A 
HETATM    3  C   UNL     1     -43.300  58.421 -55.023  1.00  0.00    -0.024 A 
HETATM    4  C   UNL     1     -42.320  59.426 -55.110  1.00  0.00     0.012 A 
HETATM    5  C   UNL     1     -41.436  59.673 -54.056  1.00  0.00     0.002 A 
HETATM    6  C   UNL     1     -41.509  58.918 -52.886  1.00  0.00     0.017 A 
ENDROOT
BRANCH   1   7
HETATM    7  C   UNL     1     -42.577  57.052 -51.560  1.00  0.00     0.252 C 
HETATM    8  N   UNL     1     -41.427  56.388 -51.181  1.00  0.00    -0.352 N 
HETATM    9  H   UNL     1     -40.547  56.703 -51.567  1.00  0.00     0.163 HD
HETATM   10  O   UNL     1     -43.640  56.969 -50.952  1.00  0.00    -0.268 OA
BRANCH   8  11
HETATM   11  C   UNL     1     -41.389  55.557 -49.983  1.00  0.00     0.084 C 
HETATM   12  C   UNL     1     -42.418  54.431 -50.069  1.00  0.00     0.026 C 
HETATM   13  C   UNL     1     -42.038  53.344 -51.077  1.00  0.00     0.016 C 
HETATM   14  C   UNL     1     -40.612  52.742 -50.891  1.00  0.00    -0.017 C 
HETATM   15  C   UNL     1     -40.582  51.869 -49.616  1.00  0.00     0.020 C 
HETATM   16  C   UNL     1     -39.598  53.917 -50.751  1.00  0.00     0.016 C 
HETATM   17  C   UNL     1     -39.993  54.992 -49.734  1.00  0.00     0.026 C 
BRANCH  14  18
HETATM   18  C   UNL     1     -40.231  51.812 -52.072  1.00  0.00    -0.050 A 
HETATM   19  C   UNL     1     -39.734  50.512 -51.859  1.00  0.00     0.008 A 
HETATM   20  C   UNL     1     -39.368  49.683 -52.925  1.00  0.00     0.001 A 
HETATM   21  C   UNL     1     -39.478  50.137 -54.234  1.00  0.00     0.000 A 
HETATM   22  C   UNL     1     -39.943  51.425 -54.474  1.00  0.00     0.001 A 
HETATM   23  C   UNL     1     -40.306  52.253 -53.407  1.00  0.00     0.008 A 
ENDBRANCH  14  18
ENDBRANCH   8  11
ENDBRANCH   1   7
BRANCH   3  24
HETATM   24  C   UNL     1     -44.218  58.143 -56.146  1.00  0.00    -0.006 A 
HETATM   25  C   UNL     1     -45.509  58.721 -56.209  1.00  0.00     0.131 A 
HETATM   26  N   UNL     1     -46.422  58.537 -57.204  1.00  0.00    -0.240 NA
HETATM   27  C   UNL     1     -46.000  57.720 -58.168  1.00  0.00     0.158 A 
HETATM   28  C   UNL     1     -44.762  57.091 -58.211  1.00  0.00     0.085 A 
HETATM   29  N   UNL     1     -46.707  57.347 -59.299  1.00  0.00    -0.291 N 
HETATM   30  N   UNL     1     -44.708  56.317 -59.374  1.00  0.00    -0.300 N 
HETATM   31  C   UNL     1     -43.846  57.292 -57.205  1.00  0.00     0.047 A 
HETATM   32  C   UNL     1     -43.601  55.507 -59.788  1.00  0.00     0.161 C 
HETATM   33  C   UNL     1     -45.926  56.475 -60.065  1.00  0.00     0.328 A 
HETATM   34  O   UNL     1     -46.255  55.964 -61.122  1.00  0.00    -0.247 OA
HETATM   35  H   UNL     1     -47.634  57.656 -59.528  1.00  0.00     0.172 HD
ENDBRANCH   3  24
TORSDOF 4
ENDMDL
MODEL 7
REMARK VINA RESULT:      -8.6      3.068      7.966
REMARK  4 active torsions:
REMARK  status: ('A' for Active; 'I' for Inactive)
REMARK    1  A    between atoms: C_2  and  C_3 
REMARK    2  A    between atoms: C_11  and  N_12 
REMARK       I    between atoms: N_12  and  C_13 
REMARK    3  A    between atoms: C_13  and  C_14 
REMARK    4  A    between atoms: C_16  and  C_17 
ROOT
HETATM    1  C   UNL     1     -43.513  58.953 -52.977  1.00  0.00     0.032 A 
HETATM    2  C   UNL     1     -42.761  57.810 -52.664  1.00  0.00     0.029 A 
HETATM    3  C   UNL     1     -43.166  56.917 -51.654  1.00  0.00    -0.024 A 
HETATM    4  C   UNL     1     -44.354  57.215 -50.963  1.00  0.00     0.012 A 
HETATM    5  C   UNL     1     -45.110  58.350 -51.270  1.00  0.00     0.002 A 
HETATM    6  C   UNL     1     -44.695  59.217 -52.280  1.00  0.00     0.017 A 
ENDROOT
BRANCH   1   7
HETATM    7  C   UNL     1     -43.043  59.819 -54.095  1.00  0.00     0.252 C 
HETATM    8  N   UNL     1     -43.290  59.363 -55.374  1.00  0.00    -0.352 N 
HETATM    9  H   UNL     1     -43.972  58.625 -55.494  1.00  0.00     0.163 HD
HETATM   10  O   UNL     1     -42.483  60.882 -53.849  1.00  0.00    -0.268 OA
BRANCH   8  11
HETATM   11  C   UNL     1     -42.928  60.154 -56.546  1.00  0.00     0.084 C 
HETATM   12  C   UNL     1     -41.829  59.462 -57.349  1.00  0.00     0.026 C 
HETATM   13  C   UNL     1     -42.318  58.218 -58.093  1.00  0.00     0.016 C 
HETATM   14  C   UNL     1     -43.570  58.439 -58.996  1.00  0.00    -0.017 C 
HETATM   15  C   UNL     1     -43.175  59.283 -60.229  1.00  0.00     0.020 C 
HETATM   16  C   UNL     1     -44.648  59.196 -58.162  1.00  0.00     0.016 C 
HETATM   17  C   UNL     1     -44.140  60.440 -57.429  1.00  0.00     0.026 C 
BRANCH  14  18
HETATM   18  C   UNL     1     -44.123  57.096 -59.538  1.00  0.00    -0.050 A 
HETATM   19  C   UNL     1     -45.325  57.033 -60.268  1.00  0.00     0.008 A 
HETATM   20  C   UNL     1     -45.835  55.816 -60.737  1.00  0.00     0.001 A 
HETATM   21  C   UNL     1     -45.161  54.628 -60.475  1.00  0.00     0.000 A 
HETATM   22  C   UNL     1     -43.984  54.658 -59.736  1.00  0.00     0.001 A 
HETATM   23  C   UNL     1     -43.477  55.874 -59.267  1.00  0.00     0.008 A 
ENDBRANCH  14  18
ENDBRANCH   8  11
ENDBRANCH   1   7
BRANCH   3  24
HETATM   24  C   UNL     1     -42.381  55.705 -51.346  1.00  0.00    -0.006 A 
HETATM   25  C   UNL     1     -42.168  55.278 -50.013  1.00  0.00     0.131 A 
HETATM   26  N   UNL     1     -41.472  54.172 -49.627  1.00  0.00    -0.240 NA
HETATM   27  C   UNL     1     -40.963  53.482 -50.646  1.00  0.00     0.158 A 
HETATM   28  C   UNL     1     -41.098  53.806 -51.990  1.00  0.00     0.085 A 
HETATM   29  N   UNL     1     -40.211  52.322 -50.561  1.00  0.00    -0.291 N 
HETATM   30  N   UNL     1     -40.416  52.843 -52.740  1.00  0.00    -0.300 N 
HETATM   31  C   UNL     1     -41.811  54.920 -52.367  1.00  0.00     0.047 A 
HETATM   32  C   UNL     1     -40.310  52.818 -54.169  1.00  0.00     0.161 C 
HETATM   33  C   UNL     1     -39.859  51.905 -51.850  1.00  0.00     0.328 A 
HETATM   34  O   UNL     1     -39.198  50.918 -52.124  1.00  0.00    -0.247 OA
HETATM   35  H   UNL     1     -39.960  51.858 -49.707  1.00  0.00     0.172 HD
ENDBRANCH   3  24
TORSDOF 4
ENDMDL
MODEL 8
REMARK VINA RESULT:      -8.4      4.522      9.158
REMARK  4 active torsions:
REMARK  status: ('A' for Active; 'I' for Inactive)
REMARK    1  A    between atoms: C_2  and  C_3 
REMARK    2  A    between atoms: C_11  and  N_12 
REMARK       I    between atoms: N_12  and  C_13 
REMARK    3  A    between atoms: C_13  and  C_14 
REMARK    4  A    between atoms: C_16  and  C_17 
ROOT
HETATM    1  C   UNL     1     -43.905  57.799 -55.388  1.00  0.00     0.032 A 
HETATM    2  C   UNL     1     -43.142  56.629 -55.249  1.00  0.00     0.029 A 
HETATM    3  C   UNL     1     -42.483  56.318 -54.046  1.00  0.00    -0.024 A 
HETATM    4  C   UNL     1     -42.613  57.229 -52.981  1.00  0.00     0.012 A 
HETATM    5  C   UNL     1     -43.373  58.396 -53.110  1.00  0.00     0.002 A 
HETATM    6  C   UNL     1     -44.024  58.679 -54.309  1.00  0.00     0.017 A 
ENDROOT
BRANCH   1   7
HETATM    7  C   UNL     1     -44.614  58.028 -56.678  1.00  0.00     0.252 C 
HETATM    8  N   UNL     1     -43.823  58.210 -57.794  1.00  0.00    -0.352 N 
HETATM    9  H   UNL     1     -42.850  57.939 -57.737  1.00  0.00     0.163 HD
HETATM   10  O   UNL     1     -45.841  58.032 -56.707  1.00  0.00    -0.268 OA
BRANCH   8  11
HETATM   11  C   UNL     1     -44.406  58.385 -59.119  1.00  0.00     0.084 C 
HETATM   12  C   UNL     1     -44.937  59.805 -59.297  1.00  0.00     0.026 C 
HETATM   13  C   UNL     1     -43.827  60.851 -59.430  1.00  0.00     0.016 C 
HETATM   14  C   UNL     1     -42.762  60.546 -60.526  1.00  0.00    -0.017 C 
HETATM   15  C   UNL     1     -43.394  60.727 -61.926  1.00  0.00     0.020 C 
HETATM   16  C   UNL     1     -42.285  59.072 -60.350  1.00  0.00     0.016 C 
HETATM   17  C   UNL     1     -43.409  58.041 -60.224  1.00  0.00     0.026 C 
BRANCH  14  18
HETATM   18  C   UNL     1     -41.569  61.533 -60.449  1.00  0.00    -0.050 A 
HETATM   19  C   UNL     1     -41.020  62.122 -61.604  1.00  0.00     0.008 A 
HETATM   20  C   UNL     1     -39.929  62.995 -61.534  1.00  0.00     0.001 A 
HETATM   21  C   UNL     1     -39.348  63.292 -60.306  1.00  0.00     0.000 A 
HETATM   22  C   UNL     1     -39.854  62.707 -59.151  1.00  0.00     0.001 A 
HETATM   23  C   UNL     1     -40.944  61.833 -59.223  1.00  0.00     0.008 A 
ENDBRANCH  14  18
ENDBRANCH   8  11
ENDBRANCH   1   7
BRANCH   3  24
HETATM   24  C   UNL     1     -41.702  55.074 -53.901  1.00  0.00    -0.006 A 
HETATM   25  C   UNL     1     -41.178  54.393 -55.027  1.00  0.00     0.131 A 
HETATM   26  N   UNL     1     -40.438  53.249 -54.998  1.00  0.00    -0.240 NA
HETATM   27  C   UNL     1     -40.236  52.777 -53.770  1.00  0.00     0.158 A 
HETATM   28  C   UNL     1     -40.705  53.352 -52.595  1.00  0.00     0.085 A 
HETATM   29  N   UNL     1     -39.526  51.636 -53.432  1.00  0.00    -0.291 N 
HETATM   30  N   UNL     1     -40.289  52.554 -51.525  1.00  0.00    -0.300 N 
HETATM   31  C   UNL     1     -41.443  54.512 -52.636  1.00  0.00     0.047 A 
HETATM   32  C   UNL     1     -40.571  52.800 -50.141  1.00  0.00     0.161 C 
HETATM   33  C   UNL     1     -39.545  51.476 -52.042  1.00  0.00     0.328 A 
HETATM   34  O   UNL     1     -39.012  50.571 -51.421  1.00  0.00    -0.247 OA
HETATM   35  H   UNL     1     -39.072  51.024 -54.085  1.00  0.00     0.172 HD
ENDBRANCH   3  24
TORSDOF 4
ENDMDL
MODEL 9
REMARK VINA RESULT:      -8.4      3.841      9.437
REMARK  4 active torsions:
REMARK  status: ('A' for Active; 'I' for Inactive)
REMARK    1  A    between atoms: C_2  and  C_3 
REMARK    2  A    between atoms: C_11  and  N_12 
REMARK       I    between atoms: N_12  and  C_13 
REMARK    3  A    between atoms: C_13  and  C_14 
REMARK    4  A    between atoms: C_16  and  C_17 
ROOT
HETATM    1  C   UNL     1     -42.414  55.752 -56.081  1.00  0.00     0.032 A 
HETATM    2  C   UNL     1     -42.492  56.791 -55.140  1.00  0.00     0.029 A 
HETATM    3  C   UNL     1     -41.764  56.749 -53.936  1.00  0.00    -0.024 A 
HETATM    4  C   UNL     1     -40.955  55.622 -53.706  1.00  0.00     0.012 A 
HETATM    5  C   UNL     1     -40.869  54.584 -54.639  1.00  0.00     0.002 A 
HETATM    6  C   UNL     1     -41.593  54.650 -55.829  1.00  0.00     0.017 A 
ENDROOT
BRANCH   1   7
HETATM    7  C   UNL     1     -43.175  55.897 -57.353  1.00  0.00     0.252 C 
HETATM    8  N   UNL     1     -43.348  57.183 -57.826  1.00  0.00    -0.352 N 
HETATM    9  H   UNL     1     -42.762  57.913 -57.445  1.00  0.00     0.163 HD
HETATM   10  O   UNL     1     -43.596  54.900 -57.929  1.00  0.00    -0.268 OA
BRANCH   8  11
HETATM   11  C   UNL     1     -44.026  57.442 -59.091  1.00  0.00     0.084 C 
HETATM   12  C   UNL     1     -44.742  58.790 -59.058  1.00  0.00     0.026 C 
HETATM   13  C   UNL     1     -43.783  59.983 -59.099  1.00  0.00     0.016 C 
HETATM   14  C   UNL     1     -42.755  59.961 -60.269  1.00  0.00    -0.017 C 
HETATM   15  C   UNL     1     -43.485  60.230 -61.605  1.00  0.00     0.020 C 
HETATM   16  C   UNL     1     -42.085  58.554 -60.308  1.00  0.00     0.016 C 
HETATM   17  C   UNL     1     -43.060  57.375 -60.272  1.00  0.00     0.026 C 
BRANCH  14  18
HETATM   18  C   UNL     1     -41.694  61.081 -60.113  1.00  0.00    -0.050 A 
HETATM   19  C   UNL     1     -41.174  61.768 -61.227  1.00  0.00     0.008 A 
HETATM   20  C   UNL     1     -40.199  62.763 -61.085  1.00  0.00     0.001 A 
HETATM   21  C   UNL     1     -39.709  63.087 -59.826  1.00  0.00     0.000 A 
HETATM   22  C   UNL     1     -40.186  62.409 -58.710  1.00  0.00     0.001 A 
HETATM   23  C   UNL     1     -41.159  61.414 -58.853  1.00  0.00     0.008 A 
ENDBRANCH  14  18
ENDBRANCH   8  11
ENDBRANCH   1   7
BRANCH   3  24
HETATM   24  C   UNL     1     -41.835  57.857 -52.962  1.00  0.00    -0.006 A 
HETATM   25  C   UNL     1     -40.671  58.536 -52.526  1.00  0.00     0.131 A 
HETATM   26  N   UNL     1     -40.632  59.573 -51.643  1.00  0.00    -0.240 NA
HETATM   27  C   UNL     1     -41.830  59.921 -51.179  1.00  0.00     0.158 A 
HETATM   28  C   UNL     1     -43.037  59.326 -51.526  1.00  0.00     0.085 A 
HETATM   29  N   UNL     1     -42.100  60.933 -50.272  1.00  0.00    -0.291 N 
HETATM   30  N   UNL     1     -44.058  59.970 -50.821  1.00  0.00    -0.300 N 
HETATM   31  C   UNL     1     -43.064  58.286 -52.426  1.00  0.00     0.047 A 
HETATM   32  C   UNL     1     -45.454  59.652 -50.895  1.00  0.00     0.161 C 
HETATM   33  C   UNL     1     -43.478  60.984 -50.034  1.00  0.00     0.328 A 
HETATM   34  O   UNL     1     -44.044  61.763 -49.285  1.00  0.00    -0.247 OA
HETATM   35  H   UNL     1     -41.412  61.533 -49.855  1.00  0.00     0.172 HD
ENDBRANCH   3  24
TORSDOF 4
ENDMDL
MODEL 10
REMARK VINA RESULT:      -8.1     16.276     21.113
REMARK  4 active torsions:
REMARK  status: ('A' for Active; 'I' for Inactive)
REMARK    1  A    between atoms: C_2  and  C_3 
REMARK    2  A    between atoms: C_11  and  N_12 
REMARK       I    between atoms: N_12  and  C_13 
REMARK    3  A    between atoms: C_13  and  C_14 
REMARK    4  A    between atoms: C_16  and  C_17 
ROOT
HETATM    1  C   UNL     1     -34.801  39.790 -52.314  1.00  0.00     0.032 A 
HETATM    2  C   UNL     1     -33.991  39.911 -51.174  1.00  0.00     0.029 A 
HETATM    3  C   UNL     1     -33.666  38.794 -50.382  1.00  0.00    -0.024 A 
HETATM    4  C   UNL     1     -34.187  37.548 -50.772  1.00  0.00     0.012 A 
HETATM    5  C   UNL     1     -34.994  37.419 -51.907  1.00  0.00     0.002 A 
HETATM    6  C   UNL     1     -35.296  38.537 -52.683  1.00  0.00     0.017 A 
ENDROOT
BRANCH   1   7
HETATM    7  C   UNL     1     -35.055  41.012 -53.129  1.00  0.00     0.252 C 
HETATM    8  N   UNL     1     -34.959  40.871 -54.499  1.00  0.00    -0.352 N 
HETATM    9  H   UNL     1     -34.974  39.936 -54.884  1.00  0.00     0.163 HD
HETATM   10  O   UNL     1     -35.346  42.066 -52.573  1.00  0.00    -0.268 OA
BRANCH   8  11
HETATM   11  C   UNL     1     -35.243  41.984 -55.398  1.00  0.00     0.084 C 
HETATM   12  C   UNL     1     -34.645  41.733 -56.781  1.00  0.00     0.026 C 
HETATM   13  C   UNL     1     -35.384  40.647 -57.568  1.00  0.00     0.016 C 
HETATM   14  C   UNL     1     -36.924  40.855 -57.690  1.00  0.00    -0.017 C 
HETATM   15  C   UNL     1     -37.212  42.040 -58.640  1.00  0.00     0.020 C 
HETATM   16  C   UNL     1     -37.491  41.165 -56.272  1.00  0.00     0.016 C 
HETATM   17  C   UNL     1     -36.743  42.256 -55.502  1.00  0.00     0.026 C 
BRANCH  14  18
HETATM   18  C   UNL     1     -37.616  39.613 -58.311  1.00  0.00    -0.050 A 
HETATM   19  C   UNL     1     -38.392  39.708 -59.481  1.00  0.00     0.008 A 
HETATM   20  C   UNL     1     -39.035  38.590 -60.027  1.00  0.00     0.001 A 
HETATM   21  C   UNL     1     -38.929  37.351 -59.407  1.00  0.00     0.000 A 
HETATM   22  C   UNL     1     -38.189  37.233 -58.236  1.00  0.00     0.001 A 
HETATM   23  C   UNL     1     -37.548  38.350 -57.692  1.00  0.00     0.008 A 
ENDBRANCH  14  18
ENDBRANCH   8  11
ENDBRANCH   1   7
BRANCH   3  24
HETATM   24  C   UNL     1     -32.794  38.926 -49.198  1.00  0.00    -0.006 A 
HETATM   25  C   UNL     1     -31.560  39.617 -49.259  1.00  0.00     0.131 A 
HETATM   26  N   UNL     1     -30.693  39.803 -48.224  1.00  0.00    -0.240 NA
HETATM   27  C   UNL     1     -31.100  39.249 -47.084  1.00  0.00     0.158 A 
HETATM   28  C   UNL     1     -32.283  38.541 -46.905  1.00  0.00     0.085 A 
HETATM   29  N   UNL     1     -30.430  39.271 -45.871  1.00  0.00    -0.291 N 
HETATM   30  N   UNL     1     -32.338  38.118 -45.574  1.00  0.00    -0.300 N 
HETATM   31  C   UNL     1     -33.154  38.369 -47.955  1.00  0.00     0.047 A 
HETATM   32  C   UNL     1     -33.398  37.352 -44.984  1.00  0.00     0.161 C 
HETATM   33  C   UNL     1     -31.179  38.575 -44.917  1.00  0.00     0.328 A 
HETATM   34  O   UNL     1     -30.870  38.409 -43.749  1.00  0.00    -0.247 OA
HETATM   35  H   UNL     1     -29.546  39.718 -45.709  1.00  0.00     0.172 HD
ENDBRANCH   3  24
TORSDOF 4
ENDMDL
