MODEL 1
REMARK VINA RESULT:      -9.1      0.000      0.000
REMARK  6 active torsions:
REMARK  status: ('A' for Active; 'I' for Inactive)
REMARK    1  A    between atoms: O_2  and  C_3 
REMARK    2  A    between atoms: C_5  and  C_6 
REMARK    3  A    between atoms: C_12  and  C_13 
REMARK       I    between atoms: C_13  and  N_14 
REMARK    4  A    between atoms: N_14  and  C_15 
REMARK    5  A    between atoms: C_17  and  O_18 
REMARK    6  A    between atoms: C_23  and  C_24 
ROOT
HETATM    1  C   UNL     1     -40.706  56.037 -54.079  1.00  0.00     0.118 C 
HETATM    2  N   UNL     1     -41.660  56.271 -55.173  1.00  0.00    -0.365 N 
HETATM    3  C   UNL     1     -41.969  57.573 -55.444  1.00  0.00     0.138 C 
HETATM    4  N   UNL     1     -41.779  58.551 -54.492  1.00  0.00    -0.240 N 
HETATM    5  N   UNL     1     -41.911  59.796 -54.976  1.00  0.00    -0.181 NA
HETATM    6  C   UNL     1     -42.351  59.597 -56.222  1.00  0.00     0.160 C 
HETATM    7  C   UNL     1     -42.446  58.226 -56.565  1.00  0.00     0.096 C 
HETATM    8  C   UNL     1     -41.244  58.321 -53.161  1.00  0.00     0.221 C 
HETATM    9  C   UNL     1     -41.173  56.817 -52.845  1.00  0.00     0.066 C 
HETATM   10  H   UNL     1     -41.480  55.649 -55.964  1.00  0.00     0.161 HD
ENDROOT
BRANCH   7  11
HETATM   11  C   UNL     1     -42.895  57.696 -57.839  1.00  0.00     0.261 C 
HETATM   12  N   UNL     1     -44.220  57.300 -57.835  1.00  0.00    -0.323 N 
HETATM   13  H   UNL     1     -44.734  57.500 -56.984  1.00  0.00     0.169 HD
HETATM   14  O   UNL     1     -42.142  57.683 -58.806  1.00  0.00    -0.267 OA
BRANCH  12  15
HETATM   15  C   UNL     1     -44.964  56.796 -58.923  1.00  0.00     0.037 A 
HETATM   16  C   UNL     1     -44.481  55.839 -59.819  1.00  0.00     0.066 A 
HETATM   17  C   UNL     1     -45.281  55.411 -60.877  1.00  0.00     0.067 A 
HETATM   18  C   UNL     1     -46.560  55.919 -61.061  1.00  0.00     0.036 A 
HETATM   19  C   UNL     1     -47.053  56.867 -60.169  1.00  0.00     0.005 A 
HETATM   20  C   UNL     1     -46.261  57.300 -59.102  1.00  0.00     0.029 A 
BRANCH  17  21
HETATM   21  O   UNL     1     -44.835  54.478 -61.769  1.00  0.00    -0.361 OA
HETATM   22  H   UNL     1     -45.592  53.938 -62.053  1.00  0.00     0.217 HD
ENDBRANCH  17  21
ENDBRANCH  12  15
ENDBRANCH   7  11
BRANCH   1  23
HETATM   23  C   UNL     1     -40.573  54.556 -53.795  1.00  0.00    -0.033 A 
HETATM   24  C   UNL     1     -40.566  54.052 -52.483  1.00  0.00     0.046 A 
HETATM   25  C   UNL     1     -40.385  52.689 -52.229  1.00  0.00     0.068 A 
HETATM   26  C   UNL     1     -40.224  51.809 -53.299  1.00  0.00     0.037 A 
HETATM   27  C   UNL     1     -40.241  52.291 -54.609  1.00  0.00     0.003 A 
HETATM   28  C   UNL     1     -40.412  53.653 -54.856  1.00  0.00     0.009 A 
BRANCH  25  29
HETATM   29  O   UNL     1     -40.382  52.349 -50.904  1.00  0.00    -0.356 OA
HETATM   30  C   UNL     1     -40.310  53.419 -49.969  1.00  0.00     0.210 C 
ENDBRANCH  25  29
ENDBRANCH   1  23
BRANCH   8  31
HETATM   31  C   UNL     1     -42.068  59.024 -52.105  1.00  0.00     0.409 C 
HETATM   32  F   UNL     1     -43.390  59.004 -52.387  1.00  0.00    -0.169 F 
HETATM   33  F   UNL     1     -41.916  58.387 -50.912  1.00  0.00    -0.169 F 
HETATM   34  F   UNL     1     -41.700  60.305 -51.894  1.00  0.00    -0.169 F 
ENDBRANCH   8  31
TORSDOF 6
ENDMDL
MODEL 2
REMARK VINA RESULT:      -9.0      2.346      3.419
REMARK  6 active torsions:
REMARK  status: ('A' for Active; 'I' for Inactive)
REMARK    1  A    between atoms: O_2  and  C_3 
REMARK    2  A    between atoms: C_5  and  C_6 
REMARK    3  A    between atoms: C_12  and  C_13 
REMARK       I    between atoms: C_13  and  N_14 
REMARK    4  A    between atoms: N_14  and  C_15 
REMARK    5  A    between atoms: C_17  and  O_18 
REMARK    6  A    between atoms: C_23  and  C_24 
ROOT
HETATM    1  C   UNL     1     -40.204  53.705 -52.109  1.00  0.00     0.118 C 
HETATM    2  N   UNL     1     -41.230  53.934 -53.138  1.00  0.00    -0.365 N 
HETATM    3  C   UNL     1     -41.584  55.232 -53.367  1.00  0.00     0.138 C 
HETATM    4  N   UNL     1     -41.359  56.199 -52.411  1.00  0.00    -0.240 N 
HETATM    5  N   UNL     1     -41.549  57.448 -52.864  1.00  0.00    -0.181 NA
HETATM    6  C   UNL     1     -42.060  57.259 -54.084  1.00  0.00     0.160 C 
HETATM    7  C   UNL     1     -42.144  55.892 -54.445  1.00  0.00     0.096 C 
HETATM    8  C   UNL     1     -40.738  55.960 -51.119  1.00  0.00     0.221 C 
HETATM    9  C   UNL     1     -40.613  54.452 -50.835  1.00  0.00     0.066 C 
HETATM   10  H   UNL     1     -41.084  53.329 -53.950  1.00  0.00     0.161 HD
ENDROOT
BRANCH   7  11
HETATM   11  C   UNL     1     -42.659  55.372 -55.698  1.00  0.00     0.261 C 
HETATM   12  N   UNL     1     -42.834  56.342 -56.668  1.00  0.00    -0.323 N 
HETATM   13  H   UNL     1     -42.510  57.271 -56.421  1.00  0.00     0.169 HD
HETATM   14  O   UNL     1     -42.843  54.169 -55.840  1.00  0.00    -0.267 OA
BRANCH  12  15
HETATM   15  C   UNL     1     -43.265  56.152 -57.998  1.00  0.00     0.037 A 
HETATM   16  C   UNL     1     -43.898  54.992 -58.452  1.00  0.00     0.066 A 
HETATM   17  C   UNL     1     -44.276  54.884 -59.790  1.00  0.00     0.067 A 
HETATM   18  C   UNL     1     -44.034  55.914 -60.689  1.00  0.00     0.036 A 
HETATM   19  C   UNL     1     -43.412  57.077 -60.244  1.00  0.00     0.005 A 
HETATM   20  C   UNL     1     -43.033  57.198 -58.903  1.00  0.00     0.029 A 
BRANCH  17  21
HETATM   21  O   UNL     1     -44.894  53.762 -60.262  1.00  0.00    -0.361 OA
HETATM   22  H   UNL     1     -45.727  54.026 -60.688  1.00  0.00     0.217 HD
ENDBRANCH  17  21
ENDBRANCH  12  15
ENDBRANCH   7  11
BRANCH   1  23
HETATM   23  C   UNL     1     -40.021  52.223 -51.860  1.00  0.00    -0.033 A 
HETATM   24  C   UNL     1     -39.744  51.326 -52.906  1.00  0.00     0.046 A 
HETATM   25  C   UNL     1     -39.633  49.951 -52.674  1.00  0.00     0.068 A 
HETATM   26  C   UNL     1     -39.784  49.462 -51.378  1.00  0.00     0.037 A 
HETATM   27  C   UNL     1     -40.047  50.340 -50.324  1.00  0.00     0.003 A 
HETATM   28  C   UNL     1     -40.166  51.709 -50.563  1.00  0.00     0.009 A 
BRANCH  25  29
HETATM   29  O   UNL     1     -39.380  49.202 -53.791  1.00  0.00    -0.356 OA
HETATM   30  C   UNL     1     -39.735  49.778 -55.043  1.00  0.00     0.210 C 
ENDBRANCH  25  29
ENDBRANCH   1  23
BRANCH   8  31
HETATM   31  C   UNL     1     -41.511  56.626 -50.003  1.00  0.00     0.409 C 
HETATM   32  F   UNL     1     -41.131  57.908 -49.808  1.00  0.00    -0.169 F 
HETATM   33  F   UNL     1     -42.834  56.658 -50.323  1.00  0.00    -0.169 F 
HETATM   34  F   UNL     1     -41.427  55.977 -48.824  1.00  0.00    -0.169 F 
ENDBRANCH   8  31
TORSDOF 6
ENDMDL
MODEL 3
REMARK VINA RESULT:      -9.0      1.950      7.447
REMARK  6 active torsions:
REMARK  status: ('A' for Active; 'I' for Inactive)
REMARK    1  A    between atoms: O_2  and  C_3 
REMARK    2  A    between atoms: C_5  and  C_6 
REMARK    3  A    between atoms: C_12  and  C_13 
REMARK       I    between atoms: C_13  and  N_14 
REMARK    4  A    between atoms: N_14  and  C_15 
REMARK    5  A    between atoms: C_17  and  O_18 
REMARK    6  A    between atoms: C_23  and  C_24 
ROOT
HETATM    1  C   UNL     1     -42.913  57.682 -56.203  1.00  0.00     0.118 C 
HETATM    2  N   UNL     1     -41.882  56.762 -55.699  1.00  0.00    -0.365 N 
HETATM    3  C   UNL     1     -41.766  56.661 -54.343  1.00  0.00     0.138 C 
HETATM    4  N   UNL     1     -42.236  57.664 -53.523  1.00  0.00    -0.240 N 
HETATM    5  N   UNL     1     -42.256  57.324 -52.225  1.00  0.00    -0.181 NA
HETATM    6  C   UNL     1     -41.638  56.140 -52.207  1.00  0.00     0.160 C 
HETATM    7  C   UNL     1     -41.271  55.686 -53.498  1.00  0.00     0.096 C 
HETATM    8  C   UNL     1     -42.887  58.878 -53.986  1.00  0.00     0.221 C 
HETATM    9  C   UNL     1     -42.742  59.038 -55.510  1.00  0.00     0.066 C 
HETATM   10  H   UNL     1     -41.855  55.898 -56.246  1.00  0.00     0.161 HD
ENDROOT
BRANCH   7  11
HETATM   11  C   UNL     1     -40.582  54.445 -53.801  1.00  0.00     0.261 C 
HETATM   12  N   UNL     1     -40.865  53.425 -52.910  1.00  0.00    -0.323 N 
HETATM   13  H   UNL     1     -41.571  53.637 -52.213  1.00  0.00     0.169 HD
HETATM   14  O   UNL     1     -39.878  54.355 -54.800  1.00  0.00    -0.267 OA
BRANCH  12  15
HETATM   15  C   UNL     1     -40.401  52.094 -52.961  1.00  0.00     0.037 A 
HETATM   16  C   UNL     1     -39.898  51.403 -51.855  1.00  0.00     0.066 A 
HETATM   17  C   UNL     1     -39.445  50.092 -52.001  1.00  0.00     0.067 A 
HETATM   18  C   UNL     1     -39.484  49.453 -53.233  1.00  0.00     0.036 A 
HETATM   19  C   UNL     1     -39.990  50.131 -54.338  1.00  0.00     0.005 A 
HETATM   20  C   UNL     1     -40.452  51.443 -54.202  1.00  0.00     0.029 A 
BRANCH  17  21
HETATM   21  O   UNL     1     -38.947  49.394 -50.939  1.00  0.00    -0.361 OA
HETATM   22  H   UNL     1     -39.628  48.770 -50.636  1.00  0.00     0.217 HD
ENDBRANCH  17  21
ENDBRANCH  12  15
ENDBRANCH   7  11
BRANCH   1  23
HETATM   23  C   UNL     1     -42.828  57.803 -57.710  1.00  0.00    -0.033 A 
HETATM   24  C   UNL     1     -43.296  56.787 -58.561  1.00  0.00     0.046 A 
HETATM   25  C   UNL     1     -43.160  56.883 -59.950  1.00  0.00     0.068 A 
HETATM   26  C   UNL     1     -42.565  58.016 -60.502  1.00  0.00     0.037 A 
HETATM   27  C   UNL     1     -42.106  59.041 -59.672  1.00  0.00     0.003 A 
HETATM   28  C   UNL     1     -42.234  58.935 -58.287  1.00  0.00     0.009 A 
BRANCH  25  29
HETATM   29  O   UNL     1     -43.645  55.810 -60.647  1.00  0.00    -0.356 OA
HETATM   30  C   UNL     1     -44.359  54.831 -59.901  1.00  0.00     0.210 C 
ENDBRANCH  25  29
ENDBRANCH   1  23
BRANCH   8  31
HETATM   31  C   UNL     1     -42.332  60.102 -53.292  1.00  0.00     0.409 C 
HETATM   32  F   UNL     1     -42.963  60.362 -52.125  1.00  0.00    -0.169 F 
HETATM   33  F   UNL     1     -41.022  59.895 -52.985  1.00  0.00    -0.169 F 
HETATM   34  F   UNL     1     -42.367  61.217 -54.049  1.00  0.00    -0.169 F 
ENDBRANCH   8  31
TORSDOF 6
ENDMDL
MODEL 4
REMARK VINA RESULT:      -9.0      1.835      2.295
REMARK  6 active torsions:
REMARK  status: ('A' for Active; 'I' for Inactive)
REMARK    1  A    between atoms: O_2  and  C_3 
REMARK    2  A    between atoms: C_5  and  C_6 
REMARK    3  A    between atoms: C_12  and  C_13 
REMARK       I    between atoms: C_13  and  N_14 
REMARK    4  A    between atoms: N_14  and  C_15 
REMARK    5  A    between atoms: C_17  and  O_18 
REMARK    6  A    between atoms: C_23  and  C_24 
ROOT
HETATM    1  C   UNL     1     -40.494  54.035 -53.174  1.00  0.00     0.118 C 
HETATM    2  N   UNL     1     -41.595  54.381 -54.085  1.00  0.00    -0.365 N 
HETATM    3  C   UNL     1     -42.008  55.681 -54.075  1.00  0.00     0.138 C 
HETATM    4  N   UNL     1     -41.750  56.491 -52.990  1.00  0.00    -0.240 N 
HETATM    5  N   UNL     1     -42.013  57.786 -53.219  1.00  0.00    -0.181 NA
HETATM    6  C   UNL     1     -42.600  57.775 -54.419  1.00  0.00     0.160 C 
HETATM    7  C   UNL     1     -42.663  56.481 -54.993  1.00  0.00     0.096 C 
HETATM    8  C   UNL     1     -41.033  56.074 -51.796  1.00  0.00     0.221 C 
HETATM    9  C   UNL     1     -40.838  54.548 -51.771  1.00  0.00     0.066 C 
HETATM   10  H   UNL     1     -41.486  53.922 -54.993  1.00  0.00     0.161 HD
ENDROOT
BRANCH   7  11
HETATM   11  C   UNL     1     -43.245  56.148 -56.280  1.00  0.00     0.261 C 
HETATM   12  N   UNL     1     -44.077  57.133 -56.781  1.00  0.00    -0.323 N 
HETATM   13  H   UNL     1     -44.115  57.990 -56.241  1.00  0.00     0.169 HD
HETATM   14  O   UNL     1     -42.942  55.103 -56.845  1.00  0.00    -0.267 OA
BRANCH  12  15
HETATM   15  C   UNL     1     -44.746  57.134 -58.023  1.00  0.00     0.037 A 
HETATM   16  C   UNL     1     -44.326  56.398 -59.134  1.00  0.00     0.066 A 
HETATM   17  C   UNL     1     -45.041  56.472 -60.329  1.00  0.00     0.067 A 
HETATM   18  C   UNL     1     -46.172  57.270 -60.439  1.00  0.00     0.036 A 
HETATM   19  C   UNL     1     -46.602  58.000 -59.336  1.00  0.00     0.005 A 
HETATM   20  C   UNL     1     -45.896  57.929 -58.132  1.00  0.00     0.029 A 
BRANCH  17  21
HETATM   21  O   UNL     1     -44.652  55.765 -61.430  1.00  0.00    -0.361 OA
HETATM   22  H   UNL     1     -45.173  56.073 -62.192  1.00  0.00     0.217 HD
ENDBRANCH  17  21
ENDBRANCH  12  15
ENDBRANCH   7  11
BRANCH   1  23
HETATM   23  C   UNL     1     -40.243  52.542 -53.183  1.00  0.00    -0.033 A 
HETATM   24  C   UNL     1     -39.978  51.829 -52.002  1.00  0.00     0.046 A 
HETATM   25  C   UNL     1     -39.690  50.460 -52.028  1.00  0.00     0.068 A 
HETATM   26  C   UNL     1     -39.682  49.786 -53.248  1.00  0.00     0.037 A 
HETATM   27  C   UNL     1     -39.955  50.477 -54.431  1.00  0.00     0.003 A 
HETATM   28  C   UNL     1     -40.232  51.844 -54.400  1.00  0.00     0.009 A 
BRANCH  25  29
HETATM   29  O   UNL     1     -39.435  49.905 -50.804  1.00  0.00    -0.356 OA
HETATM   30  C   UNL     1     -40.224  50.369 -49.714  1.00  0.00     0.210 C 
ENDBRANCH  25  29
ENDBRANCH   1  23
BRANCH   8  31
HETATM   31  C   UNL     1     -41.750  56.516 -50.539  1.00  0.00     0.409 C 
HETATM   32  F   UNL     1     -43.094  56.439 -50.660  1.00  0.00    -0.169 F 
HETATM   33  F   UNL     1     -41.406  55.695 -49.509  1.00  0.00    -0.169 F 
HETATM   34  F   UNL     1     -41.431  57.765 -50.144  1.00  0.00    -0.169 F 
ENDBRANCH   8  31
TORSDOF 6
ENDMDL
MODEL 5
REMARK VINA RESULT:      -8.6      2.060      7.169
REMARK  6 active torsions:
REMARK  status: ('A' for Active; 'I' for Inactive)
REMARK    1  A    between atoms: O_2  and  C_3 
REMARK    2  A    between atoms: C_5  and  C_6 
REMARK    3  A    between atoms: C_12  and  C_13 
REMARK       I    between atoms: C_13  and  N_14 
REMARK    4  A    between atoms: N_14  and  C_15 
REMARK    5  A    between atoms: C_17  and  O_18 
REMARK    6  A    between atoms: C_23  and  C_24 
ROOT
HETATM    1  C   UNL     1     -43.304  57.497 -55.929  1.00  0.00     0.118 C 
HETATM    2  N   UNL     1     -42.702  56.465 -55.072  1.00  0.00    -0.365 N 
HETATM    3  C   UNL     1     -42.782  56.669 -53.725  1.00  0.00     0.138 C 
HETATM    4  N   UNL     1     -42.984  57.934 -53.218  1.00  0.00    -0.240 N 
HETATM    5  N   UNL     1     -43.265  57.943 -51.906  1.00  0.00    -0.181 NA
HETATM    6  C   UNL     1     -43.081  56.670 -51.543  1.00  0.00     0.160 C 
HETATM    7  C   UNL     1     -42.739  55.828 -52.629  1.00  0.00     0.096 C 
HETATM    8  C   UNL     1     -43.138  59.135 -54.022  1.00  0.00     0.221 C 
HETATM    9  C   UNL     1     -42.774  58.867 -55.493  1.00  0.00     0.066 C 
HETATM   10  H   UNL     1     -42.899  55.526 -55.425  1.00  0.00     0.161 HD
ENDROOT
BRANCH   7  11
HETATM   11  C   UNL     1     -42.471  54.404 -52.550  1.00  0.00     0.261 C 
HETATM   12  N   UNL     1     -41.173  54.066 -52.891  1.00  0.00    -0.323 N 
HETATM   13  H   UNL     1     -40.552  54.847 -53.071  1.00  0.00     0.169 HD
HETATM   14  O   UNL     1     -43.336  53.631 -52.154  1.00  0.00    -0.267 OA
BRANCH  12  15
HETATM   15  C   UNL     1     -40.590  52.782 -52.864  1.00  0.00     0.037 A 
HETATM   16  C   UNL     1     -40.538  51.928 -53.969  1.00  0.00     0.066 A 
HETATM   17  C   UNL     1     -39.955  50.667 -53.846  1.00  0.00     0.067 A 
HETATM   18  C   UNL     1     -39.420  50.238 -52.639  1.00  0.00     0.036 A 
HETATM   19  C   UNL     1     -39.460  51.085 -51.535  1.00  0.00     0.005 A 
HETATM   20  C   UNL     1     -40.038  52.353 -51.648  1.00  0.00     0.029 A 
BRANCH  17  21
HETATM   21  O   UNL     1     -39.892  49.811 -54.908  1.00  0.00    -0.361 OA
HETATM   22  H   UNL     1     -39.630  50.318 -55.696  1.00  0.00     0.217 HD
ENDBRANCH  17  21
ENDBRANCH  12  15
ENDBRANCH   7  11
BRANCH   1  23
HETATM   23  C   UNL     1     -43.011  57.216 -57.388  1.00  0.00    -0.033 A 
HETATM   24  C   UNL     1     -43.547  56.097 -58.047  1.00  0.00     0.046 A 
HETATM   25  C   UNL     1     -43.223  55.815 -59.379  1.00  0.00     0.068 A 
HETATM   26  C   UNL     1     -42.366  56.668 -60.071  1.00  0.00     0.037 A 
HETATM   27  C   UNL     1     -41.834  57.792 -59.434  1.00  0.00     0.003 A 
HETATM   28  C   UNL     1     -42.151  58.063 -58.104  1.00  0.00     0.009 A 
BRANCH  25  29
HETATM   29  O   UNL     1     -43.806  54.683 -59.881  1.00  0.00    -0.356 OA
HETATM   30  C   UNL     1     -44.956  54.863 -60.699  1.00  0.00     0.210 C 
ENDBRANCH  25  29
ENDBRANCH   1  23
BRANCH   8  31
HETATM   31  C   UNL     1     -42.292  60.270 -53.487  1.00  0.00     0.409 C 
HETATM   32  F   UNL     1     -41.040  59.872 -53.170  1.00  0.00    -0.169 F 
HETATM   33  F   UNL     1     -42.163  61.229 -54.444  1.00  0.00    -0.169 F 
HETATM   34  F   UNL     1     -42.826  60.884 -52.412  1.00  0.00    -0.169 F 
ENDBRANCH   8  31
TORSDOF 6
ENDMDL
MODEL 6
REMARK VINA RESULT:      -8.6      2.436      7.428
REMARK  6 active torsions:
REMARK  status: ('A' for Active; 'I' for Inactive)
REMARK    1  A    between atoms: O_2  and  C_3 
REMARK    2  A    between atoms: C_5  and  C_6 
REMARK    3  A    between atoms: C_12  and  C_13 
REMARK       I    between atoms: C_13  and  N_14 
REMARK    4  A    between atoms: N_14  and  C_15 
REMARK    5  A    between atoms: C_17  and  O_18 
REMARK    6  A    between atoms: C_23  and  C_24 
ROOT
HETATM    1  C   UNL     1     -43.141  57.252 -55.557  1.00  0.00     0.118 C 
HETATM    2  N   UNL     1     -42.521  56.200 -54.737  1.00  0.00    -0.365 N 
HETATM    3  C   UNL     1     -42.531  56.396 -53.386  1.00  0.00     0.138 C 
HETATM    4  N   UNL     1     -42.679  57.662 -52.862  1.00  0.00    -0.240 N 
HETATM    5  N   UNL     1     -42.894  57.667 -51.538  1.00  0.00    -0.181 NA
HETATM    6  C   UNL     1     -42.720  56.388 -51.192  1.00  0.00     0.160 C 
HETATM    7  C   UNL     1     -42.452  55.546 -52.299  1.00  0.00     0.096 C 
HETATM    8  C   UNL     1     -42.844  58.872 -53.650  1.00  0.00     0.221 C 
HETATM    9  C   UNL     1     -42.560  58.607 -55.139  1.00  0.00     0.066 C 
HETATM   10  H   UNL     1     -42.757  55.268 -55.086  1.00  0.00     0.161 HD
ENDROOT
BRANCH   7  11
HETATM   11  C   UNL     1     -42.213  54.116 -52.243  1.00  0.00     0.261 C 
HETATM   12  N   UNL     1     -41.042  53.726 -52.866  1.00  0.00    -0.323 N 
HETATM   13  H   UNL     1     -40.457  54.481 -53.210  1.00  0.00     0.169 HD
HETATM   14  O   UNL     1     -42.983  53.382 -51.633  1.00  0.00    -0.267 OA
BRANCH  12  15
HETATM   15  C   UNL     1     -40.504  52.424 -52.938  1.00  0.00     0.037 A 
HETATM   16  C   UNL     1     -40.034  51.715 -51.830  1.00  0.00     0.066 A 
HETATM   17  C   UNL     1     -39.504  50.436 -51.996  1.00  0.00     0.067 A 
HETATM   18  C   UNL     1     -39.433  49.847 -53.252  1.00  0.00     0.036 A 
HETATM   19  C   UNL     1     -39.906  50.542 -54.360  1.00  0.00     0.005 A 
HETATM   20  C   UNL     1     -40.445  51.823 -54.204  1.00  0.00     0.029 A 
BRANCH  17  21
HETATM   21  O   UNL     1     -39.035  49.721 -50.932  1.00  0.00    -0.361 OA
HETATM   22  H   UNL     1     -38.441  49.027 -51.266  1.00  0.00     0.217 HD
ENDBRANCH  17  21
ENDBRANCH  12  15
ENDBRANCH   7  11
BRANCH   1  23
HETATM   23  C   UNL     1     -42.927  56.975 -57.030  1.00  0.00    -0.033 A 
HETATM   24  C   UNL     1     -42.444  57.963 -57.905  1.00  0.00     0.046 A 
HETATM   25  C   UNL     1     -42.305  57.714 -59.275  1.00  0.00     0.068 A 
HETATM   26  C   UNL     1     -42.636  56.458 -59.779  1.00  0.00     0.037 A 
HETATM   27  C   UNL     1     -43.107  55.461 -58.921  1.00  0.00     0.003 A 
HETATM   28  C   UNL     1     -43.253  55.718 -57.558  1.00  0.00     0.009 A 
BRANCH  25  29
HETATM   29  O   UNL     1     -41.840  58.775 -60.004  1.00  0.00    -0.356 OA
HETATM   30  C   UNL     1     -42.805  59.516 -60.743  1.00  0.00     0.210 C 
ENDBRANCH  25  29
ENDBRANCH   1  23
BRANCH   8  31
HETATM   31  C   UNL     1     -41.948  59.983 -53.151  1.00  0.00     0.409 C 
HETATM   32  F   UNL     1     -40.707  59.544 -52.844  1.00  0.00    -0.169 F 
HETATM   33  F   UNL     1     -41.796  60.918 -54.129  1.00  0.00    -0.169 F 
HETATM   34  F   UNL     1     -42.441  60.639 -52.080  1.00  0.00    -0.169 F 
ENDBRANCH   8  31
TORSDOF 6
ENDMDL
MODEL 7
REMARK VINA RESULT:      -8.4      3.923      6.997
REMARK  6 active torsions:
REMARK  status: ('A' for Active; 'I' for Inactive)
REMARK    1  A    between atoms: O_2  and  C_3 
REMARK    2  A    between atoms: C_5  and  C_6 
REMARK    3  A    between atoms: C_12  and  C_13 
REMARK       I    between atoms: C_13  and  N_14 
REMARK    4  A    between atoms: N_14  and  C_15 
REMARK    5  A    between atoms: C_17  and  O_18 
REMARK    6  A    between atoms: C_23  and  C_24 
ROOT
HETATM    1  C   UNL     1     -42.605  54.581 -54.064  1.00  0.00     0.118 C 
HETATM    2  N   UNL     1     -42.577  55.871 -53.358  1.00  0.00    -0.365 N 
HETATM    3  C   UNL     1     -43.374  56.857 -53.861  1.00  0.00     0.138 C 
HETATM    4  N   UNL     1     -43.805  56.812 -55.170  1.00  0.00    -0.240 N 
HETATM    5  N   UNL     1     -44.753  57.719 -55.449  1.00  0.00    -0.181 NA
HETATM    6  C   UNL     1     -44.810  58.458 -54.337  1.00  0.00     0.160 C 
HETATM    7  C   UNL     1     -43.943  57.994 -53.318  1.00  0.00     0.096 C 
HETATM    8  C   UNL     1     -43.483  55.755 -56.113  1.00  0.00     0.221 C 
HETATM    9  C   UNL     1     -42.381  54.834 -55.559  1.00  0.00     0.066 C 
HETATM   10  H   UNL     1     -42.561  55.740 -52.344  1.00  0.00     0.161 HD
ENDROOT
BRANCH   7  11
HETATM   11  C   UNL     1     -43.777  58.589 -52.005  1.00  0.00     0.261 C 
HETATM   12  N   UNL     1     -44.527  59.736 -51.819  1.00  0.00    -0.323 N 
HETATM   13  H   UNL     1     -45.157  59.974 -52.578  1.00  0.00     0.169 HD
HETATM   14  O   UNL     1     -43.071  58.045 -51.163  1.00  0.00    -0.267 OA
BRANCH  12  15
HETATM   15  C   UNL     1     -44.626  60.511 -50.644  1.00  0.00     0.037 A 
HETATM   16  C   UNL     1     -45.437  60.175 -49.557  1.00  0.00     0.066 A 
HETATM   17  C   UNL     1     -45.485  61.010 -48.441  1.00  0.00     0.067 A 
HETATM   18  C   UNL     1     -44.736  62.178 -48.387  1.00  0.00     0.036 A 
HETATM   19  C   UNL     1     -43.919  62.516 -49.461  1.00  0.00     0.005 A 
HETATM   20  C   UNL     1     -43.860  61.684 -50.583  1.00  0.00     0.029 A 
BRANCH  17  21
HETATM   21  O   UNL     1     -46.270  60.708 -47.366  1.00  0.00    -0.361 OA
HETATM   22  H   UNL     1     -45.772  60.114 -46.779  1.00  0.00     0.217 HD
ENDBRANCH  17  21
ENDBRANCH  12  15
ENDBRANCH   7  11
BRANCH   1  23
HETATM   23  C   UNL     1     -41.569  53.637 -53.490  1.00  0.00    -0.033 A 
HETATM   24  C   UNL     1     -41.239  53.644 -52.125  1.00  0.00     0.046 A 
HETATM   25  C   UNL     1     -40.240  52.808 -51.615  1.00  0.00     0.068 A 
HETATM   26  C   UNL     1     -39.570  51.939 -52.474  1.00  0.00     0.037 A 
HETATM   27  C   UNL     1     -39.895  51.910 -53.832  1.00  0.00     0.003 A 
HETATM   28  C   UNL     1     -40.885  52.752 -54.337  1.00  0.00     0.009 A 
BRANCH  25  29
HETATM   29  O   UNL     1     -40.015  52.939 -50.271  1.00  0.00    -0.356 OA
HETATM   30  C   UNL     1     -39.860  54.264 -49.774  1.00  0.00     0.210 C 
ENDBRANCH  25  29
ENDBRANCH   1  23
BRANCH   8  31
HETATM   31  C   UNL     1     -43.051  56.318 -57.449  1.00  0.00     0.409 C 
HETATM   32  F   UNL     1     -44.071  56.906 -58.113  1.00  0.00    -0.169 F 
HETATM   33  F   UNL     1     -42.110  57.282 -57.252  1.00  0.00    -0.169 F 
HETATM   34  F   UNL     1     -42.485  55.406 -58.265  1.00  0.00    -0.169 F 
ENDBRANCH   8  31
TORSDOF 6
ENDMDL
MODEL 8
REMARK VINA RESULT:      -8.2      3.400      4.128
REMARK  6 active torsions:
REMARK  status: ('A' for Active; 'I' for Inactive)
REMARK    1  A    between atoms: O_2  and  C_3 
REMARK    2  A    between atoms: C_5  and  C_6 
REMARK    3  A    between atoms: C_12  and  C_13 
REMARK       I    between atoms: C_13  and  N_14 
REMARK    4  A    between atoms: N_14  and  C_15 
REMARK    5  A    between atoms: C_17  and  O_18 
REMARK    6  A    between atoms: C_23  and  C_24 
ROOT
HETATM    1  C   UNL     1     -41.377  56.870 -53.343  1.00  0.00     0.118 C 
HETATM    2  N   UNL     1     -41.757  57.538 -54.597  1.00  0.00    -0.365 N 
HETATM    3  C   UNL     1     -42.260  58.802 -54.486  1.00  0.00     0.138 C 
HETATM    4  N   UNL     1     -42.802  59.239 -53.296  1.00  0.00    -0.240 N 
HETATM    5  N   UNL     1     -43.043  60.558 -53.275  1.00  0.00    -0.181 NA
HETATM    6  C   UNL     1     -42.797  60.937 -54.533  1.00  0.00     0.160 C 
HETATM    7  C   UNL     1     -42.340  59.876 -55.352  1.00  0.00     0.096 C 
HETATM    8  C   UNL     1     -42.886  58.445 -52.081  1.00  0.00     0.221 C 
HETATM    9  C   UNL     1     -42.548  56.970 -52.359  1.00  0.00     0.066 C 
HETATM   10  H   UNL     1     -41.074  57.359 -55.336  1.00  0.00     0.161 HD
ENDROOT
BRANCH   7  11
HETATM   11  C   UNL     1     -41.998  59.973 -56.759  1.00  0.00     0.261 C 
HETATM   12  N   UNL     1     -41.726  61.264 -57.173  1.00  0.00    -0.323 N 
HETATM   13  H   UNL     1     -41.716  61.966 -56.441  1.00  0.00     0.169 HD
HETATM   14  O   UNL     1     -41.915  58.962 -57.448  1.00  0.00    -0.267 OA
BRANCH  12  15
HETATM   15  C   UNL     1     -41.314  61.680 -58.457  1.00  0.00     0.037 A 
HETATM   16  C   UNL     1     -41.975  61.331 -59.637  1.00  0.00     0.066 A 
HETATM   17  C   UNL     1     -41.487  61.775 -60.865  1.00  0.00     0.067 A 
HETATM   18  C   UNL     1     -40.348  62.564 -60.942  1.00  0.00     0.036 A 
HETATM   19  C   UNL     1     -39.687  62.923 -59.771  1.00  0.00     0.005 A 
HETATM   20  C   UNL     1     -40.170  62.488 -58.533  1.00  0.00     0.029 A 
BRANCH  17  21
HETATM   21  O   UNL     1     -42.112  61.447 -62.035  1.00  0.00    -0.361 OA
HETATM   22  H   UNL     1     -42.170  62.246 -62.586  1.00  0.00     0.217 HD
ENDBRANCH  17  21
ENDBRANCH  12  15
ENDBRANCH   7  11
BRANCH   1  23
HETATM   23  C   UNL     1     -40.979  55.432 -53.604  1.00  0.00    -0.033 A 
HETATM   24  C   UNL     1     -40.864  54.497 -52.562  1.00  0.00     0.046 A 
HETATM   25  C   UNL     1     -40.440  53.186 -52.807  1.00  0.00     0.068 A 
HETATM   26  C   UNL     1     -40.141  52.796 -54.111  1.00  0.00     0.037 A 
HETATM   27  C   UNL     1     -40.262  53.710 -55.160  1.00  0.00     0.003 A 
HETATM   28  C   UNL     1     -40.676  55.018 -54.909  1.00  0.00     0.009 A 
BRANCH  25  29
HETATM   29  O   UNL     1     -40.357  52.394 -51.694  1.00  0.00    -0.356 OA
HETATM   30  C   UNL     1     -39.499  51.262 -51.775  1.00  0.00     0.210 C 
ENDBRANCH  25  29
ENDBRANCH   1  23
BRANCH   8  31
HETATM   31  C   UNL     1     -44.257  58.543 -51.451  1.00  0.00     0.409 C 
HETATM   32  F   UNL     1     -45.239  58.663 -52.372  1.00  0.00    -0.169 F 
HETATM   33  F   UNL     1     -44.518  57.404 -50.753  1.00  0.00    -0.169 F 
HETATM   34  F   UNL     1     -44.378  59.557 -50.570  1.00  0.00    -0.169 F 
ENDBRANCH   8  31
TORSDOF 6
ENDMDL
MODEL 9
REMARK VINA RESULT:      -8.1      4.024      8.112
REMARK  6 active torsions:
REMARK  status: ('A' for Active; 'I' for Inactive)
REMARK    1  A    between atoms: O_2  and  C_3 
REMARK    2  A    between atoms: C_5  and  C_6 
REMARK    3  A    between atoms: C_12  and  C_13 
REMARK       I    between atoms: C_13  and  N_14 
REMARK    4  A    between atoms: N_14  and  C_15 
REMARK    5  A    between atoms: C_17  and  O_18 
REMARK    6  A    between atoms: C_23  and  C_24 
ROOT
HETATM    1  C   UNL     1     -41.958  56.558 -55.461  1.00  0.00     0.118 C 
HETATM    2  N   UNL     1     -42.833  57.199 -54.466  1.00  0.00    -0.365 N 
HETATM    3  C   UNL     1     -42.505  57.009 -53.155  1.00  0.00     0.138 C 
HETATM    4  N   UNL     1     -41.720  55.942 -52.776  1.00  0.00    -0.240 N 
HETATM    5  N   UNL     1     -41.301  56.016 -51.504  1.00  0.00    -0.181 NA
HETATM    6  C   UNL     1     -41.966  57.069 -51.021  1.00  0.00     0.160 C 
HETATM    7  C   UNL     1     -42.768  57.713 -51.995  1.00  0.00     0.096 C 
HETATM    8  C   UNL     1     -41.168  54.953 -53.687  1.00  0.00     0.221 C 
HETATM    9  C   UNL     1     -41.792  55.081 -55.088  1.00  0.00     0.066 C 
HETATM   10  H   UNL     1     -43.102  58.141 -54.759  1.00  0.00     0.161 HD
ENDROOT
BRANCH   7  11
HETATM   11  C   UNL     1     -43.608  58.875 -51.774  1.00  0.00     0.261 C 
HETATM   12  N   UNL     1     -43.343  59.530 -50.585  1.00  0.00    -0.323 N 
HETATM   13  H   UNL     1     -42.551  59.176 -50.058  1.00  0.00     0.169 HD
HETATM   14  O   UNL     1     -44.416  59.227 -52.626  1.00  0.00    -0.267 OA
BRANCH  12  15
HETATM   15  C   UNL     1     -43.945  60.714 -50.110  1.00  0.00     0.037 A 
HETATM   16  C   UNL     1     -45.191  60.754 -49.481  1.00  0.00     0.066 A 
HETATM   17  C   UNL     1     -45.718  61.974 -49.056  1.00  0.00     0.067 A 
HETATM   18  C   UNL     1     -45.022  63.160 -49.247  1.00  0.00     0.036 A 
HETATM   19  C   UNL     1     -43.776  63.129 -49.865  1.00  0.00     0.005 A 
HETATM   20  C   UNL     1     -43.237  61.911 -50.290  1.00  0.00     0.029 A 
BRANCH  17  21
HETATM   21  O   UNL     1     -46.934  62.043 -48.441  1.00  0.00    -0.361 OA
HETATM   22  H   UNL     1     -46.941  61.412 -47.701  1.00  0.00     0.217 HD
ENDBRANCH  17  21
ENDBRANCH  12  15
ENDBRANCH   7  11
BRANCH   1  23
HETATM   23  C   UNL     1     -42.522  56.729 -56.855  1.00  0.00    -0.033 A 
HETATM   24  C   UNL     1     -43.054  55.646 -57.576  1.00  0.00     0.046 A 
HETATM   25  C   UNL     1     -43.520  55.804 -58.886  1.00  0.00     0.068 A 
HETATM   26  C   UNL     1     -43.471  57.062 -59.483  1.00  0.00     0.037 A 
HETATM   27  C   UNL     1     -42.956  58.152 -58.777  1.00  0.00     0.003 A 
HETATM   28  C   UNL     1     -42.484  57.987 -57.475  1.00  0.00     0.009 A 
BRANCH  25  29
HETATM   29  O   UNL     1     -43.992  54.658 -59.466  1.00  0.00    -0.356 OA
HETATM   30  C   UNL     1     -45.108  54.794 -60.338  1.00  0.00     0.210 C 
ENDBRANCH  25  29
ENDBRANCH   1  23
BRANCH   8  31
HETATM   31  C   UNL     1     -41.373  53.547 -53.166  1.00  0.00     0.409 C 
HETATM   32  F   UNL     1     -42.484  53.438 -52.404  1.00  0.00    -0.169 F 
HETATM   33  F   UNL     1     -41.537  52.694 -54.214  1.00  0.00    -0.169 F 
HETATM   34  F   UNL     1     -40.327  53.073 -52.459  1.00  0.00    -0.169 F 
ENDBRANCH   8  31
TORSDOF 6
ENDMDL
MODEL 10
REMARK VINA RESULT:      -8.1      2.746      7.558
REMARK  6 active torsions:
REMARK  status: ('A' for Active; 'I' for Inactive)
REMARK    1  A    between atoms: O_2  and  C_3 
REMARK    2  A    between atoms: C_5  and  C_6 
REMARK    3  A    between atoms: C_12  and  C_13 
REMARK       I    between atoms: C_13  and  N_14 
REMARK    4  A    between atoms: N_14  and  C_15 
REMARK    5  A    between atoms: C_17  and  O_18 
REMARK    6  A    between atoms: C_23  and  C_24 
ROOT
HETATM    1  C   UNL     1     -43.780  58.335 -52.909  1.00  0.00     0.118 C 
HETATM    2  N   UNL     1     -42.958  57.133 -53.118  1.00  0.00    -0.365 N 
HETATM    3  C   UNL     1     -42.229  56.700 -52.049  1.00  0.00     0.138 C 
HETATM    4  N   UNL     1     -41.918  57.560 -51.018  1.00  0.00    -0.240 N 
HETATM    5  N   UNL     1     -41.400  56.940 -49.947  1.00  0.00    -0.181 NA
HETATM    6  C   UNL     1     -41.232  55.684 -50.369  1.00  0.00     0.160 C 
HETATM    7  C   UNL     1     -41.696  55.476 -51.691  1.00  0.00     0.096 C 
HETATM    8  C   UNL     1     -42.322  58.955 -50.951  1.00  0.00     0.221 C 
HETATM    9  C   UNL     1     -42.902  59.430 -52.295  1.00  0.00     0.066 C 
HETATM   10  H   UNL     1     -43.458  56.432 -53.671  1.00  0.00     0.161 HD
ENDROOT
BRANCH   7  11
HETATM   11  C   UNL     1     -41.644  54.225 -52.425  1.00  0.00     0.261 C 
HETATM   12  N   UNL     1     -40.495  53.493 -52.189  1.00  0.00    -0.323 N 
HETATM   13  H   UNL     1     -39.874  53.870 -51.481  1.00  0.00     0.169 HD
HETATM   14  O   UNL     1     -42.589  53.878 -53.125  1.00  0.00    -0.267 OA
BRANCH  12  15
HETATM   15  C   UNL     1     -40.172  52.221 -52.705  1.00  0.00     0.037 A 
HETATM   16  C   UNL     1     -39.878  51.111 -51.909  1.00  0.00     0.066 A 
HETATM   17  C   UNL     1     -39.553  49.893 -52.507  1.00  0.00     0.067 A 
HETATM   18  C   UNL     1     -39.517  49.759 -53.888  1.00  0.00     0.036 A 
HETATM   19  C   UNL     1     -39.816  50.857 -54.689  1.00  0.00     0.005 A 
HETATM   20  C   UNL     1     -40.148  52.081 -54.100  1.00  0.00     0.029 A 
BRANCH  17  21
HETATM   21  O   UNL     1     -39.259  48.793 -51.754  1.00  0.00    -0.361 OA
HETATM   22  H   UNL     1     -39.485  48.984 -50.828  1.00  0.00     0.217 HD
ENDBRANCH  17  21
ENDBRANCH  12  15
ENDBRANCH   7  11
BRANCH   1  23
HETATM   23  C   UNL     1     -44.413  58.781 -54.211  1.00  0.00    -0.033 A 
HETATM   24  C   UNL     1     -44.365  57.985 -55.367  1.00  0.00     0.046 A 
HETATM   25  C   UNL     1     -44.902  58.432 -56.580  1.00  0.00     0.068 A 
HETATM   26  C   UNL     1     -45.510  59.684 -56.638  1.00  0.00     0.037 A 
HETATM   27  C   UNL     1     -45.577  60.484 -55.495  1.00  0.00     0.003 A 
HETATM   28  C   UNL     1     -45.031  60.038 -54.291  1.00  0.00     0.009 A 
BRANCH  25  29
HETATM   29  O   UNL     1     -44.765  57.556 -57.622  1.00  0.00    -0.356 OA
HETATM   30  C   UNL     1     -43.437  57.187 -57.979  1.00  0.00     0.210 C 
ENDBRANCH  25  29
ENDBRANCH   1  23
BRANCH   8  31
HETATM   31  C   UNL     1     -41.166  59.846 -50.553  1.00  0.00     0.409 C 
HETATM   32  F   UNL     1     -41.501  61.156 -50.558  1.00  0.00    -0.169 F 
HETATM   33  F   UNL     1     -40.781  59.550 -49.281  1.00  0.00    -0.169 F 
HETATM   34  F   UNL     1     -40.069  59.688 -51.321  1.00  0.00    -0.169 F 
ENDBRANCH   8  31
TORSDOF 6
ENDMDL
