MODEL 1
REMARK VINA RESULT:      -8.4      0.000      0.000
REMARK  7 active torsions:
REMARK  status: ('A' for Active; 'I' for Inactive)
REMARK    1  A    between atoms: C_3  and  O_4 
REMARK    2  A    between atoms: O_4  and  C_5 
REMARK    3  A    between atoms: C_5  and  C_6 
REMARK       I    between atoms: C_6  and  N_7 
REMARK    4  A    between atoms: N_7  and  C_8 
REMARK    5  A    between atoms: C_11  and  N_12 
REMARK    6  A    between atoms: N_15  and  C_17 
REMARK    7  A    between atoms: C_17  and  C_18 
ROOT
HETATM    1  C   UNL     1     -42.483  55.960 -51.103  1.00  0.00     0.034 A 
HETATM    2  C   UNL     1     -43.864  56.012 -50.937  1.00  0.00     0.032 A 
HETATM    3  C   UNL     1     -44.556  57.230 -51.052  1.00  0.00     0.031 A 
HETATM    4  C   UNL     1     -43.893  58.434 -51.317  1.00  0.00     0.030 A 
HETATM    5  C   UNL     1     -42.503  58.357 -51.489  1.00  0.00     0.031 A 
HETATM    6  C   UNL     1     -41.807  57.146 -51.388  1.00  0.00     0.032 A 
ENDROOT
BRANCH   4   7
HETATM    7  N   UNL     1     -44.546  59.656 -51.454  1.00  0.00    -0.378 N 
HETATM    8  C   UNL     1     -43.741  60.811 -51.901  1.00  0.00     0.150 C 
HETATM    9  C   UNL     1     -43.329  61.689 -50.699  1.00  0.00     0.255 C 
HETATM   10  N   UNL     1     -44.569  62.106 -49.902  1.00  0.00    -0.064 N 
HETATM   11  H   UNL     1     -45.177  62.613 -50.553  1.00  0.00     0.280 HD
HETATM   12  C   UNL     1     -45.336  60.873 -49.428  1.00  0.00     0.255 C 
HETATM   13  C   UNL     1     -45.719  59.986 -50.629  1.00  0.00     0.150 C 
BRANCH  10  14
HETATM   14  C   UNL     1     -44.257  63.047 -48.766  1.00  0.00     0.273 C 
BRANCH  14  15
HETATM   15  C   UNL     1     -45.448  63.328 -47.891  1.00  0.00    -0.033 A 
HETATM   16  C   UNL     1     -46.562  64.021 -48.395  1.00  0.00     0.009 A 
HETATM   17  C   UNL     1     -47.649  64.307 -47.568  1.00  0.00     0.001 A 
HETATM   18  C   UNL     1     -47.641  63.899 -46.236  1.00  0.00     0.000 A 
HETATM   19  C   UNL     1     -46.549  63.199 -45.728  1.00  0.00     0.001 A 
HETATM   20  C   UNL     1     -45.457  62.914 -46.550  1.00  0.00     0.009 A 
ENDBRANCH  14  15
ENDBRANCH  10  14
ENDBRANCH   4   7
BRANCH   1  21
HETATM   21  N   UNL     1     -41.719  54.778 -51.032  1.00  0.00    -0.325 N 
HETATM   22  C   UNL     1     -41.254  54.139 -49.886  1.00  0.00     0.246 C 
HETATM   23  O   UNL     1     -41.390  54.551 -48.739  1.00  0.00    -0.271 OA
HETATM   24  H   UNL     1     -41.457  54.366 -51.920  1.00  0.00     0.169 HD
BRANCH  22  25
HETATM   25  C   UNL     1     -40.527  52.829 -50.221  1.00  0.00     0.278 C 
BRANCH  25  26
HETATM   26  O   UNL     1     -39.613  52.977 -51.304  1.00  0.00    -0.342 OA
BRANCH  26  27
HETATM   27  C   UNL     1     -39.713  51.918 -52.166  1.00  0.00     0.075 A 
HETATM   28  C   UNL     1     -40.072  52.111 -53.506  1.00  0.00    -0.029 A 
HETATM   29  C   UNL     1     -40.351  53.478 -54.059  1.00  0.00     0.051 C 
HETATM   30  C   UNL     1     -40.133  50.992 -54.348  1.00  0.00     0.009 A 
HETATM   31  C   UNL     1     -39.882  49.711 -53.847  1.00  0.00     0.001 A 
HETATM   32  C   UNL     1     -39.568  49.534 -52.500  1.00  0.00     0.003 A 
HETATM   33  C   UNL     1     -39.488  50.638 -51.656  1.00  0.00     0.037 A 
ENDBRANCH  26  27
ENDBRANCH  25  26
ENDBRANCH  22  25
ENDBRANCH   1  21
TORSDOF 7
ENDMDL
MODEL 2
REMARK VINA RESULT:      -8.4      4.615      7.747
REMARK  7 active torsions:
REMARK  status: ('A' for Active; 'I' for Inactive)
REMARK    1  A    between atoms: C_3  and  O_4 
REMARK    2  A    between atoms: O_4  and  C_5 
REMARK    3  A    between atoms: C_5  and  C_6 
REMARK       I    between atoms: C_6  and  N_7 
REMARK    4  A    between atoms: N_7  and  C_8 
REMARK    5  A    between atoms: C_11  and  N_12 
REMARK    6  A    between atoms: N_15  and  C_17 
REMARK    7  A    between atoms: C_17  and  C_18 
ROOT
HETATM    1  C   UNL     1     -42.202  56.391 -52.821  1.00  0.00     0.034 A 
HETATM    2  C   UNL     1     -43.053  57.339 -52.260  1.00  0.00     0.032 A 
HETATM    3  C   UNL     1     -43.672  58.313 -53.061  1.00  0.00     0.031 A 
HETATM    4  C   UNL     1     -43.448  58.385 -54.441  1.00  0.00     0.030 A 
HETATM    5  C   UNL     1     -42.594  57.415 -54.987  1.00  0.00     0.031 A 
HETATM    6  C   UNL     1     -41.982  56.434 -54.197  1.00  0.00     0.032 A 
ENDROOT
BRANCH   4   7
HETATM    7  N   UNL     1     -44.056  59.325 -55.270  1.00  0.00    -0.378 N 
HETATM    8  C   UNL     1     -45.412  59.016 -55.768  1.00  0.00     0.150 C 
HETATM    9  C   UNL     1     -45.353  58.463 -57.209  1.00  0.00     0.255 C 
HETATM   10  N   UNL     1     -44.598  59.438 -58.117  1.00  0.00    -0.064 N 
HETATM   11  H   UNL     1     -45.104  60.329 -58.071  1.00  0.00     0.280 HD
HETATM   12  C   UNL     1     -43.190  59.685 -57.579  1.00  0.00     0.255 C 
HETATM   13  C   UNL     1     -43.254  60.209 -56.130  1.00  0.00     0.150 C 
BRANCH  10  14
HETATM   14  C   UNL     1     -44.582  59.014 -59.564  1.00  0.00     0.273 C 
BRANCH  14  15
HETATM   15  C   UNL     1     -44.607  57.519 -59.738  1.00  0.00    -0.033 A 
HETATM   16  C   UNL     1     -43.475  56.742 -59.437  1.00  0.00     0.009 A 
HETATM   17  C   UNL     1     -43.494  55.361 -59.633  1.00  0.00     0.001 A 
HETATM   18  C   UNL     1     -44.641  54.740 -60.122  1.00  0.00     0.000 A 
HETATM   19  C   UNL     1     -45.774  55.498 -60.411  1.00  0.00     0.001 A 
HETATM   20  C   UNL     1     -45.759  56.881 -60.221  1.00  0.00     0.009 A 
ENDBRANCH  14  15
ENDBRANCH  10  14
ENDBRANCH   4   7
BRANCH   1  21
HETATM   21  N   UNL     1     -41.565  55.366 -52.093  1.00  0.00    -0.325 N 
HETATM   22  C   UNL     1     -42.145  54.212 -51.573  1.00  0.00     0.246 C 
HETATM   23  O   UNL     1     -43.338  53.935 -51.618  1.00  0.00    -0.271 OA
HETATM   24  H   UNL     1     -40.579  55.504 -51.905  1.00  0.00     0.169 HD
BRANCH  22  25
HETATM   25  C   UNL     1     -41.100  53.300 -50.915  1.00  0.00     0.278 C 
BRANCH  25  26
HETATM   26  O   UNL     1     -39.898  53.212 -51.675  1.00  0.00    -0.342 OA
BRANCH  26  27
HETATM   27  C   UNL     1     -39.827  52.009 -52.326  1.00  0.00     0.075 A 
HETATM   28  C   UNL     1     -39.981  51.931 -53.716  1.00  0.00    -0.029 A 
HETATM   29  C   UNL     1     -40.220  53.154 -54.553  1.00  0.00     0.051 C 
HETATM   30  C   UNL     1     -39.872  50.676 -54.328  1.00  0.00     0.009 A 
HETATM   31  C   UNL     1     -39.657  49.526 -53.563  1.00  0.00     0.001 A 
HETATM   32  C   UNL     1     -39.549  49.618 -52.176  1.00  0.00     0.003 A 
HETATM   33  C   UNL     1     -39.639  50.861 -51.554  1.00  0.00     0.037 A 
ENDBRANCH  26  27
ENDBRANCH  25  26
ENDBRANCH  22  25
ENDBRANCH   1  21
TORSDOF 7
ENDMDL
MODEL 3
REMARK VINA RESULT:      -8.1      5.239      9.843
REMARK  7 active torsions:
REMARK  status: ('A' for Active; 'I' for Inactive)
REMARK    1  A    between atoms: C_3  and  O_4 
REMARK    2  A    between atoms: O_4  and  C_5 
REMARK    3  A    between atoms: C_5  and  C_6 
REMARK       I    between atoms: C_6  and  N_7 
REMARK    4  A    between atoms: N_7  and  C_8 
REMARK    5  A    between atoms: C_11  and  N_12 
REMARK    6  A    between atoms: N_15  and  C_17 
REMARK    7  A    between atoms: C_17  and  C_18 
ROOT
HETATM    1  C   UNL     1     -44.465  57.568 -55.101  1.00  0.00     0.034 A 
HETATM    2  C   UNL     1     -43.723  56.391 -55.053  1.00  0.00     0.032 A 
HETATM    3  C   UNL     1     -43.332  55.837 -53.823  1.00  0.00     0.031 A 
HETATM    4  C   UNL     1     -43.650  56.447 -52.603  1.00  0.00     0.030 A 
HETATM    5  C   UNL     1     -44.406  57.628 -52.674  1.00  0.00     0.031 A 
HETATM    6  C   UNL     1     -44.810  58.179 -53.896  1.00  0.00     0.032 A 
ENDROOT
BRANCH   4   7
HETATM    7  N   UNL     1     -43.295  55.919 -51.365  1.00  0.00    -0.378 N 
HETATM    8  C   UNL     1     -42.115  56.499 -50.692  1.00  0.00     0.150 C 
HETATM    9  C   UNL     1     -40.869  55.614 -50.912  1.00  0.00     0.255 C 
HETATM   10  N   UNL     1     -41.158  54.177 -50.464  1.00  0.00    -0.064 N 
HETATM   11  H   UNL     1     -41.419  54.228 -49.474  1.00  0.00     0.280 HD
HETATM   12  C   UNL     1     -42.357  53.614 -51.223  1.00  0.00     0.255 C 
HETATM   13  C   UNL     1     -43.590  54.519 -51.025  1.00  0.00     0.150 C 
BRANCH  10  14
HETATM   14  C   UNL     1     -39.956  53.272 -50.557  1.00  0.00     0.273 C 
BRANCH  14  15
HETATM   15  C   UNL     1     -39.942  52.440 -51.811  1.00  0.00    -0.033 A 
HETATM   16  C   UNL     1     -40.238  53.017 -53.058  1.00  0.00     0.009 A 
HETATM   17  C   UNL     1     -40.256  52.233 -54.212  1.00  0.00     0.001 A 
HETATM   18  C   UNL     1     -39.972  50.871 -54.137  1.00  0.00     0.000 A 
HETATM   19  C   UNL     1     -39.664  50.290 -52.908  1.00  0.00     0.001 A 
HETATM   20  C   UNL     1     -39.649  51.069 -51.750  1.00  0.00     0.009 A 
ENDBRANCH  14  15
ENDBRANCH  10  14
ENDBRANCH   4   7
BRANCH   1  21
HETATM   21  N   UNL     1     -44.920  58.172 -56.290  1.00  0.00    -0.325 N 
HETATM   22  C   UNL     1     -44.168  58.892 -57.214  1.00  0.00     0.246 C 
HETATM   23  O   UNL     1     -42.978  59.167 -57.101  1.00  0.00    -0.271 OA
HETATM   24  H   UNL     1     -45.913  58.096 -56.472  1.00  0.00     0.169 HD
BRANCH  22  25
HETATM   25  C   UNL     1     -45.013  59.320 -58.422  1.00  0.00     0.278 C 
BRANCH  25  26
HETATM   26  O   UNL     1     -44.436  58.913 -59.660  1.00  0.00    -0.342 OA
BRANCH  26  27
HETATM   27  C   UNL     1     -44.707  57.593 -59.906  1.00  0.00     0.075 A 
HETATM   28  C   UNL     1     -43.673  56.659 -60.043  1.00  0.00    -0.029 A 
HETATM   29  C   UNL     1     -42.231  57.054 -59.918  1.00  0.00     0.051 C 
HETATM   30  C   UNL     1     -44.013  55.318 -60.268  1.00  0.00     0.009 A 
HETATM   31  C   UNL     1     -45.351  54.934 -60.394  1.00  0.00     0.001 A 
HETATM   32  C   UNL     1     -46.365  55.886 -60.297  1.00  0.00     0.003 A 
HETATM   33  C   UNL     1     -46.044  57.220 -60.058  1.00  0.00     0.037 A 
ENDBRANCH  26  27
ENDBRANCH  25  26
ENDBRANCH  22  25
ENDBRANCH   1  21
TORSDOF 7
ENDMDL
MODEL 4
REMARK VINA RESULT:      -8.1      6.131      8.666
REMARK  7 active torsions:
REMARK  status: ('A' for Active; 'I' for Inactive)
REMARK    1  A    between atoms: C_3  and  O_4 
REMARK    2  A    between atoms: O_4  and  C_5 
REMARK    3  A    between atoms: C_5  and  C_6 
REMARK       I    between atoms: C_6  and  N_7 
REMARK    4  A    between atoms: N_7  and  C_8 
REMARK    5  A    between atoms: C_11  and  N_12 
REMARK    6  A    between atoms: N_15  and  C_17 
REMARK    7  A    between atoms: C_17  and  C_18 
ROOT
HETATM    1  C   UNL     1     -42.193  55.650 -54.336  1.00  0.00     0.034 A 
HETATM    2  C   UNL     1     -42.658  56.962 -54.331  1.00  0.00     0.032 A 
HETATM    3  C   UNL     1     -43.232  57.525 -55.483  1.00  0.00     0.031 A 
HETATM    4  C   UNL     1     -43.342  56.807 -56.680  1.00  0.00     0.030 A 
HETATM    5  C   UNL     1     -42.874  55.485 -56.661  1.00  0.00     0.031 A 
HETATM    6  C   UNL     1     -42.312  54.912 -55.513  1.00  0.00     0.032 A 
ENDROOT
BRANCH   4   7
HETATM    7  N   UNL     1     -43.919  57.326 -57.836  1.00  0.00    -0.378 N 
HETATM    8  C   UNL     1     -43.753  56.554 -59.084  1.00  0.00     0.150 C 
HETATM    9  C   UNL     1     -42.611  57.141 -59.943  1.00  0.00     0.255 C 
HETATM   10  N   UNL     1     -42.857  58.632 -60.198  1.00  0.00    -0.064 N 
HETATM   11  H   UNL     1     -43.764  58.700 -60.672  1.00  0.00     0.280 HD
HETATM   12  C   UNL     1     -42.975  59.386 -58.875  1.00  0.00     0.255 C 
HETATM   13  C   UNL     1     -44.096  58.776 -58.010  1.00  0.00     0.150 C 
BRANCH  10  14
HETATM   14  C   UNL     1     -41.833  59.255 -61.113  1.00  0.00     0.273 C 
BRANCH  14  15
HETATM   15  C   UNL     1     -42.231  60.624 -61.594  1.00  0.00    -0.033 A 
HETATM   16  C   UNL     1     -41.389  61.730 -61.391  1.00  0.00     0.009 A 
HETATM   17  C   UNL     1     -41.779  63.002 -61.810  1.00  0.00     0.001 A 
HETATM   18  C   UNL     1     -43.007  63.183 -62.442  1.00  0.00     0.000 A 
HETATM   19  C   UNL     1     -43.845  62.092 -62.663  1.00  0.00     0.001 A 
HETATM   20  C   UNL     1     -43.461  60.818 -62.241  1.00  0.00     0.009 A 
ENDBRANCH  14  15
ENDBRANCH  10  14
ENDBRANCH   4   7
BRANCH   1  21
HETATM   21  N   UNL     1     -41.631  55.002 -53.217  1.00  0.00    -0.325 N 
HETATM   22  C   UNL     1     -42.297  54.257 -52.249  1.00  0.00     0.246 C 
HETATM   23  O   UNL     1     -43.512  54.098 -52.185  1.00  0.00    -0.271 OA
HETATM   24  H   UNL     1     -40.632  55.119 -53.094  1.00  0.00     0.169 HD
BRANCH  22  25
HETATM   25  C   UNL     1     -41.322  53.642 -51.235  1.00  0.00     0.278 C 
BRANCH  25  26
HETATM   26  O   UNL     1     -40.049  53.359 -51.809  1.00  0.00    -0.342 OA
BRANCH  26  27
HETATM   27  C   UNL     1     -39.897  52.012 -52.003  1.00  0.00     0.075 A 
HETATM   28  C   UNL     1     -39.852  51.470 -53.294  1.00  0.00    -0.029 A 
HETATM   29  C   UNL     1     -39.958  52.334 -54.516  1.00  0.00     0.051 C 
HETATM   30  C   UNL     1     -39.670  50.087 -53.429  1.00  0.00     0.009 A 
HETATM   31  C   UNL     1     -39.577  49.267 -52.301  1.00  0.00     0.001 A 
HETATM   32  C   UNL     1     -39.667  49.820 -51.024  1.00  0.00     0.003 A 
HETATM   33  C   UNL     1     -39.832  51.194 -50.873  1.00  0.00     0.037 A 
ENDBRANCH  26  27
ENDBRANCH  25  26
ENDBRANCH  22  25
ENDBRANCH   1  21
TORSDOF 7
ENDMDL
MODEL 5
REMARK VINA RESULT:      -7.9      2.917     11.416
REMARK  7 active torsions:
REMARK  status: ('A' for Active; 'I' for Inactive)
REMARK    1  A    between atoms: C_3  and  O_4 
REMARK    2  A    between atoms: O_4  and  C_5 
REMARK    3  A    between atoms: C_5  and  C_6 
REMARK       I    between atoms: C_6  and  N_7 
REMARK    4  A    between atoms: N_7  and  C_8 
REMARK    5  A    between atoms: C_11  and  N_12 
REMARK    6  A    between atoms: N_15  and  C_17 
REMARK    7  A    between atoms: C_17  and  C_18 
ROOT
HETATM    1  C   UNL     1     -44.059  59.736 -50.713  1.00  0.00     0.034 A 
HETATM    2  C   UNL     1     -42.891  59.367 -51.374  1.00  0.00     0.032 A 
HETATM    3  C   UNL     1     -42.804  58.136 -52.044  1.00  0.00     0.031 A 
HETATM    4  C   UNL     1     -43.867  57.226 -52.061  1.00  0.00     0.030 A 
HETATM    5  C   UNL     1     -45.038  57.621 -51.396  1.00  0.00     0.031 A 
HETATM    6  C   UNL     1     -45.138  58.853 -50.736  1.00  0.00     0.032 A 
ENDROOT
BRANCH   4   7
HETATM    7  N   UNL     1     -43.823  56.004 -52.728  1.00  0.00    -0.378 N 
HETATM    8  C   UNL     1     -43.515  54.803 -51.926  1.00  0.00     0.150 C 
HETATM    9  C   UNL     1     -42.027  54.414 -52.071  1.00  0.00     0.255 C 
HETATM   10  N   UNL     1     -41.669  54.244 -53.551  1.00  0.00    -0.064 N 
HETATM   11  H   UNL     1     -42.291  53.517 -53.920  1.00  0.00     0.280 HD
HETATM   12  C   UNL     1     -41.965  55.530 -54.321  1.00  0.00     0.255 C 
HETATM   13  C   UNL     1     -43.444  55.929 -54.148  1.00  0.00     0.150 C 
BRANCH  10  14
HETATM   14  C   UNL     1     -40.255  53.769 -53.770  1.00  0.00     0.273 C 
BRANCH  14  15
HETATM   15  C   UNL     1     -40.060  52.320 -53.413  1.00  0.00    -0.033 A 
HETATM   16  C   UNL     1     -39.776  51.938 -52.091  1.00  0.00     0.009 A 
HETATM   17  C   UNL     1     -39.563  50.596 -51.774  1.00  0.00     0.001 A 
HETATM   18  C   UNL     1     -39.639  49.623 -52.767  1.00  0.00     0.000 A 
HETATM   19  C   UNL     1     -39.933  49.987 -54.079  1.00  0.00     0.001 A 
HETATM   20  C   UNL     1     -40.143  51.329 -54.403  1.00  0.00     0.009 A 
ENDBRANCH  14  15
ENDBRANCH  10  14
ENDBRANCH   4   7
BRANCH   1  21
HETATM   21  N   UNL     1     -44.239  60.963 -50.043  1.00  0.00    -0.325 N 
HETATM   22  C   UNL     1     -44.797  62.132 -50.552  1.00  0.00     0.246 C 
HETATM   23  O   UNL     1     -45.169  62.295 -51.709  1.00  0.00    -0.271 OA
HETATM   24  H   UNL     1     -43.896  61.001 -49.090  1.00  0.00     0.169 HD
BRANCH  22  25
HETATM   25  C   UNL     1     -44.893  63.228 -49.482  1.00  0.00     0.278 C 
BRANCH  25  26
HETATM   26  O   UNL     1     -45.947  62.990 -48.553  1.00  0.00    -0.342 OA
BRANCH  26  27
HETATM   27  C   UNL     1     -45.518  63.212 -47.272  1.00  0.00     0.075 A 
HETATM   28  C   UNL     1     -45.489  62.175 -46.331  1.00  0.00    -0.029 A 
HETATM   29  C   UNL     1     -45.915  60.780 -46.682  1.00  0.00     0.051 C 
HETATM   30  C   UNL     1     -45.016  62.458 -45.043  1.00  0.00     0.009 A 
HETATM   31  C   UNL     1     -44.622  63.753 -44.697  1.00  0.00     0.001 A 
HETATM   32  C   UNL     1     -44.698  64.782 -45.635  1.00  0.00     0.003 A 
HETATM   33  C   UNL     1     -45.151  64.514 -46.924  1.00  0.00     0.037 A 
ENDBRANCH  26  27
ENDBRANCH  25  26
ENDBRANCH  22  25
ENDBRANCH   1  21
TORSDOF 7
ENDMDL
MODEL 6
REMARK VINA RESULT:      -7.9      5.853      7.747
REMARK  7 active torsions:
REMARK  status: ('A' for Active; 'I' for Inactive)
REMARK    1  A    between atoms: C_3  and  O_4 
REMARK    2  A    between atoms: O_4  and  C_5 
REMARK    3  A    between atoms: C_5  and  C_6 
REMARK       I    between atoms: C_6  and  N_7 
REMARK    4  A    between atoms: N_7  and  C_8 
REMARK    5  A    between atoms: C_11  and  N_12 
REMARK    6  A    between atoms: N_15  and  C_17 
REMARK    7  A    between atoms: C_17  and  C_18 
ROOT
HETATM    1  C   UNL     1     -42.536  55.136 -54.118  1.00  0.00     0.034 A 
HETATM    2  C   UNL     1     -43.562  56.053 -53.905  1.00  0.00     0.032 A 
HETATM    3  C   UNL     1     -43.945  56.950 -54.916  1.00  0.00     0.031 A 
HETATM    4  C   UNL     1     -43.307  56.976 -56.162  1.00  0.00     0.030 A 
HETATM    5  C   UNL     1     -42.282  56.039 -56.358  1.00  0.00     0.031 A 
HETATM    6  C   UNL     1     -41.902  55.133 -55.360  1.00  0.00     0.032 A 
ENDROOT
BRANCH   4   7
HETATM    7  N   UNL     1     -43.670  57.839 -57.193  1.00  0.00    -0.378 N 
HETATM    8  C   UNL     1     -42.695  58.045 -58.282  1.00  0.00     0.150 C 
HETATM    9  C   UNL     1     -41.913  59.361 -58.076  1.00  0.00     0.255 C 
HETATM   10  N   UNL     1     -42.887  60.534 -57.924  1.00  0.00    -0.064 N 
HETATM   11  H   UNL     1     -43.450  60.556 -58.781  1.00  0.00     0.280 HD
HETATM   12  C   UNL     1     -43.840  60.287 -56.757  1.00  0.00     0.255 C 
HETATM   13  C   UNL     1     -44.595  58.958 -56.954  1.00  0.00     0.150 C 
BRANCH  10  14
HETATM   14  C   UNL     1     -42.196  61.870 -57.816  1.00  0.00     0.273 C 
BRANCH  14  15
HETATM   15  C   UNL     1     -41.417  62.231 -59.051  1.00  0.00    -0.033 A 
HETATM   16  C   UNL     1     -41.941  61.979 -60.331  1.00  0.00     0.009 A 
HETATM   17  C   UNL     1     -41.198  62.286 -61.471  1.00  0.00     0.001 A 
HETATM   18  C   UNL     1     -39.932  62.852 -61.349  1.00  0.00     0.000 A 
HETATM   19  C   UNL     1     -39.406  63.120 -60.087  1.00  0.00     0.001 A 
HETATM   20  C   UNL     1     -40.144  62.811 -58.942  1.00  0.00     0.009 A 
ENDBRANCH  14  15
ENDBRANCH  10  14
ENDBRANCH   4   7
BRANCH   1  21
HETATM   21  N   UNL     1     -42.110  54.186 -53.169  1.00  0.00    -0.325 N 
HETATM   22  C   UNL     1     -41.440  54.426 -51.973  1.00  0.00     0.246 C 
HETATM   23  O   UNL     1     -41.055  55.524 -51.583  1.00  0.00    -0.271 OA
HETATM   24  H   UNL     1     -42.290  53.217 -53.403  1.00  0.00     0.169 HD
BRANCH  22  25
HETATM   25  C   UNL     1     -41.224  53.134 -51.174  1.00  0.00     0.278 C 
BRANCH  25  26
HETATM   26  O   UNL     1     -39.885  52.655 -51.266  1.00  0.00    -0.342 OA
BRANCH  26  27
HETATM   27  C   UNL     1     -39.788  51.681 -52.222  1.00  0.00     0.075 A 
HETATM   28  C   UNL     1     -39.685  50.330 -51.867  1.00  0.00    -0.029 A 
HETATM   29  C   UNL     1     -39.687  49.889 -50.433  1.00  0.00     0.051 C 
HETATM   30  C   UNL     1     -39.614  49.375 -52.891  1.00  0.00     0.009 A 
HETATM   31  C   UNL     1     -39.604  49.770 -54.232  1.00  0.00     0.001 A 
HETATM   32  C   UNL     1     -39.664  51.122 -54.565  1.00  0.00     0.003 A 
HETATM   33  C   UNL     1     -39.751  52.081 -53.559  1.00  0.00     0.037 A 
ENDBRANCH  26  27
ENDBRANCH  25  26
ENDBRANCH  22  25
ENDBRANCH   1  21
TORSDOF 7
ENDMDL
MODEL 7
REMARK VINA RESULT:      -7.8     18.583     21.271
REMARK  7 active torsions:
REMARK  status: ('A' for Active; 'I' for Inactive)
REMARK    1  A    between atoms: C_3  and  O_4 
REMARK    2  A    between atoms: O_4  and  C_5 
REMARK    3  A    between atoms: C_5  and  C_6 
REMARK       I    between atoms: C_6  and  N_7 
REMARK    4  A    between atoms: N_7  and  C_8 
REMARK    5  A    between atoms: C_11  and  N_12 
REMARK    6  A    between atoms: N_15  and  C_17 
REMARK    7  A    between atoms: C_17  and  C_18 
ROOT
HETATM    1  C   UNL     1     -36.684  40.224 -59.341  1.00  0.00     0.034 A 
HETATM    2  C   UNL     1     -36.890  41.528 -58.899  1.00  0.00     0.032 A 
HETATM    3  C   UNL     1     -36.258  42.000 -57.737  1.00  0.00     0.031 A 
HETATM    4  C   UNL     1     -35.419  41.185 -56.968  1.00  0.00     0.030 A 
HETATM    5  C   UNL     1     -35.219  39.877 -57.436  1.00  0.00     0.031 A 
HETATM    6  C   UNL     1     -35.835  39.402 -58.601  1.00  0.00     0.032 A 
ENDROOT
BRANCH   4   7
HETATM    7  N   UNL     1     -34.763  41.623 -55.821  1.00  0.00    -0.378 N 
HETATM    8  C   UNL     1     -33.899  40.653 -55.119  1.00  0.00     0.150 C 
HETATM    9  C   UNL     1     -34.636  40.040 -53.907  1.00  0.00     0.255 C 
HETATM   10  N   UNL     1     -35.148  41.151 -52.985  1.00  0.00    -0.064 N 
HETATM   11  H   UNL     1     -34.326  41.692 -52.697  1.00  0.00     0.280 HD
HETATM   12  C   UNL     1     -36.070  42.097 -53.752  1.00  0.00     0.255 C 
HETATM   13  C   UNL     1     -35.339  42.682 -54.976  1.00  0.00     0.150 C 
BRANCH  10  14
HETATM   14  C   UNL     1     -35.795  40.629 -51.727  1.00  0.00     0.273 C 
BRANCH  14  15
HETATM   15  C   UNL     1     -34.801  40.098 -50.731  1.00  0.00    -0.033 A 
HETATM   16  C   UNL     1     -33.539  40.700 -50.585  1.00  0.00     0.009 A 
HETATM   17  C   UNL     1     -32.609  40.181 -49.683  1.00  0.00     0.001 A 
HETATM   18  C   UNL     1     -32.929  39.065 -48.913  1.00  0.00     0.000 A 
HETATM   19  C   UNL     1     -34.182  38.468 -49.039  1.00  0.00     0.001 A 
HETATM   20  C   UNL     1     -35.114  38.980 -49.943  1.00  0.00     0.009 A 
ENDBRANCH  14  15
ENDBRANCH  10  14
ENDBRANCH   4   7
BRANCH   1  21
HETATM   21  N   UNL     1     -37.256  39.682 -60.510  1.00  0.00    -0.325 N 
HETATM   22  C   UNL     1     -36.628  38.898 -61.473  1.00  0.00     0.246 C 
HETATM   23  O   UNL     1     -35.437  38.603 -61.484  1.00  0.00    -0.271 OA
HETATM   24  H   UNL     1     -38.227  39.916 -60.677  1.00  0.00     0.169 HD
BRANCH  22  25
HETATM   25  C   UNL     1     -37.612  38.432 -62.555  1.00  0.00     0.278 C 
BRANCH  25  26
HETATM   26  O   UNL     1     -38.305  37.243 -62.185  1.00  0.00    -0.342 OA
BRANCH  26  27
HETATM   27  C   UNL     1     -39.647  37.486 -62.065  1.00  0.00     0.075 A 
HETATM   28  C   UNL     1     -40.274  37.466 -60.813  1.00  0.00    -0.029 A 
HETATM   29  C   UNL     1     -39.509  37.191 -59.552  1.00  0.00     0.051 C 
HETATM   30  C   UNL     1     -41.646  37.748 -60.751  1.00  0.00     0.009 A 
HETATM   31  C   UNL     1     -42.374  38.000 -61.916  1.00  0.00     0.001 A 
HETATM   32  C   UNL     1     -41.741  37.972 -63.158  1.00  0.00     0.003 A 
HETATM   33  C   UNL     1     -40.376  37.710 -63.235  1.00  0.00     0.037 A 
ENDBRANCH  26  27
ENDBRANCH  25  26
ENDBRANCH  22  25
ENDBRANCH   1  21
TORSDOF 7
ENDMDL
MODEL 8
REMARK VINA RESULT:      -7.8      1.980      3.083
REMARK  7 active torsions:
REMARK  status: ('A' for Active; 'I' for Inactive)
REMARK    1  A    between atoms: C_3  and  O_4 
REMARK    2  A    between atoms: O_4  and  C_5 
REMARK    3  A    between atoms: C_5  and  C_6 
REMARK       I    between atoms: C_6  and  N_7 
REMARK    4  A    between atoms: N_7  and  C_8 
REMARK    5  A    between atoms: C_11  and  N_12 
REMARK    6  A    between atoms: N_15  and  C_17 
REMARK    7  A    between atoms: C_17  and  C_18 
ROOT
HETATM    1  C   UNL     1     -43.782  57.938 -51.327  1.00  0.00     0.034 A 
HETATM    2  C   UNL     1     -45.110  58.264 -51.069  1.00  0.00     0.032 A 
HETATM    3  C   UNL     1     -45.487  59.593 -50.815  1.00  0.00     0.031 A 
HETATM    4  C   UNL     1     -44.553  60.635 -50.790  1.00  0.00     0.030 A 
HETATM    5  C   UNL     1     -43.221  60.286 -51.060  1.00  0.00     0.031 A 
HETATM    6  C   UNL     1     -42.838  58.965 -51.327  1.00  0.00     0.032 A 
ENDROOT
BRANCH   4   7
HETATM    7  N   UNL     1     -44.891  61.966 -50.558  1.00  0.00    -0.378 N 
HETATM    8  C   UNL     1     -43.965  62.770 -49.735  1.00  0.00     0.150 C 
HETATM    9  C   UNL     1     -44.471  62.867 -48.279  1.00  0.00     0.255 C 
HETATM   10  N   UNL     1     -45.904  63.407 -48.254  1.00  0.00    -0.064 N 
HETATM   11  H   UNL     1     -45.877  64.325 -48.710  1.00  0.00     0.280 HD
HETATM   12  C   UNL     1     -46.824  62.513 -49.083  1.00  0.00     0.255 C 
HETATM   13  C   UNL     1     -46.298  62.395 -50.527  1.00  0.00     0.150 C 
BRANCH  10  14
HETATM   14  C   UNL     1     -46.435  63.623 -46.859  1.00  0.00     0.273 C 
BRANCH  14  15
HETATM   15  C   UNL     1     -45.551  63.030 -45.796  1.00  0.00    -0.033 A 
HETATM   16  C   UNL     1     -45.306  61.646 -45.754  1.00  0.00     0.009 A 
HETATM   17  C   UNL     1     -44.513  61.099 -44.745  1.00  0.00     0.001 A 
HETATM   18  C   UNL     1     -43.949  61.924 -43.774  1.00  0.00     0.000 A 
HETATM   19  C   UNL     1     -44.173  63.299 -43.813  1.00  0.00     0.001 A 
HETATM   20  C   UNL     1     -44.970  63.851 -44.818  1.00  0.00     0.009 A 
ENDBRANCH  14  15
ENDBRANCH  10  14
ENDBRANCH   4   7
BRANCH   1  21
HETATM   21  N   UNL     1     -43.326  56.637 -51.618  1.00  0.00    -0.325 N 
HETATM   22  C   UNL     1     -43.284  56.014 -52.863  1.00  0.00     0.246 C 
HETATM   23  O   UNL     1     -43.705  56.492 -53.911  1.00  0.00    -0.271 OA
HETATM   24  H   UNL     1     -43.021  56.087 -50.824  1.00  0.00     0.169 HD
BRANCH  22  25
HETATM   25  C   UNL     1     -42.641  54.623 -52.779  1.00  0.00     0.278 C 
BRANCH  25  26
HETATM   26  O   UNL     1     -41.219  54.675 -52.863  1.00  0.00    -0.342 OA
BRANCH  26  27
HETATM   27  C   UNL     1     -40.695  53.412 -52.936  1.00  0.00     0.075 A 
HETATM   28  C   UNL     1     -40.032  52.843 -51.842  1.00  0.00    -0.029 A 
HETATM   29  C   UNL     1     -39.873  53.580 -50.544  1.00  0.00     0.051 C 
HETATM   30  C   UNL     1     -39.539  51.537 -51.968  1.00  0.00     0.009 A 
HETATM   31  C   UNL     1     -39.672  50.839 -53.171  1.00  0.00     0.001 A 
HETATM   32  C   UNL     1     -40.298  51.438 -54.264  1.00  0.00     0.003 A 
HETATM   33  C   UNL     1     -40.807  52.729 -54.149  1.00  0.00     0.037 A 
ENDBRANCH  26  27
ENDBRANCH  25  26
ENDBRANCH  22  25
ENDBRANCH   1  21
TORSDOF 7
ENDMDL
MODEL 9
REMARK VINA RESULT:      -7.8      5.080     11.825
REMARK  7 active torsions:
REMARK  status: ('A' for Active; 'I' for Inactive)
REMARK    1  A    between atoms: C_3  and  O_4 
REMARK    2  A    between atoms: O_4  and  C_5 
REMARK    3  A    between atoms: C_5  and  C_6 
REMARK       I    between atoms: C_6  and  N_7 
REMARK    4  A    between atoms: N_7  and  C_8 
REMARK    5  A    between atoms: C_11  and  N_12 
REMARK    6  A    between atoms: N_15  and  C_17 
REMARK    7  A    between atoms: C_17  and  C_18 
ROOT
HETATM    1  C   UNL     1     -46.482  60.618 -52.444  1.00  0.00     0.034 A 
HETATM    2  C   UNL     1     -45.454  60.600 -53.382  1.00  0.00     0.032 A 
HETATM    3  C   UNL     1     -44.312  59.807 -53.181  1.00  0.00     0.031 A 
HETATM    4  C   UNL     1     -44.149  59.023 -52.033  1.00  0.00     0.030 A 
HETATM    5  C   UNL     1     -45.201  59.049 -51.105  1.00  0.00     0.031 A 
HETATM    6  C   UNL     1     -46.348  59.827 -51.303  1.00  0.00     0.032 A 
ENDROOT
BRANCH   4   7
HETATM    7  N   UNL     1     -43.040  58.212 -51.808  1.00  0.00    -0.378 N 
HETATM    8  C   UNL     1     -41.949  58.260 -52.803  1.00  0.00     0.150 C 
HETATM    9  C   UNL     1     -42.046  57.069 -53.781  1.00  0.00     0.255 C 
HETATM   10  N   UNL     1     -42.078  55.750 -53.002  1.00  0.00    -0.064 N 
HETATM   11  H   UNL     1     -41.216  55.718 -52.448  1.00  0.00     0.280 HD
HETATM   12  C   UNL     1     -43.250  55.737 -52.023  1.00  0.00     0.255 C 
HETATM   13  C   UNL     1     -43.164  56.946 -51.069  1.00  0.00     0.150 C 
BRANCH  10  14
HETATM   14  C   UNL     1     -42.074  54.533 -53.893  1.00  0.00     0.273 C 
BRANCH  14  15
HETATM   15  C   UNL     1     -41.132  53.460 -53.419  1.00  0.00    -0.033 A 
HETATM   16  C   UNL     1     -40.710  52.439 -54.288  1.00  0.00     0.009 A 
HETATM   17  C   UNL     1     -39.862  51.429 -53.832  1.00  0.00     0.001 A 
HETATM   18  C   UNL     1     -39.421  51.431 -52.511  1.00  0.00     0.000 A 
HETATM   19  C   UNL     1     -39.820  52.445 -51.643  1.00  0.00     0.001 A 
HETATM   20  C   UNL     1     -40.672  53.456 -52.093  1.00  0.00     0.009 A 
ENDBRANCH  14  15
ENDBRANCH  10  14
ENDBRANCH   4   7
BRANCH   1  21
HETATM   21  N   UNL     1     -47.671  61.362 -52.582  1.00  0.00    -0.325 N 
HETATM   22  C   UNL     1     -47.834  62.734 -52.413  1.00  0.00     0.246 C 
HETATM   23  O   UNL     1     -46.960  63.514 -52.048  1.00  0.00    -0.271 OA
HETATM   24  H   UNL     1     -48.504  60.829 -52.802  1.00  0.00     0.169 HD
BRANCH  22  25
HETATM   25  C   UNL     1     -49.268  63.179 -52.734  1.00  0.00     0.278 C 
BRANCH  25  26
HETATM   26  O   UNL     1     -50.218  62.135 -52.538  1.00  0.00    -0.342 OA
BRANCH  26  27
HETATM   27  C   UNL     1     -51.269  62.273 -53.404  1.00  0.00     0.075 A 
HETATM   28  C   UNL     1     -52.524  62.701 -52.952  1.00  0.00    -0.029 A 
HETATM   29  C   UNL     1     -52.770  63.036 -51.510  1.00  0.00     0.051 C 
HETATM   30  C   UNL     1     -53.555  62.848 -53.889  1.00  0.00     0.009 A 
HETATM   31  C   UNL     1     -53.344  62.534 -55.235  1.00  0.00     0.001 A 
HETATM   32  C   UNL     1     -52.100  62.068 -55.659  1.00  0.00     0.003 A 
HETATM   33  C   UNL     1     -51.061  61.932 -54.742  1.00  0.00     0.037 A 
ENDBRANCH  26  27
ENDBRANCH  25  26
ENDBRANCH  22  25
ENDBRANCH   1  21
TORSDOF 7
ENDMDL
MODEL 10
REMARK VINA RESULT:      -7.7      3.087     11.088
REMARK  7 active torsions:
REMARK  status: ('A' for Active; 'I' for Inactive)
REMARK    1  A    between atoms: C_3  and  O_4 
REMARK    2  A    between atoms: O_4  and  C_5 
REMARK    3  A    between atoms: C_5  and  C_6 
REMARK       I    between atoms: C_6  and  N_7 
REMARK    4  A    between atoms: N_7  and  C_8 
REMARK    5  A    between atoms: C_11  and  N_12 
REMARK    6  A    between atoms: N_15  and  C_17 
REMARK    7  A    between atoms: C_17  and  C_18 
ROOT
HETATM    1  C   UNL     1     -43.248  61.375 -50.430  1.00  0.00     0.034 A 
HETATM    2  C   UNL     1     -42.193  60.495 -50.208  1.00  0.00     0.032 A 
HETATM    3  C   UNL     1     -41.770  59.612 -51.216  1.00  0.00     0.031 A 
HETATM    4  C   UNL     1     -42.396  59.564 -52.467  1.00  0.00     0.030 A 
HETATM    5  C   UNL     1     -43.452  60.465 -52.672  1.00  0.00     0.031 A 
HETATM    6  C   UNL     1     -43.871  61.357 -51.677  1.00  0.00     0.032 A 
ENDROOT
BRANCH   4   7
HETATM    7  N   UNL     1     -41.994  58.715 -53.495  1.00  0.00    -0.378 N 
HETATM    8  C   UNL     1     -43.022  58.290 -54.467  1.00  0.00     0.150 C 
HETATM    9  C   UNL     1     -43.548  56.878 -54.127  1.00  0.00     0.255 C 
HETATM   10  N   UNL     1     -42.380  55.891 -54.032  1.00  0.00    -0.064 N 
HETATM   11  H   UNL     1     -41.906  55.912 -54.941  1.00  0.00     0.280 HD
HETATM   12  C   UNL     1     -41.374  56.356 -52.981  1.00  0.00     0.255 C 
HETATM   13  C   UNL     1     -40.875  57.778 -53.310  1.00  0.00     0.150 C 
BRANCH  10  14
HETATM   14  C   UNL     1     -42.822  54.468 -53.798  1.00  0.00     0.273 C 
BRANCH  14  15
HETATM   15  C   UNL     1     -41.694  53.563 -53.385  1.00  0.00    -0.033 A 
HETATM   16  C   UNL     1     -41.347  53.418 -52.031  1.00  0.00     0.009 A 
HETATM   17  C   UNL     1     -40.278  52.603 -51.659  1.00  0.00     0.001 A 
HETATM   18  C   UNL     1     -39.549  51.918 -52.629  1.00  0.00     0.000 A 
HETATM   19  C   UNL     1     -39.892  52.042 -53.974  1.00  0.00     0.001 A 
HETATM   20  C   UNL     1     -40.958  52.860 -54.352  1.00  0.00     0.009 A 
ENDBRANCH  14  15
ENDBRANCH  10  14
ENDBRANCH   4   7
BRANCH   1  21
HETATM   21  N   UNL     1     -43.715  62.310 -49.484  1.00  0.00    -0.325 N 
HETATM   22  C   UNL     1     -44.777  62.158 -48.597  1.00  0.00     0.246 C 
HETATM   23  O   UNL     1     -45.525  61.187 -48.544  1.00  0.00    -0.271 OA
HETATM   24  H   UNL     1     -43.238  63.203 -49.473  1.00  0.00     0.169 HD
BRANCH  22  25
HETATM   25  C   UNL     1     -44.919  63.372 -47.669  1.00  0.00     0.278 C 
BRANCH  25  26
HETATM   26  O   UNL     1     -45.745  63.100 -46.540  1.00  0.00    -0.342 OA
BRANCH  26  27
HETATM   27  C   UNL     1     -45.035  63.241 -45.379  1.00  0.00     0.075 A 
HETATM   28  C   UNL     1     -44.592  62.121 -44.664  1.00  0.00    -0.029 A 
HETATM   29  C   UNL     1     -44.865  60.723 -45.138  1.00  0.00     0.051 C 
HETATM   30  C   UNL     1     -43.846  62.328 -43.495  1.00  0.00     0.009 A 
HETATM   31  C   UNL     1     -43.589  63.623 -43.036  1.00  0.00     0.001 A 
HETATM   32  C   UNL     1     -44.075  64.725 -43.738  1.00  0.00     0.003 A 
HETATM   33  C   UNL     1     -44.803  64.535 -44.909  1.00  0.00     0.037 A 
ENDBRANCH  26  27
ENDBRANCH  25  26
ENDBRANCH  22  25
ENDBRANCH   1  21
TORSDOF 7
ENDMDL
