MODEL 1
REMARK VINA RESULT:      -9.0      0.000      0.000
REMARK  5 active torsions:
REMARK  status: ('A' for Active; 'I' for Inactive)
REMARK    1  A    between atoms: C_3  and  O_4 
REMARK    2  A    between atoms: C_6  and  N_7 
REMARK       I    between atoms: N_7  and  C_8 
REMARK    3  A    between atoms: C_8  and  C_9 
REMARK    4  A    between atoms: C_12  and  C_13 
REMARK    5  A    between atoms: C_18  and  C_19 
ROOT
HETATM    1  C   UNL     1     -43.102  57.534 -55.004  1.00  0.00     0.096 A 
HETATM    2  C   UNL     1     -42.937  56.812 -53.836  1.00  0.00     0.138 A 
HETATM    3  N   UNL     1     -41.922  57.436 -53.147  1.00  0.00    -0.240 N 
HETATM    4  C   UNL     1     -41.369  56.957 -51.893  1.00  0.00     0.221 C 
HETATM    5  C   UNL     1     -42.341  55.962 -51.232  1.00  0.00     0.066 C 
HETATM    6  C   UNL     1     -42.898  54.952 -52.244  1.00  0.00     0.118 C 
HETATM    7  N   UNL     1     -43.523  55.677 -53.359  1.00  0.00    -0.365 N 
HETATM    8  N   UNL     1     -41.330  58.418 -53.844  1.00  0.00    -0.181 NA
HETATM    9  C   UNL     1     -42.061  58.493 -54.960  1.00  0.00     0.160 A 
HETATM   10  H   UNL     1     -43.962  55.042 -54.029  1.00  0.00     0.161 HD
ENDROOT
BRANCH   1  11
HETATM   11  C   UNL     1     -44.060  57.339 -56.079  1.00  0.00     0.261 C 
HETATM   12  N   UNL     1     -43.532  56.650 -57.154  1.00  0.00    -0.323 N 
HETATM   13  H   UNL     1     -42.615  56.245 -56.999  1.00  0.00     0.169 HD
HETATM   14  O   UNL     1     -45.213  57.737 -55.968  1.00  0.00    -0.267 OA
BRANCH  12  15
HETATM   15  C   UNL     1     -44.143  56.381 -58.393  1.00  0.00     0.037 A 
HETATM   16  C   UNL     1     -44.925  57.302 -59.093  1.00  0.00     0.066 A 
HETATM   17  C   UNL     1     -45.467  56.956 -60.330  1.00  0.00     0.067 A 
HETATM   18  C   UNL     1     -45.250  55.700 -60.886  1.00  0.00     0.036 A 
HETATM   19  C   UNL     1     -44.470  54.777 -60.193  1.00  0.00     0.005 A 
HETATM   20  C   UNL     1     -43.916  55.117 -58.956  1.00  0.00     0.029 A 
BRANCH  17  21
HETATM   21  O   UNL     1     -46.212  57.896 -60.981  1.00  0.00    -0.361 OA
HETATM   22  H   UNL     1     -45.682  58.277 -61.699  1.00  0.00     0.217 HD
ENDBRANCH  17  21
ENDBRANCH  12  15
ENDBRANCH   1  11
BRANCH   4  23
HETATM   23  C   UNL     1     -41.083  58.092 -50.932  1.00  0.00     0.409 C 
HETATM   24  F   UNL     1     -42.052  59.035 -50.949  1.00  0.00    -0.169 F 
HETATM   25  F   UNL     1     -41.041  57.608 -49.659  1.00  0.00    -0.169 F 
HETATM   26  F   UNL     1     -39.897  58.696 -51.140  1.00  0.00    -0.169 F 
ENDBRANCH   4  23
BRANCH   6  27
HETATM   27  C   UNL     1     -41.872  53.916 -52.688  1.00  0.00    -0.035 A 
HETATM   28  C   UNL     1     -40.992  53.381 -51.725  1.00  0.00     0.012 A 
HETATM   29  C   UNL     1     -40.028  52.434 -52.078  1.00  0.00     0.043 A 
HETATM   30  C   UNL     1     -39.938  52.005 -53.394  1.00  0.00     0.116 A 
HETATM   31  F   UNL     1     -39.016  51.095 -53.732  1.00  0.00    -0.206 F 
HETATM   32  C   UNL     1     -40.792  52.509 -54.364  1.00  0.00     0.043 A 
HETATM   33  C   UNL     1     -41.754  53.460 -54.014  1.00  0.00     0.012 A 
ENDBRANCH   6  27
TORSDOF 5
ENDMDL
MODEL 2
REMARK VINA RESULT:      -8.9      1.381      1.943
REMARK  5 active torsions:
REMARK  status: ('A' for Active; 'I' for Inactive)
REMARK    1  A    between atoms: C_3  and  O_4 
REMARK    2  A    between atoms: C_6  and  N_7 
REMARK       I    between atoms: N_7  and  C_8 
REMARK    3  A    between atoms: C_8  and  C_9 
REMARK    4  A    between atoms: C_12  and  C_13 
REMARK    5  A    between atoms: C_18  and  C_19 
ROOT
HETATM    1  C   UNL     1     -42.534  57.887 -54.625  1.00  0.00     0.096 A 
HETATM    2  C   UNL     1     -42.462  57.469 -53.308  1.00  0.00     0.138 A 
HETATM    3  N   UNL     1     -41.461  58.215 -52.729  1.00  0.00    -0.240 N 
HETATM    4  C   UNL     1     -40.997  58.043 -51.364  1.00  0.00     0.221 C 
HETATM    5  C   UNL     1     -42.044  57.267 -50.543  1.00  0.00     0.066 C 
HETATM    6  C   UNL     1     -42.587  56.056 -51.312  1.00  0.00     0.118 C 
HETATM    7  N   UNL     1     -43.120  56.502 -52.607  1.00  0.00    -0.365 N 
HETATM    8  N   UNL     1     -40.792  58.979 -53.606  1.00  0.00    -0.181 NA
HETATM    9  C   UNL     1     -41.458  58.798 -54.750  1.00  0.00     0.160 A 
HETATM   10  H   UNL     1     -43.549  55.734 -53.129  1.00  0.00     0.161 HD
ENDROOT
BRANCH   1  11
HETATM   11  C   UNL     1     -43.439  57.460 -55.677  1.00  0.00     0.261 C 
HETATM   12  N   UNL     1     -42.783  57.070 -56.830  1.00  0.00    -0.323 N 
HETATM   13  H   UNL     1     -41.776  56.986 -56.745  1.00  0.00     0.169 HD
HETATM   14  O   UNL     1     -44.650  57.438 -55.489  1.00  0.00    -0.267 OA
BRANCH  12  15
HETATM   15  C   UNL     1     -43.350  56.703 -58.065  1.00  0.00     0.037 A 
HETATM   16  C   UNL     1     -43.665  55.390 -58.419  1.00  0.00     0.066 A 
HETATM   17  C   UNL     1     -44.252  55.125 -59.656  1.00  0.00     0.067 A 
HETATM   18  C   UNL     1     -44.527  56.149 -60.556  1.00  0.00     0.036 A 
HETATM   19  C   UNL     1     -44.214  57.461 -60.209  1.00  0.00     0.005 A 
HETATM   20  C   UNL     1     -43.633  57.737 -58.968  1.00  0.00     0.029 A 
BRANCH  17  21
HETATM   21  O   UNL     1     -44.555  53.828 -59.949  1.00  0.00    -0.361 OA
HETATM   22  H   UNL     1     -45.069  53.451 -59.218  1.00  0.00     0.217 HD
ENDBRANCH  17  21
ENDBRANCH  12  15
ENDBRANCH   1  11
BRANCH   4  23
HETATM   23  C   UNL     1     -40.716  59.370 -50.693  1.00  0.00     0.409 C 
HETATM   24  F   UNL     1     -41.575  60.338 -51.088  1.00  0.00    -0.169 F 
HETATM   25  F   UNL     1     -40.880  59.240 -49.346  1.00  0.00    -0.169 F 
HETATM   26  F   UNL     1     -39.458  59.817 -50.873  1.00  0.00    -0.169 F 
ENDBRANCH   4  23
BRANCH   6  27
HETATM   27  C   UNL     1     -41.583  54.914 -51.426  1.00  0.00    -0.035 A 
HETATM   28  C   UNL     1     -41.532  54.178 -52.628  1.00  0.00     0.012 A 
HETATM   29  C   UNL     1     -40.637  53.118 -52.785  1.00  0.00     0.043 A 
HETATM   30  C   UNL     1     -39.779  52.785 -51.746  1.00  0.00     0.116 A 
HETATM   31  F   UNL     1     -38.918  51.771 -51.898  1.00  0.00    -0.206 F 
HETATM   32  C   UNL     1     -39.801  53.493 -50.553  1.00  0.00     0.043 A 
HETATM   33  C   UNL     1     -40.699  54.552 -50.393  1.00  0.00     0.012 A 
ENDBRANCH   6  27
TORSDOF 5
ENDMDL
MODEL 3
REMARK VINA RESULT:      -8.8      1.567      2.107
REMARK  5 active torsions:
REMARK  status: ('A' for Active; 'I' for Inactive)
REMARK    1  A    between atoms: C_3  and  O_4 
REMARK    2  A    between atoms: C_6  and  N_7 
REMARK       I    between atoms: N_7  and  C_8 
REMARK    3  A    between atoms: C_8  and  C_9 
REMARK    4  A    between atoms: C_12  and  C_13 
REMARK    5  A    between atoms: C_18  and  C_19 
ROOT
HETATM    1  C   UNL     1     -42.838  57.743 -56.333  1.00  0.00     0.096 A 
HETATM    2  C   UNL     1     -43.115  57.010 -55.194  1.00  0.00     0.138 A 
HETATM    3  N   UNL     1     -42.585  57.728 -54.146  1.00  0.00    -0.240 N 
HETATM    4  C   UNL     1     -42.584  57.279 -52.765  1.00  0.00     0.221 C 
HETATM    5  C   UNL     1     -43.621  56.157 -52.572  1.00  0.00     0.066 C 
HETATM    6  C   UNL     1     -43.555  55.120 -53.700  1.00  0.00     0.118 C 
HETATM    7  N   UNL     1     -43.711  55.800 -54.994  1.00  0.00    -0.365 N 
HETATM    8  N   UNL     1     -41.870  58.793 -54.537  1.00  0.00    -0.181 NA
HETATM    9  C   UNL     1     -42.043  58.815 -55.862  1.00  0.00     0.160 A 
HETATM   10  H   UNL     1     -43.734  55.138 -55.773  1.00  0.00     0.161 HD
ENDROOT
BRANCH   1  11
HETATM   11  C   UNL     1     -43.199  57.469 -57.714  1.00  0.00     0.261 C 
HETATM   12  N   UNL     1     -44.536  57.157 -57.871  1.00  0.00    -0.323 N 
HETATM   13  H   UNL     1     -45.113  57.305 -57.050  1.00  0.00     0.169 HD
HETATM   14  O   UNL     1     -42.364  57.556 -58.607  1.00  0.00    -0.267 OA
BRANCH  12  15
HETATM   15  C   UNL     1     -45.194  56.740 -59.043  1.00  0.00     0.037 A 
HETATM   16  C   UNL     1     -44.676  55.800 -59.936  1.00  0.00     0.066 A 
HETATM   17  C   UNL     1     -45.414  55.426 -61.058  1.00  0.00     0.067 A 
HETATM   18  C   UNL     1     -46.665  55.979 -61.314  1.00  0.00     0.036 A 
HETATM   19  C   UNL     1     -47.187  56.917 -60.428  1.00  0.00     0.005 A 
HETATM   20  C   UNL     1     -46.458  57.292 -59.296  1.00  0.00     0.029 A 
BRANCH  17  21
HETATM   21  O   UNL     1     -44.872  54.493 -61.893  1.00  0.00    -0.361 OA
HETATM   22  H   UNL     1     -44.389  54.948 -62.602  1.00  0.00     0.217 HD
ENDBRANCH  17  21
ENDBRANCH  12  15
ENDBRANCH   1  11
BRANCH   4  23
HETATM   23  C   UNL     1     -42.883  58.410 -51.804  1.00  0.00     0.409 C 
HETATM   24  F   UNL     1     -43.697  59.343 -52.347  1.00  0.00    -0.169 F 
HETATM   25  F   UNL     1     -43.538  57.917 -50.715  1.00  0.00    -0.169 F 
HETATM   26  F   UNL     1     -41.784  59.027 -51.329  1.00  0.00    -0.169 F 
ENDBRANCH   4  23
BRANCH   6  27
HETATM   27  C   UNL     1     -42.323  54.225 -53.626  1.00  0.00    -0.035 A 
HETATM   28  C   UNL     1     -41.699  53.835 -54.829  1.00  0.00     0.012 A 
HETATM   29  C   UNL     1     -40.572  53.011 -54.821  1.00  0.00     0.043 A 
HETATM   30  C   UNL     1     -40.052  52.572 -53.611  1.00  0.00     0.116 A 
HETATM   31  F   UNL     1     -38.969  51.784 -53.603  1.00  0.00    -0.206 F 
HETATM   32  C   UNL     1     -40.641  52.941 -52.411  1.00  0.00     0.043 A 
HETATM   33  C   UNL     1     -41.771  53.763 -52.417  1.00  0.00     0.012 A 
ENDBRANCH   6  27
TORSDOF 5
ENDMDL
MODEL 4
REMARK VINA RESULT:      -8.6      3.616      7.367
REMARK  5 active torsions:
REMARK  status: ('A' for Active; 'I' for Inactive)
REMARK    1  A    between atoms: C_3  and  O_4 
REMARK    2  A    between atoms: C_6  and  N_7 
REMARK       I    between atoms: N_7  and  C_8 
REMARK    3  A    between atoms: C_8  and  C_9 
REMARK    4  A    between atoms: C_12  and  C_13 
REMARK    5  A    between atoms: C_18  and  C_19 
ROOT
HETATM    1  C   UNL     1     -42.269  55.916 -54.583  1.00  0.00     0.096 A 
HETATM    2  C   UNL     1     -42.447  56.863 -55.575  1.00  0.00     0.138 A 
HETATM    3  N   UNL     1     -43.558  57.588 -55.209  1.00  0.00    -0.240 N 
HETATM    4  C   UNL     1     -44.148  58.643 -56.014  1.00  0.00     0.221 C 
HETATM    5  C   UNL     1     -43.138  59.133 -57.068  1.00  0.00     0.066 C 
HETATM    6  C   UNL     1     -42.426  57.965 -57.762  1.00  0.00     0.118 C 
HETATM    7  N   UNL     1     -41.795  57.109 -56.747  1.00  0.00    -0.365 N 
HETATM    8  N   UNL     1     -44.186  57.093 -54.132  1.00  0.00    -0.181 NA
HETATM    9  C   UNL     1     -43.391  56.093 -53.740  1.00  0.00     0.160 A 
HETATM   10  H   UNL     1     -41.257  56.349 -57.170  1.00  0.00     0.161 HD
ENDROOT
BRANCH   1  11
HETATM   11  C   UNL     1     -41.227  54.912 -54.446  1.00  0.00     0.261 C 
HETATM   12  N   UNL     1     -41.673  53.749 -53.848  1.00  0.00    -0.323 N 
HETATM   13  H   UNL     1     -42.678  53.685 -53.723  1.00  0.00     0.169 HD
HETATM   14  O   UNL     1     -40.097  55.123 -54.869  1.00  0.00    -0.267 OA
BRANCH  12  15
HETATM   15  C   UNL     1     -40.914  52.625 -53.470  1.00  0.00     0.037 A 
HETATM   16  C   UNL     1     -40.693  51.520 -54.294  1.00  0.00     0.066 A 
HETATM   17  C   UNL     1     -39.901  50.465 -53.844  1.00  0.00     0.067 A 
HETATM   18  C   UNL     1     -39.327  50.484 -52.578  1.00  0.00     0.036 A 
HETATM   19  C   UNL     1     -39.544  51.583 -51.750  1.00  0.00     0.005 A 
HETATM   20  C   UNL     1     -40.329  52.650 -52.196  1.00  0.00     0.029 A 
BRANCH  17  21
HETATM   21  O   UNL     1     -39.703  49.414 -54.692  1.00  0.00    -0.361 OA
HETATM   22  H   UNL     1     -40.549  48.958 -54.831  1.00  0.00     0.217 HD
ENDBRANCH  17  21
ENDBRANCH  12  15
ENDBRANCH   1  11
BRANCH   4  23
HETATM   23  C   UNL     1     -44.598  59.814 -55.167  1.00  0.00     0.409 C 
HETATM   24  F   UNL     1     -45.694  59.523 -54.428  1.00  0.00    -0.169 F 
HETATM   25  F   UNL     1     -43.614  60.137 -54.282  1.00  0.00    -0.169 F 
HETATM   26  F   UNL     1     -44.846  60.934 -55.874  1.00  0.00    -0.169 F 
ENDBRANCH   4  23
BRANCH   6  27
HETATM   27  C   UNL     1     -43.323  57.202 -58.731  1.00  0.00    -0.035 A 
HETATM   28  C   UNL     1     -44.284  57.922 -59.470  1.00  0.00     0.012 A 
HETATM   29  C   UNL     1     -45.136  57.274 -60.367  1.00  0.00     0.043 A 
HETATM   30  C   UNL     1     -45.034  55.901 -60.539  1.00  0.00     0.116 A 
HETATM   31  F   UNL     1     -45.849  55.280 -61.401  1.00  0.00    -0.206 F 
HETATM   32  C   UNL     1     -44.097  55.165 -59.829  1.00  0.00     0.043 A 
HETATM   33  C   UNL     1     -43.246  55.811 -58.929  1.00  0.00     0.012 A 
ENDBRANCH   6  27
TORSDOF 5
ENDMDL
MODEL 5
REMARK VINA RESULT:      -8.3      3.432      6.698
REMARK  5 active torsions:
REMARK  status: ('A' for Active; 'I' for Inactive)
REMARK    1  A    between atoms: C_3  and  O_4 
REMARK    2  A    between atoms: C_6  and  N_7 
REMARK       I    between atoms: N_7  and  C_8 
REMARK    3  A    between atoms: C_8  and  C_9 
REMARK    4  A    between atoms: C_12  and  C_13 
REMARK    5  A    between atoms: C_18  and  C_19 
ROOT
HETATM    1  C   UNL     1     -42.897  55.541 -55.105  1.00  0.00     0.096 A 
HETATM    2  C   UNL     1     -43.472  56.461 -54.247  1.00  0.00     0.138 A 
HETATM    3  N   UNL     1     -43.606  57.622 -54.974  1.00  0.00    -0.240 N 
HETATM    4  C   UNL     1     -44.099  58.875 -54.431  1.00  0.00     0.221 C 
HETATM    5  C   UNL     1     -44.856  58.620 -53.114  1.00  0.00     0.066 C 
HETATM    6  C   UNL     1     -44.096  57.650 -52.200  1.00  0.00     0.118 C 
HETATM    7  N   UNL     1     -43.825  56.405 -52.931  1.00  0.00    -0.365 N 
HETATM    8  N   UNL     1     -43.036  57.560 -56.187  1.00  0.00    -0.181 NA
HETATM    9  C   UNL     1     -42.627  56.291 -56.274  1.00  0.00     0.160 A 
HETATM   10  H   UNL     1     -43.373  55.705 -52.339  1.00  0.00     0.161 HD
ENDROOT
BRANCH   1  11
HETATM   11  C   UNL     1     -42.566  54.146 -54.870  1.00  0.00     0.261 C 
HETATM   12  N   UNL     1     -41.506  53.980 -53.999  1.00  0.00    -0.323 N 
HETATM   13  H   UNL     1     -41.199  54.825 -53.528  1.00  0.00     0.169 HD
HETATM   14  O   UNL     1     -43.221  53.252 -55.392  1.00  0.00    -0.267 OA
BRANCH  12  15
HETATM   15  C   UNL     1     -40.863  52.782 -53.637  1.00  0.00     0.037 A 
HETATM   16  C   UNL     1     -40.748  51.674 -54.478  1.00  0.00     0.066 A 
HETATM   17  C   UNL     1     -40.067  50.538 -54.043  1.00  0.00     0.067 A 
HETATM   18  C   UNL     1     -39.500  50.480 -52.774  1.00  0.00     0.036 A 
HETATM   19  C   UNL     1     -39.611  51.582 -51.930  1.00  0.00     0.005 A 
HETATM   20  C   UNL     1     -40.285  52.728 -52.361  1.00  0.00     0.029 A 
BRANCH  17  21
HETATM   21  O   UNL     1     -39.969  49.486 -54.907  1.00  0.00    -0.361 OA
HETATM   22  H   UNL     1     -39.046  49.399 -55.194  1.00  0.00     0.217 HD
ENDBRANCH  17  21
ENDBRANCH  12  15
ENDBRANCH   1  11
BRANCH   4  23
HETATM   23  C   UNL     1     -45.013  59.590 -55.404  1.00  0.00     0.409 C 
HETATM   24  F   UNL     1     -45.802  60.502 -54.792  1.00  0.00    -0.169 F 
HETATM   25  F   UNL     1     -44.261  60.279 -56.307  1.00  0.00    -0.169 F 
HETATM   26  F   UNL     1     -45.796  58.763 -56.124  1.00  0.00    -0.169 F 
ENDBRANCH   4  23
BRANCH   6  27
HETATM   27  C   UNL     1     -42.855  58.267 -51.564  1.00  0.00    -0.035 A 
HETATM   28  C   UNL     1     -42.913  59.609 -51.134  1.00  0.00     0.012 A 
HETATM   29  C   UNL     1     -41.805  60.227 -50.552  1.00  0.00     0.043 A 
HETATM   30  C   UNL     1     -40.628  59.510 -50.387  1.00  0.00     0.116 A 
HETATM   31  F   UNL     1     -39.566  60.101 -49.825  1.00  0.00    -0.206 F 
HETATM   32  C   UNL     1     -40.540  58.187 -50.795  1.00  0.00     0.043 A 
HETATM   33  C   UNL     1     -41.648  57.568 -51.382  1.00  0.00     0.012 A 
ENDBRANCH   6  27
TORSDOF 5
ENDMDL
MODEL 6
REMARK VINA RESULT:      -8.3      3.669      7.419
REMARK  5 active torsions:
REMARK  status: ('A' for Active; 'I' for Inactive)
REMARK    1  A    between atoms: C_3  and  O_4 
REMARK    2  A    between atoms: C_6  and  N_7 
REMARK       I    between atoms: N_7  and  C_8 
REMARK    3  A    between atoms: C_8  and  C_9 
REMARK    4  A    between atoms: C_12  and  C_13 
REMARK    5  A    between atoms: C_18  and  C_19 
ROOT
HETATM    1  C   UNL     1     -42.877  56.391 -54.558  1.00  0.00     0.096 A 
HETATM    2  C   UNL     1     -42.693  56.877 -55.839  1.00  0.00     0.138 A 
HETATM    3  N   UNL     1     -43.005  58.216 -55.783  1.00  0.00    -0.240 N 
HETATM    4  C   UNL     1     -43.022  59.101 -56.935  1.00  0.00     0.221 C 
HETATM    5  C   UNL     1     -42.228  58.475 -58.096  1.00  0.00     0.066 C 
HETATM    6  C   UNL     1     -42.567  56.990 -58.282  1.00  0.00     0.118 C 
HETATM    7  N   UNL     1     -42.347  56.279 -57.015  1.00  0.00    -0.365 N 
HETATM    8  N   UNL     1     -43.508  58.597 -54.599  1.00  0.00    -0.181 NA
HETATM    9  C   UNL     1     -43.408  57.495 -53.850  1.00  0.00     0.160 A 
HETATM   10  H   UNL     1     -42.504  55.273 -57.110  1.00  0.00     0.161 HD
ENDROOT
BRANCH   1  11
HETATM   11  C   UNL     1     -42.657  55.050 -54.042  1.00  0.00     0.261 C 
HETATM   12  N   UNL     1     -41.327  54.784 -53.778  1.00  0.00    -0.323 N 
HETATM   13  H   UNL     1     -40.708  55.585 -53.831  1.00  0.00     0.169 HD
HETATM   14  O   UNL     1     -43.601  54.293 -53.850  1.00  0.00    -0.267 OA
BRANCH  12  15
HETATM   15  C   UNL     1     -40.754  53.564 -53.374  1.00  0.00     0.037 A 
HETATM   16  C   UNL     1     -40.548  52.478 -54.227  1.00  0.00     0.066 A 
HETATM   17  C   UNL     1     -39.944  51.318 -53.743  1.00  0.00     0.067 A 
HETATM   18  C   UNL     1     -39.545  51.214 -52.415  1.00  0.00     0.036 A 
HETATM   19  C   UNL     1     -39.748  52.293 -51.559  1.00  0.00     0.005 A 
HETATM   20  C   UNL     1     -40.345  53.463 -52.037  1.00  0.00     0.029 A 
BRANCH  17  21
HETATM   21  O   UNL     1     -39.752  50.290 -54.620  1.00  0.00    -0.361 OA
HETATM   22  H   UNL     1     -39.252  49.586 -54.175  1.00  0.00     0.217 HD
ENDBRANCH  17  21
ENDBRANCH  12  15
ENDBRANCH   1  11
BRANCH   4  23
HETATM   23  C   UNL     1     -42.444  60.462 -56.608  1.00  0.00     0.409 C 
HETATM   24  F   UNL     1     -41.771  60.998 -57.651  1.00  0.00    -0.169 F 
HETATM   25  F   UNL     1     -43.457  61.326 -56.320  1.00  0.00    -0.169 F 
HETATM   26  F   UNL     1     -41.634  60.465 -55.531  1.00  0.00    -0.169 F 
ENDBRANCH   4  23
BRANCH   6  27
HETATM   27  C   UNL     1     -43.951  56.759 -58.880  1.00  0.00    -0.035 A 
HETATM   28  C   UNL     1     -44.177  55.580 -59.621  1.00  0.00     0.012 A 
HETATM   29  C   UNL     1     -45.422  55.320 -60.197  1.00  0.00     0.043 A 
HETATM   30  C   UNL     1     -46.457  56.230 -60.034  1.00  0.00     0.116 A 
HETATM   31  F   UNL     1     -47.652  55.980 -60.583  1.00  0.00    -0.206 F 
HETATM   32  C   UNL     1     -46.267  57.397 -59.308  1.00  0.00     0.043 A 
HETATM   33  C   UNL     1     -45.020  57.661 -58.734  1.00  0.00     0.012 A 
ENDBRANCH   6  27
TORSDOF 5
ENDMDL
MODEL 7
REMARK VINA RESULT:      -8.2      3.798      6.869
REMARK  5 active torsions:
REMARK  status: ('A' for Active; 'I' for Inactive)
REMARK    1  A    between atoms: C_3  and  O_4 
REMARK    2  A    between atoms: C_6  and  N_7 
REMARK       I    between atoms: N_7  and  C_8 
REMARK    3  A    between atoms: C_8  and  C_9 
REMARK    4  A    between atoms: C_12  and  C_13 
REMARK    5  A    between atoms: C_18  and  C_19 
ROOT
HETATM    1  C   UNL     1     -41.828  55.619 -51.487  1.00  0.00     0.096 A 
HETATM    2  C   UNL     1     -41.754  56.758 -52.267  1.00  0.00     0.138 A 
HETATM    3  N   UNL     1     -42.803  57.556 -51.872  1.00  0.00    -0.240 N 
HETATM    4  C   UNL     1     -43.145  58.824 -52.492  1.00  0.00     0.221 C 
HETATM    5  C   UNL     1     -41.951  59.354 -53.307  1.00  0.00     0.066 C 
HETATM    6  C   UNL     1     -41.306  58.251 -54.156  1.00  0.00     0.118 C 
HETATM    7  N   UNL     1     -40.927  57.128 -53.287  1.00  0.00    -0.365 N 
HETATM    8  N   UNL     1     -43.626  56.958 -50.997  1.00  0.00    -0.181 NA
HETATM    9  C   UNL     1     -43.022  55.793 -50.746  1.00  0.00     0.160 A 
HETATM   10  H   UNL     1     -40.437  56.394 -53.803  1.00  0.00     0.161 HD
ENDROOT
BRANCH   1  11
HETATM   11  C   UNL     1     -40.948  54.463 -51.459  1.00  0.00     0.261 C 
HETATM   12  N   UNL     1     -41.151  53.603 -52.522  1.00  0.00    -0.323 N 
HETATM   13  H   UNL     1     -41.764  53.955 -53.250  1.00  0.00     0.169 HD
HETATM   14  O   UNL     1     -40.109  54.337 -50.575  1.00  0.00    -0.267 OA
BRANCH  12  15
HETATM   15  C   UNL     1     -40.552  52.350 -52.747  1.00  0.00     0.037 A 
HETATM   16  C   UNL     1     -40.041  51.537 -51.734  1.00  0.00     0.066 A 
HETATM   17  C   UNL     1     -39.491  50.295 -52.049  1.00  0.00     0.067 A 
HETATM   18  C   UNL     1     -39.433  49.846 -53.365  1.00  0.00     0.036 A 
HETATM   19  C   UNL     1     -39.941  50.653 -54.380  1.00  0.00     0.005 A 
HETATM   20  C   UNL     1     -40.502  51.896 -54.073  1.00  0.00     0.029 A 
BRANCH  17  21
HETATM   21  O   UNL     1     -39.018  49.532 -51.023  1.00  0.00    -0.361 OA
HETATM   22  H   UNL     1     -38.123  49.227 -51.242  1.00  0.00     0.217 HD
ENDBRANCH  17  21
ENDBRANCH  12  15
ENDBRANCH   1  11
BRANCH   4  23
HETATM   23  C   UNL     1     -43.552  59.860 -51.466  1.00  0.00     0.409 C 
HETATM   24  F   UNL     1     -42.692  59.918 -50.424  1.00  0.00    -0.169 F 
HETATM   25  F   UNL     1     -43.542  61.095 -52.042  1.00  0.00    -0.169 F 
HETATM   26  F   UNL     1     -44.798  59.686 -50.981  1.00  0.00    -0.169 F 
ENDBRANCH   4  23
BRANCH   6  27
HETATM   27  C   UNL     1     -42.155  57.837 -55.352  1.00  0.00    -0.035 A 
HETATM   28  C   UNL     1     -42.160  56.481 -55.740  1.00  0.00     0.012 A 
HETATM   29  C   UNL     1     -42.914  56.047 -56.832  1.00  0.00     0.043 A 
HETATM   30  C   UNL     1     -43.676  56.961 -57.545  1.00  0.00     0.116 A 
HETATM   31  F   UNL     1     -44.402  56.544 -58.591  1.00  0.00    -0.206 F 
HETATM   32  C   UNL     1     -43.696  58.301 -57.187  1.00  0.00     0.043 A 
HETATM   33  C   UNL     1     -42.939  58.738 -56.097  1.00  0.00     0.012 A 
ENDBRANCH   6  27
TORSDOF 5
ENDMDL
MODEL 8
REMARK VINA RESULT:      -8.0      3.676      6.921
REMARK  5 active torsions:
REMARK  status: ('A' for Active; 'I' for Inactive)
REMARK    1  A    between atoms: C_3  and  O_4 
REMARK    2  A    between atoms: C_6  and  N_7 
REMARK       I    between atoms: N_7  and  C_8 
REMARK    3  A    between atoms: C_8  and  C_9 
REMARK    4  A    between atoms: C_12  and  C_13 
REMARK    5  A    between atoms: C_18  and  C_19 
ROOT
HETATM    1  C   UNL     1     -43.069  56.015 -51.697  1.00  0.00     0.096 A 
HETATM    2  C   UNL     1     -42.481  57.136 -52.256  1.00  0.00     0.138 A 
HETATM    3  N   UNL     1     -43.153  58.216 -51.732  1.00  0.00    -0.240 N 
HETATM    4  C   UNL     1     -42.908  59.596 -52.113  1.00  0.00     0.221 C 
HETATM    5  C   UNL     1     -41.538  59.718 -52.805  1.00  0.00     0.066 C 
HETATM    6  C   UNL     1     -41.318  58.603 -53.835  1.00  0.00     0.118 C 
HETATM    7  N   UNL     1     -41.493  57.297 -53.182  1.00  0.00    -0.365 N 
HETATM    8  N   UNL     1     -44.216  57.872 -50.989  1.00  0.00    -0.181 NA
HETATM    9  C   UNL     1     -44.150  56.538 -50.949  1.00  0.00     0.160 A 
HETATM   10  H   UNL     1     -41.295  56.522 -53.819  1.00  0.00     0.161 HD
ENDROOT
BRANCH   1  11
HETATM   11  C   UNL     1     -42.729  54.614 -51.873  1.00  0.00     0.261 C 
HETATM   12  N   UNL     1     -41.402  54.417 -52.207  1.00  0.00    -0.323 N 
HETATM   13  H   UNL     1     -40.813  55.240 -52.139  1.00  0.00     0.169 HD
HETATM   14  O   UNL     1     -43.569  53.740 -51.694  1.00  0.00    -0.267 OA
BRANCH  12  15
HETATM   15  C   UNL     1     -40.767  53.208 -52.549  1.00  0.00     0.037 A 
HETATM   16  C   UNL     1     -40.194  52.338 -51.620  1.00  0.00     0.066 A 
HETATM   17  C   UNL     1     -39.611  51.147 -52.049  1.00  0.00     0.067 A 
HETATM   18  C   UNL     1     -39.582  50.805 -53.397  1.00  0.00     0.036 A 
HETATM   19  C   UNL     1     -40.152  51.668 -54.330  1.00  0.00     0.005 A 
HETATM   20  C   UNL     1     -40.746  52.861 -53.907  1.00  0.00     0.029 A 
BRANCH  17  21
HETATM   21  O   UNL     1     -39.077  50.324 -51.101  1.00  0.00    -0.361 OA
HETATM   22  H   UNL     1     -38.278  49.906 -51.461  1.00  0.00     0.217 HD
ENDBRANCH  17  21
ENDBRANCH  12  15
ENDBRANCH   1  11
BRANCH   4  23
HETATM   23  C   UNL     1     -42.952  60.526 -50.919  1.00  0.00     0.409 C 
HETATM   24  F   UNL     1     -42.131  60.123 -49.923  1.00  0.00    -0.169 F 
HETATM   25  F   UNL     1     -42.522  61.763 -51.294  1.00  0.00    -0.169 F 
HETATM   26  F   UNL     1     -44.187  60.700 -50.409  1.00  0.00    -0.169 F 
ENDBRANCH   4  23
BRANCH   6  27
HETATM   27  C   UNL     1     -42.159  58.771 -55.095  1.00  0.00    -0.035 A 
HETATM   28  C   UNL     1     -42.167  60.026 -55.739  1.00  0.00     0.012 A 
HETATM   29  C   UNL     1     -42.924  60.239 -56.892  1.00  0.00     0.043 A 
HETATM   30  C   UNL     1     -43.677  59.200 -57.420  1.00  0.00     0.116 A 
HETATM   31  F   UNL     1     -44.401  59.403 -58.528  1.00  0.00    -0.206 F 
HETATM   32  C   UNL     1     -43.688  57.953 -56.813  1.00  0.00     0.043 A 
HETATM   33  C   UNL     1     -42.933  57.739 -55.656  1.00  0.00     0.012 A 
ENDBRANCH   6  27
TORSDOF 5
ENDMDL
MODEL 9
REMARK VINA RESULT:      -7.8      3.689      7.554
REMARK  5 active torsions:
REMARK  status: ('A' for Active; 'I' for Inactive)
REMARK    1  A    between atoms: C_3  and  O_4 
REMARK    2  A    between atoms: C_6  and  N_7 
REMARK       I    between atoms: N_7  and  C_8 
REMARK    3  A    between atoms: C_8  and  C_9 
REMARK    4  A    between atoms: C_12  and  C_13 
REMARK    5  A    between atoms: C_18  and  C_19 
ROOT
HETATM    1  C   UNL     1     -42.500  56.712 -54.450  1.00  0.00     0.096 A 
HETATM    2  C   UNL     1     -42.614  57.460 -55.608  1.00  0.00     0.138 A 
HETATM    3  N   UNL     1     -43.776  58.186 -55.475  1.00  0.00    -0.240 N 
HETATM    4  C   UNL     1     -44.321  59.053 -56.504  1.00  0.00     0.221 C 
HETATM    5  C   UNL     1     -43.233  59.397 -57.538  1.00  0.00     0.066 C 
HETATM    6  C   UNL     1     -42.424  58.159 -57.947  1.00  0.00     0.118 C 
HETATM    7  N   UNL     1     -41.864  57.526 -56.745  1.00  0.00    -0.365 N 
HETATM    8  N   UNL     1     -44.486  57.859 -54.385  1.00  0.00    -0.181 NA
HETATM    9  C   UNL     1     -43.701  56.982 -53.752  1.00  0.00     0.160 A 
HETATM   10  H   UNL     1     -41.266  56.730 -56.976  1.00  0.00     0.161 HD
ENDROOT
BRANCH   1  11
HETATM   11  C   UNL     1     -41.446  55.798 -54.046  1.00  0.00     0.261 C 
HETATM   12  N   UNL     1     -41.923  54.678 -53.391  1.00  0.00    -0.323 N 
HETATM   13  H   UNL     1     -42.930  54.563 -53.411  1.00  0.00     0.169 HD
HETATM   14  O   UNL     1     -40.275  56.035 -54.318  1.00  0.00    -0.267 OA
BRANCH  12  15
HETATM   15  C   UNL     1     -41.178  53.652 -52.779  1.00  0.00     0.037 A 
HETATM   16  C   UNL     1     -41.126  53.443 -51.400  1.00  0.00     0.066 A 
HETATM   17  C   UNL     1     -40.384  52.382 -50.885  1.00  0.00     0.067 A 
HETATM   18  C   UNL     1     -39.683  51.520 -51.722  1.00  0.00     0.036 A 
HETATM   19  C   UNL     1     -39.731  51.722 -53.099  1.00  0.00     0.005 A 
HETATM   20  C   UNL     1     -40.478  52.780 -53.625  1.00  0.00     0.029 A 
BRANCH  17  21
HETATM   21  O   UNL     1     -40.375  52.211 -49.531  1.00  0.00    -0.361 OA
HETATM   22  H   UNL     1     -40.250  51.269 -49.333  1.00  0.00     0.217 HD
ENDBRANCH  17  21
ENDBRANCH  12  15
ENDBRANCH   1  11
BRANCH   4  23
HETATM   23  C   UNL     1     -44.883  60.333 -55.923  1.00  0.00     0.409 C 
HETATM   24  F   UNL     1     -44.126  60.814 -54.911  1.00  0.00    -0.169 F 
HETATM   25  F   UNL     1     -44.896  61.299 -56.884  1.00  0.00    -0.169 F 
HETATM   26  F   UNL     1     -46.154  60.223 -55.489  1.00  0.00    -0.169 F 
ENDBRANCH   4  23
BRANCH   6  27
HETATM   27  C   UNL     1     -43.204  57.197 -58.837  1.00  0.00    -0.035 A 
HETATM   28  C   UNL     1     -44.052  57.731 -59.828  1.00  0.00     0.012 A 
HETATM   29  C   UNL     1     -44.795  56.897 -60.666  1.00  0.00     0.043 A 
HETATM   30  C   UNL     1     -44.693  55.520 -60.528  1.00  0.00     0.116 A 
HETATM   31  F   UNL     1     -45.403  54.719 -61.333  1.00  0.00    -0.206 F 
HETATM   32  C   UNL     1     -43.864  54.963 -59.565  1.00  0.00     0.043 A 
HETATM   33  C   UNL     1     -43.123  55.796 -58.723  1.00  0.00     0.012 A 
ENDBRANCH   6  27
TORSDOF 5
ENDMDL
MODEL 10
REMARK VINA RESULT:      -7.7      3.353      7.001
REMARK  5 active torsions:
REMARK  status: ('A' for Active; 'I' for Inactive)
REMARK    1  A    between atoms: C_3  and  O_4 
REMARK    2  A    between atoms: C_6  and  N_7 
REMARK       I    between atoms: N_7  and  C_8 
REMARK    3  A    between atoms: C_8  and  C_9 
REMARK    4  A    between atoms: C_12  and  C_13 
REMARK    5  A    between atoms: C_18  and  C_19 
ROOT
HETATM    1  C   UNL     1     -41.497  55.639 -52.522  1.00  0.00     0.096 A 
HETATM    2  C   UNL     1     -41.578  56.918 -53.043  1.00  0.00     0.138 A 
HETATM    3  N   UNL     1     -42.265  57.662 -52.111  1.00  0.00    -0.240 N 
HETATM    4  C   UNL     1     -42.643  59.053 -52.293  1.00  0.00     0.221 C 
HETATM    5  C   UNL     1     -41.804  59.687 -53.418  1.00  0.00     0.066 C 
HETATM    6  C   UNL     1     -41.706  58.768 -54.642  1.00  0.00     0.118 C 
HETATM    7  N   UNL     1     -41.175  57.462 -54.227  1.00  0.00    -0.365 N 
HETATM    8  N   UNL     1     -42.751  56.930 -51.098  1.00  0.00    -0.181 NA
HETATM    9  C   UNL     1     -42.266  55.708 -51.335  1.00  0.00     0.160 A 
HETATM   10  H   UNL     1     -41.036  56.836 -55.023  1.00  0.00     0.161 HD
ENDROOT
BRANCH   1  11
HETATM   11  C   UNL     1     -40.847  54.462 -53.071  1.00  0.00     0.261 C 
HETATM   12  N   UNL     1     -41.061  53.325 -52.315  1.00  0.00    -0.323 N 
HETATM   13  H   UNL     1     -41.751  53.420 -51.577  1.00  0.00     0.169 HD
HETATM   14  O   UNL     1     -40.217  54.528 -54.120  1.00  0.00    -0.267 OA
BRANCH  12  15
HETATM   15  C   UNL     1     -40.499  52.047 -52.497  1.00  0.00     0.037 A 
HETATM   16  C   UNL     1     -40.480  51.370 -53.718  1.00  0.00     0.066 A 
HETATM   17  C   UNL     1     -39.874  50.118 -53.810  1.00  0.00     0.067 A 
HETATM   18  C   UNL     1     -39.287  49.519 -52.701  1.00  0.00     0.036 A 
HETATM   19  C   UNL     1     -39.301  50.189 -51.480  1.00  0.00     0.005 A 
HETATM   20  C   UNL     1     -39.900  51.448 -51.380  1.00  0.00     0.029 A 
BRANCH  17  21
HETATM   21  O   UNL     1     -39.869  49.503 -55.028  1.00  0.00    -0.361 OA
HETATM   22  H   UNL     1     -40.772  49.508 -55.387  1.00  0.00     0.217 HD
ENDBRANCH  17  21
ENDBRANCH  12  15
ENDBRANCH   1  11
BRANCH   4  23
HETATM   23  C   UNL     1     -42.465  59.855 -51.021  1.00  0.00     0.409 C 
HETATM   24  F   UNL     1     -43.571  59.835 -50.242  1.00  0.00    -0.169 F 
HETATM   25  F   UNL     1     -41.463  59.309 -50.278  1.00  0.00    -0.169 F 
HETATM   26  F   UNL     1     -42.116  61.140 -51.231  1.00  0.00    -0.169 F 
ENDBRANCH   4  23
BRANCH   6  27
HETATM   27  C   UNL     1     -43.006  58.676 -55.433  1.00  0.00    -0.035 A 
HETATM   28  C   UNL     1     -43.145  57.646 -56.386  1.00  0.00     0.012 A 
HETATM   29  C   UNL     1     -44.311  57.518 -57.143  1.00  0.00     0.043 A 
HETATM   30  C   UNL     1     -45.353  58.414 -56.953  1.00  0.00     0.116 A 
HETATM   31  F   UNL     1     -46.473  58.289 -57.677  1.00  0.00    -0.206 F 
HETATM   32  C   UNL     1     -45.249  59.436 -56.021  1.00  0.00     0.043 A 
HETATM   33  C   UNL     1     -44.082  59.567 -55.265  1.00  0.00     0.012 A 
ENDBRANCH   6  27
TORSDOF 5
ENDMDL
