MODEL 1
REMARK VINA RESULT:      -7.9      0.000      0.000
REMARK  7 active torsions:
REMARK  status: ('A' for Active; 'I' for Inactive)
REMARK    1  A    between atoms: C_2  and  C_3 
REMARK       I    between atoms: C_3  and  N_4 
REMARK    2  A    between atoms: N_4  and  N_5 
REMARK       I    between atoms: N_5  and  C_6 
REMARK    3  A    between atoms: C_6  and  C_7 
REMARK    4  A    between atoms: C_7  and  C_8 
REMARK    5  A    between atoms: C_8  and  C_9 
REMARK       I    between atoms: C_9  and  N_10 
REMARK    6  A    between atoms: N_10  and  C_11 
REMARK    7  A    between atoms: C_11  and  C_12 
ROOT
HETATM    1  C   UNL     1     -43.306  57.585 -57.155  1.00  0.00     0.114 C 
ENDROOT
BRANCH   1   2
HETATM    2  C   UNL     1     -42.997  56.444 -56.216  1.00  0.00     0.236 C 
HETATM    3  N   UNL     1     -41.787  55.826 -56.428  1.00  0.00    -0.267 N 
HETATM    4  H   UNL     1     -41.235  55.953 -57.276  1.00  0.00     0.190 HD
HETATM    5  O   UNL     1     -43.802  56.067 -55.364  1.00  0.00    -0.272 OA
BRANCH   3   6
HETATM    6  N   UNL     1     -41.500  54.678 -55.679  1.00  0.00    -0.263 N 
HETATM    7  C   UNL     1     -40.758  54.829 -54.524  1.00  0.00     0.270 C 
HETATM    8  O   UNL     1     -40.383  55.928 -54.122  1.00  0.00    -0.266 OA
HETATM    9  H   UNL     1     -41.603  53.789 -56.165  1.00  0.00     0.190 HD
BRANCH   7  10
HETATM   10  C   UNL     1     -40.413  53.582 -53.786  1.00  0.00     0.033 A 
HETATM   11  C   UNL     1     -40.361  53.629 -52.385  1.00  0.00     0.018 A 
HETATM   12  C   UNL     1     -40.067  52.478 -51.650  1.00  0.00     0.020 A 
HETATM   13  C   UNL     1     -39.833  51.275 -52.314  1.00  0.00     0.011 A 
HETATM   14  C   UNL     1     -39.894  51.213 -53.706  1.00  0.00     0.020 A 
HETATM   15 BR   UNL     1     -39.448  49.713 -51.322  1.00  0.00    -0.051 Br
HETATM   16  C   UNL     1     -40.187  52.364 -54.444  1.00  0.00     0.018 A 
ENDBRANCH   7  10
ENDBRANCH   3   6
ENDBRANCH   1   2
BRANCH   1  17
HETATM   17  C   UNL     1     -43.616  58.844 -56.361  1.00  0.00     0.112 C 
BRANCH  17  18
HETATM   18  C   UNL     1     -42.599  59.107 -55.267  1.00  0.00     0.218 C 
HETATM   19  N   UNL     1     -43.003  58.747 -54.008  1.00  0.00    -0.357 N 
HETATM   20  H   UNL     1     -43.771  58.086 -53.899  1.00  0.00     0.162 HD
HETATM   21  O   UNL     1     -41.524  59.651 -55.504  1.00  0.00    -0.274 OA
BRANCH  19  22
HETATM   22  C   UNL     1     -42.161  58.946 -52.852  1.00  0.00     0.161 C 
BRANCH  22  23
HETATM   23  C   UNL     1     -42.259  57.758 -51.929  1.00  0.00    -0.038 A 
HETATM   24  C   UNL     1     -41.208  57.439 -51.056  1.00  0.00     0.048 A 
HETATM   25  C   UNL     1     -41.346  56.324 -50.257  1.00  0.00     0.105 A 
HETATM   26  C   UNL     1     -42.471  55.534 -50.298  1.00  0.00     0.105 A 
HETATM   27  O   UNL     1     -40.427  55.870 -49.361  1.00  0.00    -0.323 OA
HETATM   28  O   UNL     1     -42.401  54.483 -49.437  1.00  0.00    -0.323 OA
HETATM   29  C   UNL     1     -43.524  55.814 -51.138  1.00  0.00     0.040 A 
HETATM   30  C   UNL     1     -41.105  54.707 -48.842  1.00  0.00     0.352 A 
HETATM   31  C   UNL     1     -43.415  56.940 -51.959  1.00  0.00     0.012 A 
ENDBRANCH  22  23
ENDBRANCH  19  22
ENDBRANCH  17  18
ENDBRANCH   1  17
TORSDOF 7
ENDMDL
MODEL 2
REMARK VINA RESULT:      -7.5      4.496      8.089
REMARK  7 active torsions:
REMARK  status: ('A' for Active; 'I' for Inactive)
REMARK    1  A    between atoms: C_2  and  C_3 
REMARK       I    between atoms: C_3  and  N_4 
REMARK    2  A    between atoms: N_4  and  N_5 
REMARK       I    between atoms: N_5  and  C_6 
REMARK    3  A    between atoms: C_6  and  C_7 
REMARK    4  A    between atoms: C_7  and  C_8 
REMARK    5  A    between atoms: C_8  and  C_9 
REMARK       I    between atoms: C_9  and  N_10 
REMARK    6  A    between atoms: N_10  and  C_11 
REMARK    7  A    between atoms: C_11  and  C_12 
ROOT
HETATM    1  C   UNL     1     -43.595  57.388 -57.127  1.00  0.00     0.114 C 
ENDROOT
BRANCH   1   2
HETATM    2  C   UNL     1     -43.221  56.352 -56.094  1.00  0.00     0.236 C 
HETATM    3  N   UNL     1     -42.141  55.568 -56.420  1.00  0.00    -0.267 N 
HETATM    4  H   UNL     1     -41.754  55.512 -57.362  1.00  0.00     0.190 HD
HETATM    5  O   UNL     1     -43.879  56.193 -55.065  1.00  0.00    -0.272 OA
BRANCH   3   6
HETATM    6  N   UNL     1     -41.826  54.502 -55.567  1.00  0.00    -0.263 N 
HETATM    7  C   UNL     1     -40.802  54.683 -54.659  1.00  0.00     0.270 C 
HETATM    8  O   UNL     1     -40.195  55.746 -54.553  1.00  0.00    -0.266 OA
HETATM    9  H   UNL     1     -42.166  53.585 -55.852  1.00  0.00     0.190 HD
BRANCH   7  10
HETATM   10  C   UNL     1     -40.448  53.509 -53.812  1.00  0.00     0.033 A 
HETATM   11  C   UNL     1     -40.459  53.665 -52.418  1.00  0.00     0.018 A 
HETATM   12  C   UNL     1     -40.159  52.585 -51.584  1.00  0.00     0.020 A 
HETATM   13  C   UNL     1     -39.855  51.345 -52.142  1.00  0.00     0.011 A 
HETATM   14  C   UNL     1     -39.852  51.174 -53.527  1.00  0.00     0.020 A 
HETATM   15 BR   UNL     1     -39.461  49.878 -51.017  1.00  0.00    -0.051 Br
HETATM   16  C   UNL     1     -40.151  52.254 -54.363  1.00  0.00     0.018 A 
ENDBRANCH   7  10
ENDBRANCH   3   6
ENDBRANCH   1   2
BRANCH   1  17
HETATM   17  C   UNL     1     -42.817  57.147 -58.411  1.00  0.00     0.112 C 
BRANCH  17  18
HETATM   18  C   UNL     1     -43.667  56.514 -59.496  1.00  0.00     0.218 C 
HETATM   19  N   UNL     1     -44.987  56.345 -59.165  1.00  0.00    -0.357 N 
HETATM   20  H   UNL     1     -45.385  56.887 -58.399  1.00  0.00     0.162 HD
HETATM   21  O   UNL     1     -43.182  56.141 -60.560  1.00  0.00    -0.274 OA
BRANCH  19  22
HETATM   22  C   UNL     1     -45.929  55.741 -60.078  1.00  0.00     0.161 C 
BRANCH  22  23
HETATM   23  C   UNL     1     -46.837  56.796 -60.658  1.00  0.00    -0.038 A 
HETATM   24  C   UNL     1     -47.760  56.474 -61.664  1.00  0.00     0.048 A 
HETATM   25  C   UNL     1     -48.544  57.489 -62.173  1.00  0.00     0.105 A 
HETATM   26  C   UNL     1     -48.438  58.784 -61.724  1.00  0.00     0.105 A 
HETATM   27  O   UNL     1     -49.482  57.354 -63.149  1.00  0.00    -0.323 OA
HETATM   28  O   UNL     1     -49.294  59.628 -62.362  1.00  0.00    -0.323 OA
HETATM   29  C   UNL     1     -47.547  59.140 -60.738  1.00  0.00     0.040 A 
HETATM   30  C   UNL     1     -49.957  58.712 -63.259  1.00  0.00     0.352 A 
HETATM   31  C   UNL     1     -46.741  58.133 -60.200  1.00  0.00     0.012 A 
ENDBRANCH  22  23
ENDBRANCH  19  22
ENDBRANCH  17  18
ENDBRANCH   1  17
TORSDOF 7
ENDMDL
MODEL 3
REMARK VINA RESULT:      -7.5      6.127      8.989
REMARK  7 active torsions:
REMARK  status: ('A' for Active; 'I' for Inactive)
REMARK    1  A    between atoms: C_2  and  C_3 
REMARK       I    between atoms: C_3  and  N_4 
REMARK    2  A    between atoms: N_4  and  N_5 
REMARK       I    between atoms: N_5  and  C_6 
REMARK    3  A    between atoms: C_6  and  C_7 
REMARK    4  A    between atoms: C_7  and  C_8 
REMARK    5  A    between atoms: C_8  and  C_9 
REMARK       I    between atoms: C_9  and  N_10 
REMARK    6  A    between atoms: N_10  and  C_11 
REMARK    7  A    between atoms: C_11  and  C_12 
ROOT
HETATM    1  C   UNL     1     -45.143  59.245 -51.657  1.00  0.00     0.114 C 
ENDROOT
BRANCH   1   2
HETATM    2  C   UNL     1     -44.561  59.954 -50.458  1.00  0.00     0.236 C 
HETATM    3  N   UNL     1     -45.396  60.041 -49.370  1.00  0.00    -0.267 N 
HETATM    4  H   UNL     1     -46.398  59.858 -49.418  1.00  0.00     0.190 HD
HETATM    5  O   UNL     1     -43.440  60.466 -50.486  1.00  0.00    -0.272 OA
BRANCH   3   6
HETATM    6  N   UNL     1     -44.966  60.802 -48.275  1.00  0.00    -0.263 N 
HETATM    7  C   UNL     1     -45.609  60.616 -47.067  1.00  0.00     0.270 C 
HETATM    8  O   UNL     1     -46.505  59.788 -46.919  1.00  0.00    -0.266 OA
HETATM    9  H   UNL     1     -44.416  61.631 -48.495  1.00  0.00     0.190 HD
BRANCH   7  10
HETATM   10  C   UNL     1     -45.173  61.488 -45.940  1.00  0.00     0.033 A 
HETATM   11  C   UNL     1     -44.396  60.919 -44.920  1.00  0.00     0.018 A 
HETATM   12  C   UNL     1     -43.943  61.704 -43.856  1.00  0.00     0.020 A 
HETATM   13  C   UNL     1     -44.259  63.060 -43.815  1.00  0.00     0.011 A 
HETATM   14  C   UNL     1     -45.021  63.640 -44.830  1.00  0.00     0.020 A 
HETATM   15 BR   UNL     1     -43.637  64.127 -42.385  1.00  0.00    -0.051 Br
HETATM   16  C   UNL     1     -45.476  62.856 -45.894  1.00  0.00     0.018 A 
ENDBRANCH   7  10
ENDBRANCH   3   6
ENDBRANCH   1   2
BRANCH   1  17
HETATM   17  C   UNL     1     -44.805  57.763 -51.599  1.00  0.00     0.112 C 
BRANCH  17  18
HETATM   18  C   UNL     1     -44.075  57.284 -52.839  1.00  0.00     0.218 C 
HETATM   19  N   UNL     1     -44.014  55.921 -52.979  1.00  0.00    -0.357 N 
HETATM   20  H   UNL     1     -44.671  55.335 -52.465  1.00  0.00     0.162 HD
HETATM   21  O   UNL     1     -43.542  58.070 -53.617  1.00  0.00    -0.274 OA
BRANCH  19  22
HETATM   22  C   UNL     1     -43.340  55.301 -54.095  1.00  0.00     0.161 C 
BRANCH  22  23
HETATM   23  C   UNL     1     -42.267  54.366 -53.597  1.00  0.00    -0.038 A 
HETATM   24  C   UNL     1     -41.776  53.336 -54.413  1.00  0.00     0.048 A 
HETATM   25  C   UNL     1     -40.814  52.497 -53.891  1.00  0.00     0.105 A 
HETATM   26  C   UNL     1     -40.337  52.647 -52.609  1.00  0.00     0.105 A 
HETATM   27  O   UNL     1     -40.236  51.450 -54.539  1.00  0.00    -0.323 OA
HETATM   28  O   UNL     1     -39.401  51.713 -52.290  1.00  0.00    -0.323 OA
HETATM   29  C   UNL     1     -40.790  53.646 -51.779  1.00  0.00     0.040 A 
HETATM   30  C   UNL     1     -39.337  50.963 -53.521  1.00  0.00     0.352 A 
HETATM   31  C   UNL     1     -41.764  54.514 -52.281  1.00  0.00     0.012 A 
ENDBRANCH  22  23
ENDBRANCH  19  22
ENDBRANCH  17  18
ENDBRANCH   1  17
TORSDOF 7
ENDMDL
MODEL 4
REMARK VINA RESULT:      -7.5      2.740      6.337
REMARK  7 active torsions:
REMARK  status: ('A' for Active; 'I' for Inactive)
REMARK    1  A    between atoms: C_2  and  C_3 
REMARK       I    between atoms: C_3  and  N_4 
REMARK    2  A    between atoms: N_4  and  N_5 
REMARK       I    between atoms: N_5  and  C_6 
REMARK    3  A    between atoms: C_6  and  C_7 
REMARK    4  A    between atoms: C_7  and  C_8 
REMARK    5  A    between atoms: C_8  and  C_9 
REMARK       I    between atoms: C_9  and  N_10 
REMARK    6  A    between atoms: N_10  and  C_11 
REMARK    7  A    between atoms: C_11  and  C_12 
ROOT
HETATM    1  C   UNL     1     -41.946  60.264 -54.064  1.00  0.00     0.114 C 
ENDROOT
BRANCH   1   2
HETATM    2  C   UNL     1     -41.277  58.967 -53.677  1.00  0.00     0.236 C 
HETATM    3  N   UNL     1     -42.111  57.877 -53.612  1.00  0.00    -0.267 N 
HETATM    4  H   UNL     1     -43.129  57.952 -53.595  1.00  0.00     0.190 HD
HETATM    5  O   UNL     1     -40.081  58.914 -53.385  1.00  0.00    -0.272 OA
BRANCH   3   6
HETATM    6  N   UNL     1     -41.580  56.674 -53.130  1.00  0.00    -0.263 N 
HETATM    7  C   UNL     1     -41.331  55.667 -54.041  1.00  0.00     0.270 C 
HETATM    8  O   UNL     1     -41.523  55.807 -55.247  1.00  0.00    -0.266 OA
HETATM    9  H   UNL     1     -41.674  56.512 -52.129  1.00  0.00     0.190 HD
BRANCH   7  10
HETATM   10  C   UNL     1     -40.828  54.378 -53.488  1.00  0.00     0.033 A 
HETATM   11  C   UNL     1     -40.811  54.212 -52.095  1.00  0.00     0.018 A 
HETATM   12  C   UNL     1     -40.371  53.010 -51.533  1.00  0.00     0.020 A 
HETATM   13  C   UNL     1     -39.956  51.970 -52.363  1.00  0.00     0.011 A 
HETATM   14  C   UNL     1     -39.979  52.120 -53.749  1.00  0.00     0.020 A 
HETATM   15 BR   UNL     1     -39.374  50.340 -51.605  1.00  0.00    -0.051 Br
HETATM   16  C   UNL     1     -40.418  53.322 -54.314  1.00  0.00     0.018 A 
ENDBRANCH   7  10
ENDBRANCH   3   6
ENDBRANCH   1   2
BRANCH   1  17
HETATM   17  C   UNL     1     -42.956  60.017 -55.173  1.00  0.00     0.112 C 
BRANCH  17  18
HETATM   18  C   UNL     1     -42.300  59.595 -56.474  1.00  0.00     0.218 C 
HETATM   19  N   UNL     1     -42.688  58.365 -56.939  1.00  0.00    -0.357 N 
HETATM   20  H   UNL     1     -43.557  57.953 -56.601  1.00  0.00     0.162 HD
HETATM   21  O   UNL     1     -41.450  60.290 -57.022  1.00  0.00    -0.274 OA
BRANCH  19  22
HETATM   22  C   UNL     1     -42.146  57.806 -58.155  1.00  0.00     0.161 C 
BRANCH  22  23
HETATM   23  C   UNL     1     -43.242  57.156 -58.960  1.00  0.00    -0.038 A 
HETATM   24  C   UNL     1     -44.460  57.816 -59.179  1.00  0.00     0.048 A 
HETATM   25  C   UNL     1     -45.434  57.158 -59.900  1.00  0.00     0.105 A 
HETATM   26  C   UNL     1     -45.238  55.891 -60.399  1.00  0.00     0.105 A 
HETATM   27  O   UNL     1     -46.668  57.647 -60.200  1.00  0.00    -0.323 OA
HETATM   28  O   UNL     1     -46.324  55.422 -61.071  1.00  0.00    -0.323 OA
HETATM   29  C   UNL     1     -44.057  55.211 -60.208  1.00  0.00     0.040 A 
HETATM   30  C   UNL     1     -47.223  56.544 -60.947  1.00  0.00     0.352 A 
HETATM   31  C   UNL     1     -43.050  55.854 -59.483  1.00  0.00     0.012 A 
ENDBRANCH  22  23
ENDBRANCH  19  22
ENDBRANCH  17  18
ENDBRANCH   1  17
TORSDOF 7
ENDMDL
MODEL 5
REMARK VINA RESULT:      -7.4      2.290      4.987
REMARK  7 active torsions:
REMARK  status: ('A' for Active; 'I' for Inactive)
REMARK    1  A    between atoms: C_2  and  C_3 
REMARK       I    between atoms: C_3  and  N_4 
REMARK    2  A    between atoms: N_4  and  N_5 
REMARK       I    between atoms: N_5  and  C_6 
REMARK    3  A    between atoms: C_6  and  C_7 
REMARK    4  A    between atoms: C_7  and  C_8 
REMARK    5  A    between atoms: C_8  and  C_9 
REMARK       I    between atoms: C_9  and  N_10 
REMARK    6  A    between atoms: N_10  and  C_11 
REMARK    7  A    between atoms: C_11  and  C_12 
ROOT
HETATM    1  C   UNL     1     -41.325  59.430 -50.011  1.00  0.00     0.114 C 
ENDROOT
BRANCH   1   2
HETATM    2  C   UNL     1     -41.194  58.253 -50.948  1.00  0.00     0.236 C 
HETATM    3  N   UNL     1     -41.669  57.061 -50.456  1.00  0.00    -0.267 N 
HETATM    4  H   UNL     1     -41.882  56.908 -49.470  1.00  0.00     0.190 HD
HETATM    5  O   UNL     1     -40.648  58.354 -52.047  1.00  0.00    -0.272 OA
BRANCH   3   6
HETATM    6  N   UNL     1     -41.456  55.907 -51.220  1.00  0.00    -0.263 N 
HETATM    7  C   UNL     1     -40.726  54.882 -50.654  1.00  0.00     0.270 C 
HETATM    8  O   UNL     1     -40.297  54.936 -49.503  1.00  0.00    -0.266 OA
HETATM    9  H   UNL     1     -41.601  56.002 -52.224  1.00  0.00     0.190 HD
BRANCH   7  10
HETATM   10  C   UNL     1     -40.461  53.696 -51.517  1.00  0.00     0.033 A 
HETATM   11  C   UNL     1     -40.789  53.776 -52.878  1.00  0.00     0.018 A 
HETATM   12  C   UNL     1     -40.536  52.698 -53.730  1.00  0.00     0.020 A 
HETATM   13  C   UNL     1     -39.945  51.542 -53.224  1.00  0.00     0.011 A 
HETATM   14  C   UNL     1     -39.603  51.454 -51.875  1.00  0.00     0.020 A 
HETATM   15 BR   UNL     1     -39.589  50.087 -54.376  1.00  0.00    -0.051 Br
HETATM   16  C   UNL     1     -39.858  52.532 -51.020  1.00  0.00     0.018 A 
ENDBRANCH   7  10
ENDBRANCH   3   6
ENDBRANCH   1   2
BRANCH   1  17
HETATM   17  C   UNL     1     -42.176  60.515 -50.654  1.00  0.00     0.112 C 
BRANCH  17  18
HETATM   18  C   UNL     1     -43.422  59.961 -51.317  1.00  0.00     0.218 C 
HETATM   19  N   UNL     1     -43.382  59.939 -52.687  1.00  0.00    -0.357 N 
HETATM   20  H   UNL     1     -42.482  59.992 -53.163  1.00  0.00     0.162 HD
HETATM   21  O   UNL     1     -44.401  59.614 -50.661  1.00  0.00    -0.274 OA
BRANCH  19  22
HETATM   22  C   UNL     1     -44.494  59.459 -53.473  1.00  0.00     0.161 C 
BRANCH  22  23
HETATM   23  C   UNL     1     -44.067  58.275 -54.304  1.00  0.00    -0.038 A 
HETATM   24  C   UNL     1     -43.998  58.368 -55.702  1.00  0.00     0.048 A 
HETATM   25  C   UNL     1     -43.628  57.242 -56.409  1.00  0.00     0.105 A 
HETATM   26  C   UNL     1     -43.333  56.054 -55.781  1.00  0.00     0.105 A 
HETATM   27  O   UNL     1     -43.514  57.155 -57.762  1.00  0.00    -0.323 OA
HETATM   28  O   UNL     1     -43.000  55.070 -56.660  1.00  0.00    -0.323 OA
HETATM   29  C   UNL     1     -43.387  55.923 -54.413  1.00  0.00     0.040 A 
HETATM   30  C   UNL     1     -43.109  55.778 -57.912  1.00  0.00     0.352 A 
HETATM   31  C   UNL     1     -43.756  57.048 -53.669  1.00  0.00     0.012 A 
ENDBRANCH  22  23
ENDBRANCH  19  22
ENDBRANCH  17  18
ENDBRANCH   1  17
TORSDOF 7
ENDMDL
MODEL 6
REMARK VINA RESULT:      -7.4      2.593      5.751
REMARK  7 active torsions:
REMARK  status: ('A' for Active; 'I' for Inactive)
REMARK    1  A    between atoms: C_2  and  C_3 
REMARK       I    between atoms: C_3  and  N_4 
REMARK    2  A    between atoms: N_4  and  N_5 
REMARK       I    between atoms: N_5  and  C_6 
REMARK    3  A    between atoms: C_6  and  C_7 
REMARK    4  A    between atoms: C_7  and  C_8 
REMARK    5  A    between atoms: C_8  and  C_9 
REMARK       I    between atoms: C_9  and  N_10 
REMARK    6  A    between atoms: N_10  and  C_11 
REMARK    7  A    between atoms: C_11  and  C_12 
ROOT
HETATM    1  C   UNL     1     -45.096  59.739 -54.288  1.00  0.00     0.114 C 
ENDROOT
BRANCH   1   2
HETATM    2  C   UNL     1     -44.662  58.299 -54.158  1.00  0.00     0.236 C 
HETATM    3  N   UNL     1     -43.645  58.076 -53.260  1.00  0.00    -0.267 N 
HETATM    4  H   UNL     1     -43.064  58.821 -52.876  1.00  0.00     0.190 HD
HETATM    5  O   UNL     1     -45.150  57.408 -54.854  1.00  0.00    -0.272 OA
BRANCH   3   6
HETATM    6  N   UNL     1     -43.106  56.785 -53.191  1.00  0.00    -0.263 N 
HETATM    7  C   UNL     1     -41.838  56.586 -53.699  1.00  0.00     0.270 C 
HETATM    8  O   UNL     1     -41.165  57.501 -54.167  1.00  0.00    -0.266 OA
HETATM    9  H   UNL     1     -43.772  56.030 -53.037  1.00  0.00     0.190 HD
BRANCH   7  10
HETATM   10  C   UNL     1     -41.321  55.188 -53.670  1.00  0.00     0.033 A 
HETATM   11  C   UNL     1     -40.723  54.675 -54.830  1.00  0.00     0.018 A 
HETATM   12  C   UNL     1     -40.200  53.379 -54.841  1.00  0.00     0.020 A 
HETATM   13  C   UNL     1     -40.267  52.598 -53.689  1.00  0.00     0.011 A 
HETATM   14  C   UNL     1     -40.849  53.101 -52.526  1.00  0.00     0.020 A 
HETATM   15 BR   UNL     1     -39.550  50.849 -53.697  1.00  0.00    -0.051 Br
HETATM   16  C   UNL     1     -41.373  54.397 -52.513  1.00  0.00     0.018 A 
ENDBRANCH   7  10
ENDBRANCH   3   6
ENDBRANCH   1   2
BRANCH   1  17
HETATM   17  C   UNL     1     -43.943  60.586 -54.804  1.00  0.00     0.112 C 
BRANCH  17  18
HETATM   18  C   UNL     1     -43.580  60.260 -56.240  1.00  0.00     0.218 C 
HETATM   19  N   UNL     1     -42.414  59.554 -56.391  1.00  0.00    -0.357 N 
HETATM   20  H   UNL     1     -42.032  59.043 -55.597  1.00  0.00     0.162 HD
HETATM   21  O   UNL     1     -44.261  60.654 -57.182  1.00  0.00    -0.274 OA
BRANCH  19  22
HETATM   22  C   UNL     1     -41.916  59.179 -57.693  1.00  0.00     0.161 C 
BRANCH  22  23
HETATM   23  C   UNL     1     -42.541  57.879 -58.132  1.00  0.00    -0.038 A 
HETATM   24  C   UNL     1     -43.079  57.740 -59.420  1.00  0.00     0.048 A 
HETATM   25  C   UNL     1     -43.662  56.535 -59.753  1.00  0.00     0.105 A 
HETATM   26  C   UNL     1     -43.726  55.488 -58.863  1.00  0.00     0.105 A 
HETATM   27  O   UNL     1     -44.233  56.232 -60.950  1.00  0.00    -0.323 OA
HETATM   28  O   UNL     1     -44.347  54.397 -59.387  1.00  0.00    -0.323 OA
HETATM   29  C   UNL     1     -43.208  55.583 -57.592  1.00  0.00     0.040 A 
HETATM   30  C   UNL     1     -44.659  54.874 -60.713  1.00  0.00     0.352 A 
HETATM   31  C   UNL     1     -42.608  56.792 -57.227  1.00  0.00     0.012 A 
ENDBRANCH  22  23
ENDBRANCH  19  22
ENDBRANCH  17  18
ENDBRANCH   1  17
TORSDOF 7
ENDMDL
MODEL 7
REMARK VINA RESULT:      -7.3      2.307      5.521
REMARK  7 active torsions:
REMARK  status: ('A' for Active; 'I' for Inactive)
REMARK    1  A    between atoms: C_2  and  C_3 
REMARK       I    between atoms: C_3  and  N_4 
REMARK    2  A    between atoms: N_4  and  N_5 
REMARK       I    between atoms: N_5  and  C_6 
REMARK    3  A    between atoms: C_6  and  C_7 
REMARK    4  A    between atoms: C_7  and  C_8 
REMARK    5  A    between atoms: C_8  and  C_9 
REMARK       I    between atoms: C_9  and  N_10 
REMARK    6  A    between atoms: N_10  and  C_11 
REMARK    7  A    between atoms: C_11  and  C_12 
ROOT
HETATM    1  C   UNL     1     -43.964  59.415 -51.240  1.00  0.00     0.114 C 
ENDROOT
BRANCH   1   2
HETATM    2  C   UNL     1     -43.659  57.955 -51.471  1.00  0.00     0.236 C 
HETATM    3  N   UNL     1     -42.398  57.557 -51.095  1.00  0.00    -0.267 N 
HETATM    4  H   UNL     1     -41.641  58.211 -50.893  1.00  0.00     0.190 HD
HETATM    5  O   UNL     1     -44.467  57.199 -52.010  1.00  0.00    -0.272 OA
BRANCH   3   6
HETATM    6  N   UNL     1     -42.006  56.248 -51.405  1.00  0.00    -0.263 N 
HETATM    7  C   UNL     1     -41.212  56.057 -52.518  1.00  0.00     0.270 C 
HETATM    8  O   UNL     1     -40.813  56.991 -53.210  1.00  0.00    -0.266 OA
HETATM    9  H   UNL     1     -42.551  55.504 -50.972  1.00  0.00     0.190 HD
BRANCH   7  10
HETATM   10  C   UNL     1     -40.868  54.648 -52.857  1.00  0.00     0.033 A 
HETATM   11  C   UNL     1     -40.864  54.269 -54.208  1.00  0.00     0.018 A 
HETATM   12  C   UNL     1     -40.522  52.965 -54.575  1.00  0.00     0.020 A 
HETATM   13  C   UNL     1     -40.176  52.039 -53.593  1.00  0.00     0.011 A 
HETATM   14  C   UNL     1     -40.165  52.407 -52.247  1.00  0.00     0.020 A 
HETATM   15 BR   UNL     1     -39.701  50.278 -54.087  1.00  0.00    -0.051 Br
HETATM   16  C   UNL     1     -40.507  53.711 -51.878  1.00  0.00     0.018 A 
ENDBRANCH   7  10
ENDBRANCH   3   6
ENDBRANCH   1   2
BRANCH   1  17
HETATM   17  C   UNL     1     -44.104  60.134 -52.573  1.00  0.00     0.112 C 
BRANCH  17  18
HETATM   18  C   UNL     1     -42.887  59.958 -53.460  1.00  0.00     0.218 C 
HETATM   19  N   UNL     1     -43.154  59.451 -54.706  1.00  0.00    -0.357 N 
HETATM   20  H   UNL     1     -44.102  59.504 -55.076  1.00  0.00     0.162 HD
HETATM   21  O   UNL     1     -41.754  60.203 -53.057  1.00  0.00    -0.274 OA
BRANCH  19  22
HETATM   22  C   UNL     1     -42.106  59.206 -55.668  1.00  0.00     0.161 C 
BRANCH  22  23
HETATM   23  C   UNL     1     -42.528  58.124 -56.630  1.00  0.00    -0.038 A 
HETATM   24  C   UNL     1     -42.952  58.444 -57.928  1.00  0.00     0.048 A 
HETATM   25  C   UNL     1     -43.352  57.412 -58.752  1.00  0.00     0.105 A 
HETATM   26  C   UNL     1     -43.346  56.102 -58.332  1.00  0.00     0.105 A 
HETATM   27  O   UNL     1     -43.794  57.544 -60.032  1.00  0.00    -0.323 OA
HETATM   28  O   UNL     1     -43.784  55.246 -59.294  1.00  0.00    -0.323 OA
HETATM   29  C   UNL     1     -42.935  55.748 -57.068  1.00  0.00     0.040 A 
HETATM   30  C   UNL     1     -44.059  56.166 -60.371  1.00  0.00     0.352 A 
HETATM   31  C   UNL     1     -42.521  56.771 -56.211  1.00  0.00     0.012 A 
ENDBRANCH  22  23
ENDBRANCH  19  22
ENDBRANCH  17  18
ENDBRANCH   1  17
TORSDOF 7
ENDMDL
MODEL 8
REMARK VINA RESULT:      -7.2      3.760      7.108
REMARK  7 active torsions:
REMARK  status: ('A' for Active; 'I' for Inactive)
REMARK    1  A    between atoms: C_2  and  C_3 
REMARK       I    between atoms: C_3  and  N_4 
REMARK    2  A    between atoms: N_4  and  N_5 
REMARK       I    between atoms: N_5  and  C_6 
REMARK    3  A    between atoms: C_6  and  C_7 
REMARK    4  A    between atoms: C_7  and  C_8 
REMARK    5  A    between atoms: C_8  and  C_9 
REMARK       I    between atoms: C_9  and  N_10 
REMARK    6  A    between atoms: N_10  and  C_11 
REMARK    7  A    between atoms: C_11  and  C_12 
ROOT
HETATM    1  C   UNL     1     -43.373  55.598 -51.568  1.00  0.00     0.114 C 
ENDROOT
BRANCH   1   2
HETATM    2  C   UNL     1     -43.724  56.438 -52.773  1.00  0.00     0.236 C 
HETATM    3  N   UNL     1     -43.934  55.732 -53.934  1.00  0.00    -0.267 N 
HETATM    4  H   UNL     1     -43.660  54.757 -54.053  1.00  0.00     0.190 HD
HETATM    5  O   UNL     1     -43.758  57.668 -52.721  1.00  0.00    -0.272 OA
BRANCH   3   6
HETATM    6  N   UNL     1     -44.132  56.460 -55.114  1.00  0.00    -0.263 N 
HETATM    7  C   UNL     1     -43.070  56.571 -55.990  1.00  0.00     0.270 C 
HETATM    8  O   UNL     1     -41.988  56.026 -55.785  1.00  0.00    -0.266 OA
HETATM    9  H   UNL     1     -44.933  57.089 -55.124  1.00  0.00     0.190 HD
BRANCH   7  10
HETATM   10  C   UNL     1     -43.292  57.406 -57.204  1.00  0.00     0.033 A 
HETATM   11  C   UNL     1     -42.223  58.172 -57.691  1.00  0.00     0.018 A 
HETATM   12  C   UNL     1     -42.378  58.950 -58.841  1.00  0.00     0.020 A 
HETATM   13  C   UNL     1     -43.599  58.956 -59.511  1.00  0.00     0.011 A 
HETATM   14  C   UNL     1     -44.667  58.190 -59.044  1.00  0.00     0.020 A 
HETATM   15 BR   UNL     1     -43.808  59.998 -61.075  1.00  0.00    -0.051 Br
HETATM   16  C   UNL     1     -44.514  57.411 -57.892  1.00  0.00     0.018 A 
ENDBRANCH   7  10
ENDBRANCH   3   6
ENDBRANCH   1   2
BRANCH   1  17
HETATM   17  C   UNL     1     -42.403  56.353 -50.672  1.00  0.00     0.112 C 
BRANCH  17  18
HETATM   18  C   UNL     1     -41.543  55.427 -49.835  1.00  0.00     0.218 C 
HETATM   19  N   UNL     1     -41.377  54.170 -50.356  1.00  0.00    -0.357 N 
HETATM   20  H   UNL     1     -41.553  54.012 -51.348  1.00  0.00     0.162 HD
HETATM   21  O   UNL     1     -41.086  55.777 -48.750  1.00  0.00    -0.274 OA
BRANCH  19  22
HETATM   22  C   UNL     1     -40.602  53.160 -49.675  1.00  0.00     0.161 C 
BRANCH  22  23
HETATM   23  C   UNL     1     -40.254  52.044 -50.628  1.00  0.00    -0.038 A 
HETATM   24  C   UNL     1     -40.086  52.296 -51.998  1.00  0.00     0.048 A 
HETATM   25  C   UNL     1     -39.796  51.229 -52.822  1.00  0.00     0.105 A 
HETATM   26  C   UNL     1     -39.671  49.948 -52.337  1.00  0.00     0.105 A 
HETATM   27  O   UNL     1     -39.606  51.293 -54.168  1.00  0.00    -0.323 OA
HETATM   28  O   UNL     1     -39.391  49.045 -53.315  1.00  0.00    -0.323 OA
HETATM   29  C   UNL     1     -39.826  49.660 -51.000  1.00  0.00     0.040 A 
HETATM   30  C   UNL     1     -39.344  49.907 -54.472  1.00  0.00     0.352 A 
HETATM   31  C   UNL     1     -40.118  50.722 -50.139  1.00  0.00     0.012 A 
ENDBRANCH  22  23
ENDBRANCH  19  22
ENDBRANCH  17  18
ENDBRANCH   1  17
TORSDOF 7
ENDMDL
MODEL 9
REMARK VINA RESULT:      -7.2      2.348      5.530
REMARK  7 active torsions:
REMARK  status: ('A' for Active; 'I' for Inactive)
REMARK    1  A    between atoms: C_2  and  C_3 
REMARK       I    between atoms: C_3  and  N_4 
REMARK    2  A    between atoms: N_4  and  N_5 
REMARK       I    between atoms: N_5  and  C_6 
REMARK    3  A    between atoms: C_6  and  C_7 
REMARK    4  A    between atoms: C_7  and  C_8 
REMARK    5  A    between atoms: C_8  and  C_9 
REMARK       I    between atoms: C_9  and  N_10 
REMARK    6  A    between atoms: N_10  and  C_11 
REMARK    7  A    between atoms: C_11  and  C_12 
ROOT
HETATM    1  C   UNL     1     -44.568  59.183 -53.918  1.00  0.00     0.114 C 
ENDROOT
BRANCH   1   2
HETATM    2  C   UNL     1     -44.185  57.722 -53.927  1.00  0.00     0.236 C 
HETATM    3  N   UNL     1     -43.252  57.359 -52.986  1.00  0.00    -0.267 N 
HETATM    4  H   UNL     1     -42.684  58.033 -52.472  1.00  0.00     0.190 HD
HETATM    5  O   UNL     1     -44.638  56.936 -54.760  1.00  0.00    -0.272 OA
BRANCH   3   6
HETATM    6  N   UNL     1     -42.755  56.050 -53.029  1.00  0.00    -0.263 N 
HETATM    7  C   UNL     1     -41.409  55.877 -53.280  1.00  0.00     0.270 C 
HETATM    8  O   UNL     1     -40.640  56.824 -53.426  1.00  0.00    -0.266 OA
HETATM    9  H   UNL     1     -43.447  55.313 -53.156  1.00  0.00     0.190 HD
BRANCH   7  10
HETATM   10  C   UNL     1     -40.926  54.471 -53.385  1.00  0.00     0.033 A 
HETATM   11  C   UNL     1     -40.668  53.765 -52.201  1.00  0.00     0.018 A 
HETATM   12  C   UNL     1     -40.238  52.437 -52.250  1.00  0.00     0.020 A 
HETATM   13  C   UNL     1     -40.073  51.809 -53.484  1.00  0.00     0.011 A 
HETATM   14  C   UNL     1     -40.337  52.497 -54.668  1.00  0.00     0.020 A 
HETATM   15 BR   UNL     1     -39.504  50.008 -53.553  1.00  0.00    -0.051 Br
HETATM   16  C   UNL     1     -40.767  53.827 -54.620  1.00  0.00     0.018 A 
ENDBRANCH   7  10
ENDBRANCH   3   6
ENDBRANCH   1   2
BRANCH   1  17
HETATM   17  C   UNL     1     -43.369  60.033 -53.529  1.00  0.00     0.112 C 
BRANCH  17  18
HETATM   18  C   UNL     1     -42.283  60.026 -54.587  1.00  0.00     0.218 C 
HETATM   19  N   UNL     1     -42.714  60.321 -55.855  1.00  0.00    -0.357 N 
HETATM   20  H   UNL     1     -43.604  60.801 -55.982  1.00  0.00     0.162 HD
HETATM   21  O   UNL     1     -41.123  59.724 -54.319  1.00  0.00    -0.274 OA
BRANCH  19  22
HETATM   22  C   UNL     1     -41.811  60.339 -56.981  1.00  0.00     0.161 C 
BRANCH  22  23
HETATM   23  C   UNL     1     -42.211  59.285 -57.983  1.00  0.00    -0.038 A 
HETATM   24  C   UNL     1     -42.662  58.026 -57.559  1.00  0.00     0.048 A 
HETATM   25  C   UNL     1     -42.987  57.096 -58.524  1.00  0.00     0.105 A 
HETATM   26  C   UNL     1     -42.878  57.373 -59.867  1.00  0.00     0.105 A 
HETATM   27  O   UNL     1     -43.434  55.832 -58.291  1.00  0.00    -0.323 OA
HETATM   28  O   UNL     1     -43.240  56.318 -60.647  1.00  0.00    -0.323 OA
HETATM   29  C   UNL     1     -42.443  58.596 -60.323  1.00  0.00     0.040 A 
HETATM   30  C   UNL     1     -43.598  55.348 -59.640  1.00  0.00     0.352 A 
HETATM   31  C   UNL     1     -42.109  59.561 -59.368  1.00  0.00     0.012 A 
ENDBRANCH  22  23
ENDBRANCH  19  22
ENDBRANCH  17  18
ENDBRANCH   1  17
TORSDOF 7
ENDMDL
MODEL 10
REMARK VINA RESULT:      -7.2      5.694      8.736
REMARK  7 active torsions:
REMARK  status: ('A' for Active; 'I' for Inactive)
REMARK    1  A    between atoms: C_2  and  C_3 
REMARK       I    between atoms: C_3  and  N_4 
REMARK    2  A    between atoms: N_4  and  N_5 
REMARK       I    between atoms: N_5  and  C_6 
REMARK    3  A    between atoms: C_6  and  C_7 
REMARK    4  A    between atoms: C_7  and  C_8 
REMARK    5  A    between atoms: C_8  and  C_9 
REMARK       I    between atoms: C_9  and  N_10 
REMARK    6  A    between atoms: N_10  and  C_11 
REMARK    7  A    between atoms: C_11  and  C_12 
ROOT
HETATM    1  C   UNL     1     -44.835  57.881 -52.114  1.00  0.00     0.114 C 
ENDROOT
BRANCH   1   2
HETATM    2  C   UNL     1     -45.228  58.740 -50.936  1.00  0.00     0.236 C 
HETATM    3  N   UNL     1     -44.244  59.582 -50.475  1.00  0.00    -0.267 N 
HETATM    4  H   UNL     1     -43.262  59.490 -50.735  1.00  0.00     0.190 HD
HETATM    5  O   UNL     1     -46.333  58.643 -50.400  1.00  0.00    -0.272 OA
BRANCH   3   6
HETATM    6  N   UNL     1     -44.500  60.307 -49.305  1.00  0.00    -0.263 N 
HETATM    7  C   UNL     1     -44.554  61.684 -49.396  1.00  0.00     0.270 C 
HETATM    8  O   UNL     1     -44.425  62.278 -50.464  1.00  0.00    -0.266 OA
HETATM    9  H   UNL     1     -44.350  59.811 -48.428  1.00  0.00     0.190 HD
BRANCH   7  10
HETATM   10  C   UNL     1     -44.763  62.429 -48.123  1.00  0.00     0.033 A 
HETATM   11  C   UNL     1     -45.058  61.697 -46.963  1.00  0.00     0.018 A 
HETATM   12  C   UNL     1     -45.236  62.351 -45.741  1.00  0.00     0.020 A 
HETATM   13  C   UNL     1     -45.110  63.737 -45.675  1.00  0.00     0.011 A 
HETATM   14  C   UNL     1     -44.806  64.475 -46.819  1.00  0.00     0.020 A 
HETATM   15 BR   UNL     1     -45.337  64.624 -44.022  1.00  0.00    -0.051 Br
HETATM   16  C   UNL     1     -44.628  63.822 -48.043  1.00  0.00     0.018 A 
ENDBRANCH   7  10
ENDBRANCH   3   6
ENDBRANCH   1   2
BRANCH   1  17
HETATM   17  C   UNL     1     -43.340  57.604 -52.080  1.00  0.00     0.112 C 
BRANCH  17  18
HETATM   18  C   UNL     1     -42.878  56.763 -53.254  1.00  0.00     0.218 C 
HETATM   19  N   UNL     1     -41.617  56.239 -53.124  1.00  0.00    -0.357 N 
HETATM   20  H   UNL     1     -41.197  56.172 -52.198  1.00  0.00     0.162 HD
HETATM   21  O   UNL     1     -43.571  56.620 -54.257  1.00  0.00    -0.274 OA
BRANCH  19  22
HETATM   22  C   UNL     1     -41.019  55.430 -54.159  1.00  0.00     0.161 C 
BRANCH  22  23
HETATM   23  C   UNL     1     -40.615  54.090 -53.600  1.00  0.00    -0.038 A 
HETATM   24  C   UNL     1     -40.442  52.982 -54.444  1.00  0.00     0.048 A 
HETATM   25  C   UNL     1     -40.099  51.776 -53.869  1.00  0.00     0.105 A 
HETATM   26  C   UNL     1     -39.927  51.641 -52.511  1.00  0.00     0.105 A 
HETATM   27  O   UNL     1     -39.898  50.607 -54.536  1.00  0.00    -0.323 OA
HETATM   28  O   UNL     1     -39.599  50.370 -52.153  1.00  0.00    -0.323 OA
HETATM   29  C   UNL     1     -40.084  52.703 -51.651  1.00  0.00     0.040 A 
HETATM   30  C   UNL     1     -39.575  49.723 -53.442  1.00  0.00     0.352 A 
HETATM   31  C   UNL     1     -40.430  53.939 -52.204  1.00  0.00     0.012 A 
ENDBRANCH  22  23
ENDBRANCH  19  22
ENDBRANCH  17  18
ENDBRANCH   1  17
TORSDOF 7
ENDMDL
