MODEL 1
REMARK VINA RESULT:      -8.9      0.000      0.000
REMARK  5 active torsions:
REMARK  status: ('A' for Active; 'I' for Inactive)
REMARK    1  A    between atoms: C_2  and  C_3 
REMARK    2  A    between atoms: C_6  and  C_7 
REMARK    3  A    between atoms: C_11  and  C_12 
REMARK       I    between atoms: C_12  and  N_13 
REMARK    4  A    between atoms: N_13  and  N_14 
REMARK    5  A    between atoms: C_15  and  C_16 
ROOT
HETATM    1  C   UNL     1     -43.143  56.097 -55.526  1.00  0.00     0.289 C 
HETATM    2  N   UNL     1     -42.096  55.188 -55.443  1.00  0.00    -0.242 N 
HETATM    3  O   UNL     1     -44.035  56.218 -54.691  1.00  0.00    -0.264 OA
HETATM    4  H   UNL     1     -41.310  55.304 -56.072  1.00  0.00     0.192 HD
ENDROOT
BRANCH   1   5
HETATM    5  C   UNL     1     -43.115  56.936 -56.699  1.00  0.00     0.121 A 
HETATM    6  N   UNL     1     -43.981  56.732 -57.736  1.00  0.00    -0.272 N 
HETATM    7  N   UNL     1     -43.814  57.570 -58.767  1.00  0.00    -0.174 NA
HETATM    8  H   UNL     1     -44.706  56.021 -57.793  1.00  0.00     0.189 HD
HETATM    9  C   UNL     1     -42.807  58.375 -58.395  1.00  0.00     0.089 A 
HETATM   10  C   UNL     1     -42.340  58.006 -57.100  1.00  0.00     0.071 A 
BRANCH   9  11
HETATM   11  C   UNL     1     -42.313  59.445 -59.267  1.00  0.00    -0.006 A 
HETATM   12  C   UNL     1     -42.425  59.356 -60.661  1.00  0.00     0.014 A 
HETATM   13  C   UNL     1     -41.954  60.387 -61.482  1.00  0.00     0.008 A 
HETATM   14  C   UNL     1     -41.360  61.526 -60.926  1.00  0.00    -0.059 A 
HETATM   15  C   UNL     1     -41.251  61.621 -59.535  1.00  0.00     0.008 A 
HETATM   16  C   UNL     1     -41.719  60.590 -58.716  1.00  0.00     0.014 A 
BRANCH  14  17
HETATM   17  C   UNL     1     -40.865  62.642 -61.810  1.00  0.00     0.034 C 
HETATM   18  C   UNL     1     -39.489  63.133 -61.384  1.00  0.00     0.010 C 
ENDBRANCH  14  17
ENDBRANCH   9  11
ENDBRANCH   1   5
BRANCH   2  19
HETATM   19  N   UNL     1     -41.839  54.305 -54.423  1.00  0.00    -0.183 NA
HETATM   20  C   UNL     1     -40.742  54.415 -53.743  1.00  0.00     0.153 C 
BRANCH  20  21
HETATM   21  C   UNL     1     -40.452  53.473 -52.673  1.00  0.00     0.018 A 
HETATM   22  C   UNL     1     -40.128  52.084 -52.848  1.00  0.00     0.004 A 
HETATM   23  C   UNL     1     -39.903  51.543 -51.583  1.00  0.00     0.043 A 
HETATM   24  C   UNL     1     -40.003  51.235 -53.969  1.00  0.00     0.014 A 
HETATM   25  C   UNL     1     -39.554  50.203 -51.380  1.00  0.00     0.030 A 
HETATM   26  N   UNL     1     -40.091  52.554 -50.673  1.00  0.00    -0.358 N 
HETATM   27  C   UNL     1     -39.435  49.386 -52.507  1.00  0.00     0.002 A 
HETATM   28  C   UNL     1     -39.657  49.891 -53.784  1.00  0.00     0.001 A 
HETATM   29  H   UNL     1     -39.994  52.442 -49.673  1.00  0.00     0.166 HD
HETATM   30  C   UNL     1     -40.424  53.726 -51.307  1.00  0.00     0.018 A 
HETATM   31  C   UNL     1     -40.679  54.969 -50.532  1.00  0.00     0.069 C 
ENDBRANCH  20  21
ENDBRANCH   2  19
TORSDOF 5
ENDMDL
MODEL 2
REMARK VINA RESULT:      -8.8      6.799     10.773
REMARK  5 active torsions:
REMARK  status: ('A' for Active; 'I' for Inactive)
REMARK    1  A    between atoms: C_2  and  C_3 
REMARK    2  A    between atoms: C_6  and  C_7 
REMARK    3  A    between atoms: C_11  and  C_12 
REMARK       I    between atoms: C_12  and  N_13 
REMARK    4  A    between atoms: N_13  and  N_14 
REMARK    5  A    between atoms: C_15  and  C_16 
ROOT
HETATM    1  C   UNL     1     -44.792  58.238 -51.180  1.00  0.00     0.289 C 
HETATM    2  N   UNL     1     -44.123  59.455 -51.194  1.00  0.00    -0.242 N 
HETATM    3  O   UNL     1     -45.856  58.028 -50.604  1.00  0.00    -0.264 OA
HETATM    4  H   UNL     1     -43.367  59.579 -51.857  1.00  0.00     0.192 HD
ENDROOT
BRANCH   1   5
HETATM    5  C   UNL     1     -44.139  57.188 -51.923  1.00  0.00     0.121 A 
HETATM    6  N   UNL     1     -44.488  56.913 -53.216  1.00  0.00    -0.272 N 
HETATM    7  N   UNL     1     -43.816  55.892 -53.763  1.00  0.00    -0.174 NA
HETATM    8  H   UNL     1     -45.192  57.392 -53.770  1.00  0.00     0.189 HD
HETATM    9  C   UNL     1     -42.974  55.482 -52.802  1.00  0.00     0.089 A 
HETATM   10  C   UNL     1     -43.148  56.272 -51.629  1.00  0.00     0.071 A 
BRANCH   9  11
HETATM   11  C   UNL     1     -42.051  54.362 -53.014  1.00  0.00    -0.006 A 
HETATM   12  C   UNL     1     -42.030  53.657 -54.225  1.00  0.00     0.014 A 
HETATM   13  C   UNL     1     -41.140  52.593 -54.415  1.00  0.00     0.008 A 
HETATM   14  C   UNL     1     -40.258  52.211 -53.399  1.00  0.00    -0.059 A 
HETATM   15  C   UNL     1     -40.272  52.916 -52.190  1.00  0.00     0.008 A 
HETATM   16  C   UNL     1     -41.162  53.976 -52.000  1.00  0.00     0.014 A 
BRANCH  14  17
HETATM   17  C   UNL     1     -39.291  51.074 -53.609  1.00  0.00     0.034 C 
HETATM   18  C   UNL     1     -39.893  49.969 -54.465  1.00  0.00     0.010 C 
ENDBRANCH  14  17
ENDBRANCH   9  11
ENDBRANCH   1   5
BRANCH   2  19
HETATM   19  N   UNL     1     -44.530  60.635 -50.620  1.00  0.00    -0.183 NA
HETATM   20  C   UNL     1     -43.919  61.077 -49.566  1.00  0.00     0.153 C 
BRANCH  20  21
HETATM   21  C   UNL     1     -44.355  62.316 -48.939  1.00  0.00     0.018 A 
HETATM   22  C   UNL     1     -45.339  62.424 -47.899  1.00  0.00     0.004 A 
HETATM   23  C   UNL     1     -45.451  63.772 -47.566  1.00  0.00     0.043 A 
HETATM   24  C   UNL     1     -46.148  61.496 -47.207  1.00  0.00     0.014 A 
HETATM   25  C   UNL     1     -46.321  64.241 -46.574  1.00  0.00     0.030 A 
HETATM   26  N   UNL     1     -44.580  64.461 -48.373  1.00  0.00    -0.358 N 
HETATM   27  C   UNL     1     -47.107  63.302 -45.903  1.00  0.00     0.002 A 
HETATM   28  C   UNL     1     -47.026  61.948 -46.213  1.00  0.00     0.001 A 
HETATM   29  H   UNL     1     -44.455  65.464 -48.348  1.00  0.00     0.166 HD
HETATM   30  C   UNL     1     -43.910  63.603 -49.211  1.00  0.00     0.018 A 
HETATM   31  C   UNL     1     -42.907  64.113 -50.184  1.00  0.00     0.069 C 
ENDBRANCH  20  21
ENDBRANCH   2  19
TORSDOF 5
ENDMDL
MODEL 3
REMARK VINA RESULT:      -8.7      6.360     10.547
REMARK  5 active torsions:
REMARK  status: ('A' for Active; 'I' for Inactive)
REMARK    1  A    between atoms: C_2  and  C_3 
REMARK    2  A    between atoms: C_6  and  C_7 
REMARK    3  A    between atoms: C_11  and  C_12 
REMARK       I    between atoms: C_12  and  N_13 
REMARK    4  A    between atoms: N_13  and  N_14 
REMARK    5  A    between atoms: C_15  and  C_16 
ROOT
HETATM    1  C   UNL     1     -41.999  59.463 -52.415  1.00  0.00     0.289 C 
HETATM    2  N   UNL     1     -42.538  59.475 -51.134  1.00  0.00    -0.242 N 
HETATM    3  O   UNL     1     -41.765  60.463 -53.087  1.00  0.00    -0.264 OA
HETATM    4  H   UNL     1     -42.504  58.620 -50.592  1.00  0.00     0.192 HD
ENDROOT
BRANCH   1   5
HETATM    5  C   UNL     1     -41.709  58.146 -52.929  1.00  0.00     0.121 A 
HETATM    6  N   UNL     1     -41.878  57.849 -54.252  1.00  0.00    -0.272 N 
HETATM    7  N   UNL     1     -41.598  56.580 -54.572  1.00  0.00    -0.174 NA
HETATM    8  H   UNL     1     -42.195  58.482 -54.981  1.00  0.00     0.189 HD
HETATM    9  C   UNL     1     -41.210  56.013 -53.419  1.00  0.00     0.089 A 
HETATM   10  C   UNL     1     -41.268  56.967 -52.362  1.00  0.00     0.071 A 
BRANCH   9  11
HETATM   11  C   UNL     1     -40.814  54.603 -53.349  1.00  0.00    -0.006 A 
HETATM   12  C   UNL     1     -40.566  53.979 -52.119  1.00  0.00     0.014 A 
HETATM   13  C   UNL     1     -40.193  52.630 -52.066  1.00  0.00     0.008 A 
HETATM   14  C   UNL     1     -40.058  51.881 -53.239  1.00  0.00    -0.059 A 
HETATM   15  C   UNL     1     -40.310  52.499 -54.469  1.00  0.00     0.008 A 
HETATM   16  C   UNL     1     -40.679  53.846 -54.522  1.00  0.00     0.014 A 
BRANCH  14  17
HETATM   17  C   UNL     1     -39.669  50.426 -53.181  1.00  0.00     0.034 C 
HETATM   18  C   UNL     1     -39.573  49.810 -54.569  1.00  0.00     0.010 C 
ENDBRANCH  14  17
ENDBRANCH   9  11
ENDBRANCH   1   5
BRANCH   2  19
HETATM   19  N   UNL     1     -42.863  60.575 -50.379  1.00  0.00    -0.183 NA
HETATM   20  C   UNL     1     -44.109  60.847 -50.150  1.00  0.00     0.153 C 
BRANCH  20  21
HETATM   21  C   UNL     1     -44.466  62.020 -49.367  1.00  0.00     0.018 A 
HETATM   22  C   UNL     1     -44.712  62.037 -47.952  1.00  0.00     0.004 A 
HETATM   23  C   UNL     1     -45.003  63.351 -47.592  1.00  0.00     0.043 A 
HETATM   24  C   UNL     1     -44.715  61.052 -46.940  1.00  0.00     0.014 A 
HETATM   25  C   UNL     1     -45.287  63.735 -46.276  1.00  0.00     0.030 A 
HETATM   26  N   UNL     1     -44.946  64.105 -48.738  1.00  0.00    -0.358 N 
HETATM   27  C   UNL     1     -45.280  62.741 -45.294  1.00  0.00     0.002 A 
HETATM   28  C   UNL     1     -45.000  61.417 -45.619  1.00  0.00     0.001 A 
HETATM   29  H   UNL     1     -45.117  65.101 -48.772  1.00  0.00     0.166 HD
HETATM   30  C   UNL     1     -44.626  63.324 -49.821  1.00  0.00     0.018 A 
HETATM   31  C   UNL     1     -44.504  63.913 -51.181  1.00  0.00     0.069 C 
ENDBRANCH  20  21
ENDBRANCH   2  19
TORSDOF 5
ENDMDL
MODEL 4
REMARK VINA RESULT:      -8.6      6.569     10.556
REMARK  5 active torsions:
REMARK  status: ('A' for Active; 'I' for Inactive)
REMARK    1  A    between atoms: C_2  and  C_3 
REMARK    2  A    between atoms: C_6  and  C_7 
REMARK    3  A    between atoms: C_11  and  C_12 
REMARK       I    between atoms: C_12  and  N_13 
REMARK    4  A    between atoms: N_13  and  N_14 
REMARK    5  A    between atoms: C_15  and  C_16 
ROOT
HETATM    1  C   UNL     1     -44.623  58.727 -52.241  1.00  0.00     0.289 C 
HETATM    2  N   UNL     1     -44.116  59.117 -51.007  1.00  0.00    -0.242 N 
HETATM    3  O   UNL     1     -45.458  59.353 -52.886  1.00  0.00    -0.264 OA
HETATM    4  H   UNL     1     -43.292  58.643 -50.656  1.00  0.00     0.192 HD
ENDROOT
BRANCH   1   5
HETATM    5  C   UNL     1     -44.077  57.491 -52.747  1.00  0.00     0.121 A 
HETATM    6  N   UNL     1     -44.663  56.834 -53.793  1.00  0.00    -0.272 N 
HETATM    7  N   UNL     1     -44.061  55.686 -54.130  1.00  0.00    -0.174 NA
HETATM    8  H   UNL     1     -45.488  57.127 -54.309  1.00  0.00     0.189 HD
HETATM    9  C   UNL     1     -43.024  55.583 -53.285  1.00  0.00     0.089 A 
HETATM   10  C   UNL     1     -43.001  56.698 -52.399  1.00  0.00     0.071 A 
BRANCH   9  11
HETATM   11  C   UNL     1     -42.105  54.441 -53.331  1.00  0.00    -0.006 A 
HETATM   12  C   UNL     1     -42.000  53.639 -54.475  1.00  0.00     0.014 A 
HETATM   13  C   UNL     1     -41.115  52.555 -54.507  1.00  0.00     0.008 A 
HETATM   14  C   UNL     1     -40.321  52.249 -53.397  1.00  0.00    -0.059 A 
HETATM   15  C   UNL     1     -40.419  53.051 -52.254  1.00  0.00     0.008 A 
HETATM   16  C   UNL     1     -41.305  54.131 -52.222  1.00  0.00     0.014 A 
BRANCH  14  17
HETATM   17  C   UNL     1     -39.358  51.090 -53.436  1.00  0.00     0.034 C 
HETATM   18  C   UNL     1     -39.814  50.008 -54.405  1.00  0.00     0.010 C 
ENDBRANCH  14  17
ENDBRANCH   9  11
ENDBRANCH   1   5
BRANCH   2  19
HETATM   19  N   UNL     1     -44.411  60.264 -50.312  1.00  0.00    -0.183 NA
HETATM   20  C   UNL     1     -45.420  60.276 -49.499  1.00  0.00     0.153 C 
BRANCH  20  21
HETATM   21  C   UNL     1     -45.753  61.492 -48.772  1.00  0.00     0.018 A 
HETATM   22  C   UNL     1     -45.435  61.756 -47.396  1.00  0.00     0.004 A 
HETATM   23  C   UNL     1     -45.909  63.030 -47.092  1.00  0.00     0.043 A 
HETATM   24  C   UNL     1     -44.783  61.026 -46.378  1.00  0.00     0.014 A 
HETATM   25  C   UNL     1     -45.760  63.617 -45.829  1.00  0.00     0.030 A 
HETATM   26  N   UNL     1     -46.500  63.522 -48.230  1.00  0.00    -0.358 N 
HETATM   27  C   UNL     1     -45.110  62.874 -44.842  1.00  0.00     0.002 A 
HETATM   28  C   UNL     1     -44.629  61.595 -45.108  1.00  0.00     0.001 A 
HETATM   29  H   UNL     1     -46.934  64.433 -48.295  1.00  0.00     0.166 HD
HETATM   30  C   UNL     1     -46.420  62.611 -49.254  1.00  0.00     0.018 A 
HETATM   31  C   UNL     1     -46.992  62.914 -50.593  1.00  0.00     0.069 C 
ENDBRANCH  20  21
ENDBRANCH   2  19
TORSDOF 5
ENDMDL
MODEL 5
REMARK VINA RESULT:      -8.4      6.854     11.214
REMARK  5 active torsions:
REMARK  status: ('A' for Active; 'I' for Inactive)
REMARK    1  A    between atoms: C_2  and  C_3 
REMARK    2  A    between atoms: C_6  and  C_7 
REMARK    3  A    between atoms: C_11  and  C_12 
REMARK       I    between atoms: C_12  and  N_13 
REMARK    4  A    between atoms: N_13  and  N_14 
REMARK    5  A    between atoms: C_15  and  C_16 
ROOT
HETATM    1  C   UNL     1     -42.523  59.132 -51.332  1.00  0.00     0.289 C 
HETATM    2  N   UNL     1     -43.653  59.329 -50.548  1.00  0.00    -0.242 N 
HETATM    3  O   UNL     1     -41.927  60.015 -51.941  1.00  0.00    -0.264 OA
HETATM    4  H   UNL     1     -43.946  58.580 -49.932  1.00  0.00     0.192 HD
ENDROOT
BRANCH   1   5
HETATM    5  C   UNL     1     -42.062  57.765 -51.382  1.00  0.00     0.121 A 
HETATM    6  N   UNL     1     -41.713  57.093 -50.245  1.00  0.00    -0.272 N 
HETATM    7  N   UNL     1     -41.276  55.845 -50.454  1.00  0.00    -0.174 NA
HETATM    8  H   UNL     1     -41.746  57.450 -49.294  1.00  0.00     0.189 HD
HETATM    9  C   UNL     1     -41.353  55.673 -51.783  1.00  0.00     0.089 A 
HETATM   10  C   UNL     1     -41.842  56.860 -52.402  1.00  0.00     0.071 A 
BRANCH   9  11
HETATM   11  C   UNL     1     -40.955  54.414 -52.421  1.00  0.00    -0.006 A 
HETATM   12  C   UNL     1     -41.152  54.202 -53.792  1.00  0.00     0.014 A 
HETATM   13  C   UNL     1     -40.763  52.997 -54.390  1.00  0.00     0.008 A 
HETATM   14  C   UNL     1     -40.175  51.981 -53.629  1.00  0.00    -0.059 A 
HETATM   15  C   UNL     1     -39.972  52.191 -52.261  1.00  0.00     0.008 A 
HETATM   16  C   UNL     1     -40.363  53.393 -51.664  1.00  0.00     0.014 A 
BRANCH  14  17
HETATM   17  C   UNL     1     -39.744  50.689 -54.275  1.00  0.00     0.034 C 
HETATM   18  C   UNL     1     -39.608  49.565 -53.258  1.00  0.00     0.010 C 
ENDBRANCH  14  17
ENDBRANCH   9  11
ENDBRANCH   1   5
BRANCH   2  19
HETATM   19  N   UNL     1     -44.280  60.521 -50.278  1.00  0.00    -0.183 NA
HETATM   20  C   UNL     1     -45.539  60.526 -49.974  1.00  0.00     0.153 C 
BRANCH  20  21
HETATM   21  C   UNL     1     -46.217  61.786 -49.704  1.00  0.00     0.018 A 
HETATM   22  C   UNL     1     -46.477  62.332 -48.401  1.00  0.00     0.004 A 
HETATM   23  C   UNL     1     -47.125  63.552 -48.579  1.00  0.00     0.043 A 
HETATM   24  C   UNL     1     -46.219  61.899 -47.082  1.00  0.00     0.014 A 
HETATM   25  C   UNL     1     -47.521  64.367 -47.511  1.00  0.00     0.030 A 
HETATM   26  N   UNL     1     -47.264  63.741 -49.932  1.00  0.00    -0.358 N 
HETATM   27  C   UNL     1     -47.251  63.916 -46.217  1.00  0.00     0.002 A 
HETATM   28  C   UNL     1     -46.611  62.699 -46.002  1.00  0.00     0.001 A 
HETATM   29  H   UNL     1     -47.704  64.550 -50.350  1.00  0.00     0.166 HD
HETATM   30  C   UNL     1     -46.726  62.688 -50.630  1.00  0.00     0.018 A 
HETATM   31  C   UNL     1     -46.754  62.661 -52.116  1.00  0.00     0.069 C 
ENDBRANCH  20  21
ENDBRANCH   2  19
TORSDOF 5
ENDMDL
MODEL 6
REMARK VINA RESULT:      -8.4      4.064      4.911
REMARK  5 active torsions:
REMARK  status: ('A' for Active; 'I' for Inactive)
REMARK    1  A    between atoms: C_2  and  C_3 
REMARK    2  A    between atoms: C_6  and  C_7 
REMARK    3  A    between atoms: C_11  and  C_12 
REMARK       I    between atoms: C_12  and  N_13 
REMARK    4  A    between atoms: N_13  and  N_14 
REMARK    5  A    between atoms: C_15  and  C_16 
ROOT
HETATM    1  C   UNL     1     -43.398  56.407 -57.477  1.00  0.00     0.289 C 
HETATM    2  N   UNL     1     -43.546  55.385 -56.548  1.00  0.00    -0.242 N 
HETATM    3  O   UNL     1     -42.497  57.240 -57.467  1.00  0.00    -0.264 OA
HETATM    4  H   UNL     1     -44.197  54.637 -56.757  1.00  0.00     0.192 HD
ENDROOT
BRANCH   1   5
HETATM    5  C   UNL     1     -44.408  56.428 -58.508  1.00  0.00     0.121 A 
HETATM    6  N   UNL     1     -44.606  55.352 -59.326  1.00  0.00    -0.272 N 
HETATM    7  N   UNL     1     -45.556  55.531 -60.253  1.00  0.00    -0.174 NA
HETATM    8  H   UNL     1     -44.108  54.466 -59.297  1.00  0.00     0.189 HD
HETATM    9  C   UNL     1     -46.019  56.771 -60.033  1.00  0.00     0.089 A 
HETATM   10  C   UNL     1     -45.320  57.368 -58.944  1.00  0.00     0.071 A 
BRANCH   9  11
HETATM   11  C   UNL     1     -47.084  57.353 -60.856  1.00  0.00    -0.006 A 
HETATM   12  C   UNL     1     -47.914  56.545 -61.646  1.00  0.00     0.014 A 
HETATM   13  C   UNL     1     -48.930  57.113 -62.423  1.00  0.00     0.008 A 
HETATM   14  C   UNL     1     -49.136  58.497 -62.428  1.00  0.00    -0.059 A 
HETATM   15  C   UNL     1     -48.314  59.306 -61.636  1.00  0.00     0.008 A 
HETATM   16  C   UNL     1     -47.296  58.739 -60.863  1.00  0.00     0.014 A 
BRANCH  14  17
HETATM   17  C   UNL     1     -50.239  59.107 -63.254  1.00  0.00     0.034 C 
HETATM   18  C   UNL     1     -51.323  59.725 -62.383  1.00  0.00     0.010 C 
ENDBRANCH  14  17
ENDBRANCH   9  11
ENDBRANCH   1   5
BRANCH   2  19
HETATM   19  N   UNL     1     -42.714  55.092 -55.495  1.00  0.00    -0.183 NA
HETATM   20  C   UNL     1     -43.218  54.648 -54.387  1.00  0.00     0.153 C 
BRANCH  20  21
HETATM   21  C   UNL     1     -42.348  54.352 -53.259  1.00  0.00     0.018 A 
HETATM   22  C   UNL     1     -41.369  53.301 -53.212  1.00  0.00     0.004 A 
HETATM   23  C   UNL     1     -40.740  53.368 -51.971  1.00  0.00     0.043 A 
HETATM   24  C   UNL     1     -40.959  52.296 -54.115  1.00  0.00     0.014 A 
HETATM   25  C   UNL     1     -39.719  52.491 -51.587  1.00  0.00     0.030 A 
HETATM   26  N   UNL     1     -41.315  54.409 -51.283  1.00  0.00    -0.358 N 
HETATM   27  C   UNL     1     -39.330  51.508 -52.500  1.00  0.00     0.002 A 
HETATM   28  C   UNL     1     -39.941  51.408 -53.746  1.00  0.00     0.001 A 
HETATM   29  H   UNL     1     -41.050  54.685 -50.347  1.00  0.00     0.166 HD
HETATM   30  C   UNL     1     -42.287  55.015 -52.040  1.00  0.00     0.018 A 
HETATM   31  C   UNL     1     -43.057  56.173 -51.511  1.00  0.00     0.069 C 
ENDBRANCH  20  21
ENDBRANCH   2  19
TORSDOF 5
ENDMDL
MODEL 7
REMARK VINA RESULT:      -8.3      3.273      4.784
REMARK  5 active torsions:
REMARK  status: ('A' for Active; 'I' for Inactive)
REMARK    1  A    between atoms: C_2  and  C_3 
REMARK    2  A    between atoms: C_6  and  C_7 
REMARK    3  A    between atoms: C_11  and  C_12 
REMARK       I    between atoms: C_12  and  N_13 
REMARK    4  A    between atoms: N_13  and  N_14 
REMARK    5  A    between atoms: C_15  and  C_16 
ROOT
HETATM    1  C   UNL     1     -42.458  56.332 -56.594  1.00  0.00     0.289 C 
HETATM    2  N   UNL     1     -42.163  55.021 -56.240  1.00  0.00    -0.242 N 
HETATM    3  O   UNL     1     -42.089  57.326 -55.977  1.00  0.00    -0.264 OA
HETATM    4  H   UNL     1     -42.340  54.290 -56.918  1.00  0.00     0.192 HD
ENDROOT
BRANCH   1   5
HETATM    5  C   UNL     1     -43.253  56.463 -57.791  1.00  0.00     0.121 A 
HETATM    6  N   UNL     1     -42.762  56.091 -59.011  1.00  0.00    -0.272 N 
HETATM    7  N   UNL     1     -43.604  56.301 -60.032  1.00  0.00    -0.174 NA
HETATM    8  H   UNL     1     -41.846  55.695 -59.203  1.00  0.00     0.189 HD
HETATM    9  C   UNL     1     -44.706  56.817 -59.466  1.00  0.00     0.089 A 
HETATM   10  C   UNL     1     -44.523  56.935 -58.057  1.00  0.00     0.071 A 
BRANCH   9  11
HETATM   11  C   UNL     1     -45.879  57.190 -60.263  1.00  0.00    -0.006 A 
HETATM   12  C   UNL     1     -46.677  56.217 -60.879  1.00  0.00     0.014 A 
HETATM   13  C   UNL     1     -47.797  56.587 -61.634  1.00  0.00     0.008 A 
HETATM   14  C   UNL     1     -48.138  57.935 -61.791  1.00  0.00    -0.059 A 
HETATM   15  C   UNL     1     -47.346  58.909 -61.173  1.00  0.00     0.008 A 
HETATM   16  C   UNL     1     -46.227  58.539 -60.422  1.00  0.00     0.014 A 
BRANCH  14  17
HETATM   17  C   UNL     1     -49.351  58.332 -62.592  1.00  0.00     0.034 C 
HETATM   18  C   UNL     1     -49.194  59.714 -63.209  1.00  0.00     0.010 C 
ENDBRANCH  14  17
ENDBRANCH   9  11
ENDBRANCH   1   5
BRANCH   2  19
HETATM   19  N   UNL     1     -41.389  54.599 -55.187  1.00  0.00    -0.183 NA
HETATM   20  C   UNL     1     -41.931  53.912 -54.231  1.00  0.00     0.153 C 
BRANCH  20  21
HETATM   21  C   UNL     1     -41.124  53.476 -53.102  1.00  0.00     0.018 A 
HETATM   22  C   UNL     1     -41.097  54.095 -51.806  1.00  0.00     0.004 A 
HETATM   23  C   UNL     1     -40.216  53.365 -51.010  1.00  0.00     0.043 A 
HETATM   24  C   UNL     1     -41.745  55.212 -51.234  1.00  0.00     0.014 A 
HETATM   25  C   UNL     1     -39.954  53.687 -49.673  1.00  0.00     0.030 A 
HETATM   26  N   UNL     1     -39.718  52.350 -51.787  1.00  0.00    -0.358 N 
HETATM   27  C   UNL     1     -40.609  54.795 -49.131  1.00  0.00     0.002 A 
HETATM   28  C   UNL     1     -41.492  55.550 -49.898  1.00  0.00     0.001 A 
HETATM   29  H   UNL     1     -39.050  51.663 -51.464  1.00  0.00     0.166 HD
HETATM   30  C   UNL     1     -40.249  52.397 -53.052  1.00  0.00     0.018 A 
HETATM   31  C   UNL     1     -39.862  51.398 -54.084  1.00  0.00     0.069 C 
ENDBRANCH  20  21
ENDBRANCH   2  19
TORSDOF 5
ENDMDL
MODEL 8
REMARK VINA RESULT:      -8.2      6.331     11.168
REMARK  5 active torsions:
REMARK  status: ('A' for Active; 'I' for Inactive)
REMARK    1  A    between atoms: C_2  and  C_3 
REMARK    2  A    between atoms: C_6  and  C_7 
REMARK    3  A    between atoms: C_11  and  C_12 
REMARK       I    between atoms: C_12  and  N_13 
REMARK    4  A    between atoms: N_13  and  N_14 
REMARK    5  A    between atoms: C_15  and  C_16 
ROOT
HETATM    1  C   UNL     1     -42.396  58.899 -51.468  1.00  0.00     0.289 C 
HETATM    2  N   UNL     1     -43.519  59.178 -50.700  1.00  0.00    -0.242 N 
HETATM    3  O   UNL     1     -41.830  59.704 -52.202  1.00  0.00    -0.264 OA
HETATM    4  H   UNL     1     -43.786  58.514 -49.982  1.00  0.00     0.192 HD
ENDROOT
BRANCH   1   5
HETATM    5  C   UNL     1     -41.903  57.549 -51.339  1.00  0.00     0.121 A 
HETATM    6  N   UNL     1     -41.572  57.030 -50.119  1.00  0.00    -0.272 N 
HETATM    7  N   UNL     1     -41.101  55.777 -50.163  1.00  0.00    -0.174 NA
HETATM    8  H   UNL     1     -41.641  57.498 -49.220  1.00  0.00     0.189 HD
HETATM    9  C   UNL     1     -41.135  55.443 -51.462  1.00  0.00     0.089 A 
HETATM   10  C   UNL     1     -41.633  56.532 -52.234  1.00  0.00     0.071 A 
BRANCH   9  11
HETATM   11  C   UNL     1     -40.691  54.127 -51.931  1.00  0.00    -0.006 A 
HETATM   12  C   UNL     1     -40.286  53.133 -51.029  1.00  0.00     0.014 A 
HETATM   13  C   UNL     1     -39.869  51.879 -51.490  1.00  0.00     0.008 A 
HETATM   14  C   UNL     1     -39.844  51.594 -52.859  1.00  0.00    -0.059 A 
HETATM   15  C   UNL     1     -40.253  52.582 -53.763  1.00  0.00     0.008 A 
HETATM   16  C   UNL     1     -40.667  53.835 -53.302  1.00  0.00     0.014 A 
BRANCH  14  17
HETATM   17  C   UNL     1     -39.408  50.240 -53.355  1.00  0.00     0.034 C 
HETATM   18  C   UNL     1     -40.021  49.907 -54.707  1.00  0.00     0.010 C 
ENDBRANCH  14  17
ENDBRANCH   9  11
ENDBRANCH   1   5
BRANCH   2  19
HETATM   19  N   UNL     1     -44.170  60.382 -50.584  1.00  0.00    -0.183 NA
HETATM   20  C   UNL     1     -45.419  60.402 -50.239  1.00  0.00     0.153 C 
BRANCH  20  21
HETATM   21  C   UNL     1     -46.123  61.671 -50.132  1.00  0.00     0.018 A 
HETATM   22  C   UNL     1     -47.025  62.211 -51.111  1.00  0.00     0.004 A 
HETATM   23  C   UNL     1     -47.497  63.427 -50.621  1.00  0.00     0.043 A 
HETATM   24  C   UNL     1     -47.485  61.775 -52.373  1.00  0.00     0.014 A 
HETATM   25  C   UNL     1     -48.410  64.226 -51.321  1.00  0.00     0.030 A 
HETATM   26  N   UNL     1     -46.903  63.627 -49.400  1.00  0.00    -0.358 N 
HETATM   27  C   UNL     1     -48.851  63.770 -52.565  1.00  0.00     0.002 A 
HETATM   28  C   UNL     1     -48.396  62.563 -53.088  1.00  0.00     0.001 A 
HETATM   29  H   UNL     1     -47.064  64.438 -48.817  1.00  0.00     0.166 HD
HETATM   30  C   UNL     1     -46.070  62.583 -49.085  1.00  0.00     0.018 A 
HETATM   31  C   UNL     1     -45.309  62.569 -47.807  1.00  0.00     0.069 C 
ENDBRANCH  20  21
ENDBRANCH   2  19
TORSDOF 5
ENDMDL
MODEL 9
REMARK VINA RESULT:      -8.1      1.061      2.735
REMARK  5 active torsions:
REMARK  status: ('A' for Active; 'I' for Inactive)
REMARK    1  A    between atoms: C_2  and  C_3 
REMARK    2  A    between atoms: C_6  and  C_7 
REMARK    3  A    between atoms: C_11  and  C_12 
REMARK       I    between atoms: C_12  and  N_13 
REMARK    4  A    between atoms: N_13  and  N_14 
REMARK    5  A    between atoms: C_15  and  C_16 
ROOT
HETATM    1  C   UNL     1     -42.830  55.500 -56.436  1.00  0.00     0.289 C 
HETATM    2  N   UNL     1     -42.057  55.796 -55.320  1.00  0.00    -0.242 N 
HETATM    3  O   UNL     1     -43.450  54.454 -56.603  1.00  0.00    -0.264 OA
HETATM    4  H   UNL     1     -41.754  56.753 -55.186  1.00  0.00     0.192 HD
ENDROOT
BRANCH   1   5
HETATM    5  C   UNL     1     -42.870  56.547 -57.428  1.00  0.00     0.121 A 
HETATM    6  N   UNL     1     -43.801  56.538 -58.429  1.00  0.00    -0.272 N 
HETATM    7  N   UNL     1     -43.694  57.557 -59.291  1.00  0.00    -0.174 NA
HETATM    8  H   UNL     1     -44.532  55.846 -58.573  1.00  0.00     0.189 HD
HETATM    9  C   UNL     1     -42.660  58.282 -58.837  1.00  0.00     0.089 A 
HETATM   10  C   UNL     1     -42.115  57.678 -57.667  1.00  0.00     0.071 A 
BRANCH   9  11
HETATM   11  C   UNL     1     -42.216  59.501 -59.520  1.00  0.00    -0.006 A 
HETATM   12  C   UNL     1     -41.756  60.611 -58.798  1.00  0.00     0.014 A 
HETATM   13  C   UNL     1     -41.331  61.768 -59.463  1.00  0.00     0.008 A 
HETATM   14  C   UNL     1     -41.360  61.839 -60.860  1.00  0.00    -0.059 A 
HETATM   15  C   UNL     1     -41.813  60.731 -61.584  1.00  0.00     0.008 A 
HETATM   16  C   UNL     1     -42.241  59.578 -60.920  1.00  0.00     0.014 A 
BRANCH  14  17
HETATM   17  C   UNL     1     -40.889  63.079 -61.575  1.00  0.00     0.034 C 
HETATM   18  C   UNL     1     -39.392  63.042 -61.846  1.00  0.00     0.010 C 
ENDBRANCH  14  17
ENDBRANCH   9  11
ENDBRANCH   1   5
BRANCH   2  19
HETATM   19  N   UNL     1     -41.877  55.016 -54.203  1.00  0.00    -0.183 NA
HETATM   20  C   UNL     1     -40.701  54.539 -53.940  1.00  0.00     0.153 C 
BRANCH  20  21
HETATM   21  C   UNL     1     -40.503  53.697 -52.770  1.00  0.00     0.018 A 
HETATM   22  C   UNL     1     -40.651  54.117 -51.404  1.00  0.00     0.004 A 
HETATM   23  C   UNL     1     -40.393  53.012 -50.595  1.00  0.00     0.043 A 
HETATM   24  C   UNL     1     -40.982  55.339 -50.779  1.00  0.00     0.014 A 
HETATM   25  C   UNL     1     -40.456  53.061 -49.197  1.00  0.00     0.030 A 
HETATM   26  N   UNL     1     -40.091  51.964 -51.428  1.00  0.00    -0.358 N 
HETATM   27  C   UNL     1     -40.789  54.282 -48.605  1.00  0.00     0.002 A 
HETATM   28  C   UNL     1     -41.047  55.407 -49.381  1.00  0.00     0.001 A 
HETATM   29  H   UNL     1     -39.859  51.033 -51.108  1.00  0.00     0.166 HD
HETATM   30  C   UNL     1     -40.150  52.354 -52.744  1.00  0.00     0.018 A 
HETATM   31  C   UNL     1     -39.862  51.392 -53.841  1.00  0.00     0.069 C 
ENDBRANCH  20  21
ENDBRANCH   2  19
TORSDOF 5
ENDMDL
MODEL 10
REMARK VINA RESULT:      -8.1      8.307     11.476
REMARK  5 active torsions:
REMARK  status: ('A' for Active; 'I' for Inactive)
REMARK    1  A    between atoms: C_2  and  C_3 
REMARK    2  A    between atoms: C_6  and  C_7 
REMARK    3  A    between atoms: C_11  and  C_12 
REMARK       I    between atoms: C_12  and  N_13 
REMARK    4  A    between atoms: N_13  and  N_14 
REMARK    5  A    between atoms: C_15  and  C_16 
ROOT
HETATM    1  C   UNL     1     -44.352  60.720 -50.036  1.00  0.00     0.289 C 
HETATM    2  N   UNL     1     -44.507  60.645 -48.657  1.00  0.00    -0.242 N 
HETATM    3  O   UNL     1     -44.422  61.752 -50.695  1.00  0.00    -0.264 OA
HETATM    4  H   UNL     1     -44.233  59.789 -48.189  1.00  0.00     0.192 HD
ENDROOT
BRANCH   1   5
HETATM    5  C   UNL     1     -44.082  59.455 -50.676  1.00  0.00     0.121 A 
HETATM    6  N   UNL     1     -44.985  58.430 -50.628  1.00  0.00    -0.272 N 
HETATM    7  N   UNL     1     -44.581  57.310 -51.241  1.00  0.00    -0.174 NA
HETATM    8  H   UNL     1     -45.896  58.443 -50.177  1.00  0.00     0.189 HD
HETATM    9  C   UNL     1     -43.367  57.607 -51.730  1.00  0.00     0.089 A 
HETATM   10  C   UNL     1     -43.017  58.947 -51.394  1.00  0.00     0.071 A 
BRANCH   9  11
HETATM   11  C   UNL     1     -42.577  56.624 -52.479  1.00  0.00    -0.006 A 
HETATM   12  C   UNL     1     -42.466  55.297 -52.042  1.00  0.00     0.014 A 
HETATM   13  C   UNL     1     -41.713  54.368 -52.770  1.00  0.00     0.008 A 
HETATM   14  C   UNL     1     -41.055  54.747 -53.945  1.00  0.00    -0.059 A 
HETATM   15  C   UNL     1     -41.168  56.069 -54.388  1.00  0.00     0.008 A 
HETATM   16  C   UNL     1     -41.918  56.997 -53.659  1.00  0.00     0.014 A 
BRANCH  14  17
HETATM   17  C   UNL     1     -40.255  53.743 -54.735  1.00  0.00     0.034 C 
HETATM   18  C   UNL     1     -40.276  52.366 -54.087  1.00  0.00     0.010 C 
ENDBRANCH  14  17
ENDBRANCH   9  11
ENDBRANCH   1   5
BRANCH   2  19
HETATM   19  N   UNL     1     -44.720  61.686 -47.786  1.00  0.00    -0.183 NA
HETATM   20  C   UNL     1     -45.222  61.447 -46.616  1.00  0.00     0.153 C 
BRANCH  20  21
HETATM   21  C   UNL     1     -45.470  62.545 -45.693  1.00  0.00     0.018 A 
HETATM   22  C   UNL     1     -44.742  62.797 -44.481  1.00  0.00     0.004 A 
HETATM   23  C   UNL     1     -45.275  63.947 -43.902  1.00  0.00     0.043 A 
HETATM   24  C   UNL     1     -43.674  62.152 -43.820  1.00  0.00     0.014 A 
HETATM   25  C   UNL     1     -44.795  64.490 -42.704  1.00  0.00     0.030 A 
HETATM   26  N   UNL     1     -46.292  64.375 -44.720  1.00  0.00    -0.358 N 
HETATM   27  C   UNL     1     -43.736  63.833 -42.073  1.00  0.00     0.002 A 
HETATM   28  C   UNL     1     -43.182  62.679 -42.620  1.00  0.00     0.001 A 
HETATM   29  H   UNL     1     -46.858  65.193 -44.540  1.00  0.00     0.166 HD
HETATM   30  C   UNL     1     -46.428  63.545 -45.805  1.00  0.00     0.018 A 
HETATM   31  C   UNL     1     -47.466  63.800 -46.839  1.00  0.00     0.069 C 
ENDBRANCH  20  21
ENDBRANCH   2  19
TORSDOF 5
ENDMDL
