MODEL 1
REMARK VINA RESULT:      -6.7      0.000      0.000
REMARK  3 active torsions:
REMARK  status: ('A' for Active; 'I' for Inactive)
REMARK    1  A    between atoms: C_2  and  C_3 
REMARK    2  A    between atoms: C_9  and  C_10 
REMARK    3  A    between atoms: C_21  and  N_22 
ROOT
HETATM    1  C   UNL     1     -40.709  55.161 -49.527  1.00  0.00     0.066 A 
HETATM    2  N   UNL     1     -40.873  54.884 -48.222  1.00  0.00    -0.177 NA
HETATM    3  N   UNL     1     -40.710  53.551 -48.136  1.00  0.00    -0.256 N 
HETATM    4  H   UNL     1     -40.782  53.105 -47.228  1.00  0.00     0.191 HD
HETATM    5  C   UNL     1     -40.460  52.977 -49.340  1.00  0.00     0.175 A 
HETATM    6  C   UNL     1     -40.453  53.982 -50.275  1.00  0.00     0.035 A 
HETATM    7  C   UNL     1     -40.165  53.656 -51.702  1.00  0.00     0.104 A 
HETATM    8  C   UNL     1     -40.024  52.144 -51.882  1.00  0.00     0.067 A 
HETATM    9  C   UNL     1     -39.895  51.635 -53.308  1.00  0.00     0.020 C 
HETATM   10  N   UNL     1     -39.787  51.212 -54.491  1.00  0.00    -0.096 N 
HETATM   11  C   UNL     1     -40.067  51.258 -50.852  1.00  0.00     0.139 A 
HETATM   12  O   UNL     1     -40.263  51.676 -49.525  1.00  0.00    -0.279 OA
ENDROOT
BRANCH   7  13
HETATM   13  C   UNL     1     -41.290  54.259 -52.530  1.00  0.00    -0.043 A 
HETATM   14  C   UNL     1     -40.981  55.214 -53.518  1.00  0.00     0.033 A 
HETATM   15  C   UNL     1     -41.983  55.779 -54.317  1.00  0.00     0.056 A 
HETATM   16 CL   UNL     1     -41.506  56.953 -55.490  1.00  0.00    -0.083 Cl
HETATM   17  C   UNL     1     -43.313  55.386 -54.145  1.00  0.00     0.055 A 
HETATM   18 CL   UNL     1     -44.603  56.039 -55.090  1.00  0.00    -0.083 Cl
HETATM   19  C   UNL     1     -43.633  54.433 -53.176  1.00  0.00     0.026 A 
HETATM   20  C   UNL     1     -42.632  53.872 -52.377  1.00  0.00     0.010 A 
ENDBRANCH   7  13
BRANCH  11  21
HETATM   21  N   UNL     1     -39.951  49.892 -50.967  1.00  0.00    -0.282 NA
HETATM   22  H   UNL     1     -40.792  49.391 -51.242  1.00  0.00     0.126 HD
HETATM   23  H   UNL     1     -39.479  49.474 -50.168  1.00  0.00     0.126 HD
ENDBRANCH  11  21
BRANCH   1  24
HETATM   24  C   UNL     1     -40.811  56.577 -49.991  1.00  0.00     0.057 C 
HETATM   25  C   UNL     1     -42.196  56.916 -50.518  1.00  0.00     0.011 C 
ENDBRANCH   1  24
TORSDOF 3
ENDMDL
MODEL 2
REMARK VINA RESULT:      -6.7      1.783      4.298
REMARK  3 active torsions:
REMARK  status: ('A' for Active; 'I' for Inactive)
REMARK    1  A    between atoms: C_2  and  C_3 
REMARK    2  A    between atoms: C_9  and  C_10 
REMARK    3  A    between atoms: C_21  and  N_22 
ROOT
HETATM    1  C   UNL     1     -40.134  52.069 -52.972  1.00  0.00     0.066 A 
HETATM    2  N   UNL     1     -39.005  51.576 -52.435  1.00  0.00    -0.177 NA
HETATM    3  N   UNL     1     -38.944  52.126 -51.210  1.00  0.00    -0.256 N 
HETATM    4  H   UNL     1     -38.166  51.890 -50.603  1.00  0.00     0.191 HD
HETATM    5  C   UNL     1     -39.987  52.956 -50.958  1.00  0.00     0.175 A 
HETATM    6  C   UNL     1     -40.785  52.955 -52.074  1.00  0.00     0.035 A 
HETATM    7  C   UNL     1     -42.043  53.757 -52.080  1.00  0.00     0.104 A 
HETATM    8  C   UNL     1     -42.160  54.568 -50.788  1.00  0.00     0.067 A 
HETATM    9  C   UNL     1     -43.303  55.566 -50.709  1.00  0.00     0.020 C 
HETATM   10  N   UNL     1     -44.251  56.395 -50.644  1.00  0.00    -0.096 N 
HETATM   11  C   UNL     1     -41.274  54.476 -49.761  1.00  0.00     0.139 A 
HETATM   12  O   UNL     1     -40.159  53.623 -49.821  1.00  0.00    -0.279 OA
ENDROOT
BRANCH   7  13
HETATM   13  C   UNL     1     -42.013  54.620 -53.333  1.00  0.00    -0.043 A 
HETATM   14  C   UNL     1     -42.736  54.209 -54.468  1.00  0.00     0.033 A 
HETATM   15  C   UNL     1     -42.752  54.984 -55.635  1.00  0.00     0.056 A 
HETATM   16 CL   UNL     1     -43.656  54.387 -56.980  1.00  0.00    -0.083 Cl
HETATM   17  C   UNL     1     -42.051  56.191 -55.678  1.00  0.00     0.055 A 
HETATM   18 CL   UNL     1     -42.023  57.200 -57.080  1.00  0.00    -0.083 Cl
HETATM   19  C   UNL     1     -41.337  56.617 -54.555  1.00  0.00     0.026 A 
HETATM   20  C   UNL     1     -41.319  55.841 -53.392  1.00  0.00     0.010 A 
ENDBRANCH   7  13
BRANCH  11  21
HETATM   21  N   UNL     1     -41.335  55.188 -48.586  1.00  0.00    -0.282 NA
HETATM   22  H   UNL     1     -40.823  54.800 -47.797  1.00  0.00     0.126 HD
HETATM   23  H   UNL     1     -42.286  55.464 -48.349  1.00  0.00     0.126 HD
ENDBRANCH  11  21
BRANCH   1  24
HETATM   24  C   UNL     1     -40.531  51.651 -54.350  1.00  0.00     0.057 C 
HETATM   25  C   UNL     1     -40.153  50.210 -54.651  1.00  0.00     0.011 C 
ENDBRANCH   1  24
TORSDOF 3
ENDMDL
MODEL 3
REMARK VINA RESULT:      -6.5      4.524      7.148
REMARK  3 active torsions:
REMARK  status: ('A' for Active; 'I' for Inactive)
REMARK    1  A    between atoms: C_2  and  C_3 
REMARK    2  A    between atoms: C_9  and  C_10 
REMARK    3  A    between atoms: C_21  and  N_22 
ROOT
HETATM    1  C   UNL     1     -41.828  55.702 -55.378  1.00  0.00     0.066 A 
HETATM    2  N   UNL     1     -42.467  55.071 -56.378  1.00  0.00    -0.177 NA
HETATM    3  N   UNL     1     -43.589  55.788 -56.568  1.00  0.00    -0.256 N 
HETATM    4  H   UNL     1     -44.239  55.502 -57.293  1.00  0.00     0.191 HD
HETATM    5  C   UNL     1     -43.686  56.841 -55.718  1.00  0.00     0.175 A 
HETATM    6  C   UNL     1     -42.567  56.825 -54.923  1.00  0.00     0.035 A 
HETATM    7  C   UNL     1     -42.374  57.896 -53.904  1.00  0.00     0.104 A 
HETATM    8  C   UNL     1     -43.595  58.816 -53.864  1.00  0.00     0.067 A 
HETATM    9  C   UNL     1     -43.629  59.861 -52.761  1.00  0.00     0.020 C 
HETATM   10  N   UNL     1     -43.657  60.728 -51.846  1.00  0.00    -0.096 N 
HETATM   11  C   UNL     1     -44.649  58.702 -54.716  1.00  0.00     0.139 A 
HETATM   12  O   UNL     1     -44.698  57.702 -55.702  1.00  0.00    -0.279 OA
ENDROOT
BRANCH   7  13
HETATM   13  C   UNL     1     -42.099  57.202 -52.577  1.00  0.00    -0.043 A 
HETATM   14  C   UNL     1     -43.017  56.249 -52.097  1.00  0.00     0.033 A 
HETATM   15  C   UNL     1     -42.793  55.572 -50.892  1.00  0.00     0.056 A 
HETATM   16 CL   UNL     1     -43.985  54.432 -50.379  1.00  0.00    -0.083 Cl
HETATM   17  C   UNL     1     -41.637  55.834 -50.152  1.00  0.00     0.055 A 
HETATM   18 CL   UNL     1     -41.292  55.041 -48.657  1.00  0.00    -0.083 Cl
HETATM   19  C   UNL     1     -40.712  56.770 -50.621  1.00  0.00     0.026 A 
HETATM   20  C   UNL     1     -40.939  57.447 -51.823  1.00  0.00     0.010 A 
ENDBRANCH   7  13
BRANCH  11  21
HETATM   21  N   UNL     1     -45.769  59.501 -54.714  1.00  0.00    -0.282 NA
HETATM   22  H   UNL     1     -45.722  60.339 -54.139  1.00  0.00     0.126 HD
HETATM   23  H   UNL     1     -46.625  58.968 -54.576  1.00  0.00     0.126 HD
ENDBRANCH  11  21
BRANCH   1  24
HETATM   24  C   UNL     1     -40.512  55.175 -54.905  1.00  0.00     0.057 C 
HETATM   25  C   UNL     1     -40.665  53.978 -53.982  1.00  0.00     0.011 C 
ENDBRANCH   1  24
TORSDOF 3
ENDMDL
MODEL 4
REMARK VINA RESULT:      -6.4      3.692      5.143
REMARK  3 active torsions:
REMARK  status: ('A' for Active; 'I' for Inactive)
REMARK    1  A    between atoms: C_2  and  C_3 
REMARK    2  A    between atoms: C_9  and  C_10 
REMARK    3  A    between atoms: C_21  and  N_22 
ROOT
HETATM    1  C   UNL     1     -41.146  54.936 -51.336  1.00  0.00     0.066 A 
HETATM    2  N   UNL     1     -41.112  53.592 -51.356  1.00  0.00    -0.177 NA
HETATM    3  N   UNL     1     -41.308  53.269 -52.647  1.00  0.00    -0.256 N 
HETATM    4  H   UNL     1     -41.315  52.289 -52.912  1.00  0.00     0.191 HD
HETATM    5  C   UNL     1     -41.475  54.357 -53.439  1.00  0.00     0.175 A 
HETATM    6  C   UNL     1     -41.381  55.464 -52.632  1.00  0.00     0.035 A 
HETATM    7  C   UNL     1     -41.489  56.824 -53.234  1.00  0.00     0.104 A 
HETATM    8  C   UNL     1     -41.809  56.719 -54.726  1.00  0.00     0.067 A 
HETATM    9  C   UNL     1     -42.116  58.018 -55.452  1.00  0.00     0.020 C 
HETATM   10  N   UNL     1     -42.371  59.096 -56.055  1.00  0.00    -0.096 N 
HETATM   11  C   UNL     1     -41.885  55.538 -55.397  1.00  0.00     0.139 A 
HETATM   12  O   UNL     1     -41.685  54.307 -54.750  1.00  0.00    -0.279 OA
ENDROOT
BRANCH   7  13
HETATM   13  C   UNL     1     -42.548  57.578 -52.442  1.00  0.00    -0.043 A 
HETATM   14  C   UNL     1     -42.208  58.797 -51.827  1.00  0.00     0.033 A 
HETATM   15  C   UNL     1     -43.157  59.533 -51.107  1.00  0.00     0.056 A 
HETATM   16 CL   UNL     1     -42.639  61.009 -50.376  1.00  0.00    -0.083 Cl
HETATM   17  C   UNL     1     -44.468  59.062 -51.000  1.00  0.00     0.055 A 
HETATM   18 CL   UNL     1     -45.692  59.912 -50.128  1.00  0.00    -0.083 Cl
HETATM   19  C   UNL     1     -44.822  57.857 -51.614  1.00  0.00     0.026 A 
HETATM   20  C   UNL     1     -43.873  57.122 -52.330  1.00  0.00     0.010 A 
ENDBRANCH   7  13
BRANCH  11  21
HETATM   21  N   UNL     1     -42.175  55.396 -56.734  1.00  0.00    -0.282 NA
HETATM   22  H   UNL     1     -41.378  55.332 -57.363  1.00  0.00     0.126 HD
HETATM   23  H   UNL     1     -42.882  56.055 -57.050  1.00  0.00     0.126 HD
ENDBRANCH  11  21
BRANCH   1  24
HETATM   24  C   UNL     1     -40.946  55.652 -50.040  1.00  0.00     0.057 C 
HETATM   25  C   UNL     1     -40.964  54.710 -48.848  1.00  0.00     0.011 C 
ENDBRANCH   1  24
TORSDOF 3
ENDMDL
MODEL 5
REMARK VINA RESULT:      -6.3      2.685      4.816
REMARK  3 active torsions:
REMARK  status: ('A' for Active; 'I' for Inactive)
REMARK    1  A    between atoms: C_2  and  C_3 
REMARK    2  A    between atoms: C_9  and  C_10 
REMARK    3  A    between atoms: C_21  and  N_22 
ROOT
HETATM    1  C   UNL     1     -43.264  55.238 -54.433  1.00  0.00     0.066 A 
HETATM    2  N   UNL     1     -42.811  54.724 -55.588  1.00  0.00    -0.177 NA
HETATM    3  N   UNL     1     -41.803  53.910 -55.225  1.00  0.00    -0.256 N 
HETATM    4  H   UNL     1     -41.304  53.395 -55.942  1.00  0.00     0.191 HD
HETATM    5  C   UNL     1     -41.598  53.901 -53.884  1.00  0.00     0.175 A 
HETATM    6  C   UNL     1     -42.520  54.751 -53.326  1.00  0.00     0.035 A 
HETATM    7  C   UNL     1     -42.563  54.920 -51.845  1.00  0.00     0.104 A 
HETATM    8  C   UNL     1     -41.423  54.138 -51.190  1.00  0.00     0.067 A 
HETATM    9  C   UNL     1     -41.226  54.341 -49.697  1.00  0.00     0.020 C 
HETATM   10  N   UNL     1     -41.061  54.509 -48.458  1.00  0.00    -0.096 N 
HETATM   11  C   UNL     1     -40.568  53.337 -51.879  1.00  0.00     0.139 A 
HETATM   12  O   UNL     1     -40.664  53.180 -53.272  1.00  0.00    -0.279 OA
ENDROOT
BRANCH   7  13
HETATM   13  C   UNL     1     -42.505  56.415 -51.567  1.00  0.00    -0.043 A 
HETATM   14  C   UNL     1     -41.263  57.077 -51.620  1.00  0.00     0.033 A 
HETATM   15  C   UNL     1     -41.169  58.456 -51.391  1.00  0.00     0.056 A 
HETATM   16 CL   UNL     1     -39.599  59.173 -51.462  1.00  0.00    -0.083 Cl
HETATM   17  C   UNL     1     -42.321  59.196 -51.116  1.00  0.00     0.055 A 
HETATM   18 CL   UNL     1     -42.283  60.897 -50.822  1.00  0.00    -0.083 Cl
HETATM   19  C   UNL     1     -43.561  58.554 -51.070  1.00  0.00     0.026 A 
HETATM   20  C   UNL     1     -43.654  57.177 -51.296  1.00  0.00     0.010 A 
ENDBRANCH   7  13
BRANCH  11  21
HETATM   21  N   UNL     1     -39.527  52.621 -51.334  1.00  0.00    -0.282 NA
HETATM   22  H   UNL     1     -39.763  51.713 -50.941  1.00  0.00     0.126 HD
HETATM   23  H   UNL     1     -38.950  53.187 -50.717  1.00  0.00     0.126 HD
ENDBRANCH  11  21
BRANCH   1  24
HETATM   24  C   UNL     1     -44.413  56.193 -54.459  1.00  0.00     0.057 C 
HETATM   25  C   UNL     1     -44.011  57.570 -54.959  1.00  0.00     0.011 C 
ENDBRANCH   1  24
TORSDOF 3
ENDMDL
MODEL 6
REMARK VINA RESULT:      -6.2      4.130      5.822
REMARK  3 active torsions:
REMARK  status: ('A' for Active; 'I' for Inactive)
REMARK    1  A    between atoms: C_2  and  C_3 
REMARK    2  A    between atoms: C_9  and  C_10 
REMARK    3  A    between atoms: C_21  and  N_22 
ROOT
HETATM    1  C   UNL     1     -42.060  55.383 -51.076  1.00  0.00     0.066 A 
HETATM    2  N   UNL     1     -42.612  54.160 -51.006  1.00  0.00    -0.177 NA
HETATM    3  N   UNL     1     -43.128  53.950 -52.230  1.00  0.00    -0.256 N 
HETATM    4  H   UNL     1     -43.598  53.072 -52.422  1.00  0.00     0.191 HD
HETATM    5  C   UNL     1     -42.931  55.000 -53.066  1.00  0.00     0.175 A 
HETATM    6  C   UNL     1     -42.245  55.957 -52.361  1.00  0.00     0.035 A 
HETATM    7  C   UNL     1     -41.848  57.226 -53.038  1.00  0.00     0.104 A 
HETATM    8  C   UNL     1     -42.411  57.267 -54.459  1.00  0.00     0.067 A 
HETATM    9  C   UNL     1     -42.238  58.568 -55.225  1.00  0.00     0.020 C 
HETATM   10  N   UNL     1     -42.094  59.647 -55.862  1.00  0.00    -0.096 N 
HETATM   11  C   UNL     1     -43.092  56.236 -55.027  1.00  0.00     0.139 A 
HETATM   12  O   UNL     1     -43.344  55.043 -54.329  1.00  0.00    -0.279 OA
ENDROOT
BRANCH   7  13
HETATM   13  C   UNL     1     -42.341  58.369 -52.161  1.00  0.00    -0.043 A 
HETATM   14  C   UNL     1     -43.720  58.496 -51.909  1.00  0.00     0.033 A 
HETATM   15  C   UNL     1     -44.214  59.520 -51.091  1.00  0.00     0.056 A 
HETATM   16 CL   UNL     1     -45.923  59.602 -50.855  1.00  0.00    -0.083 Cl
HETATM   17  C   UNL     1     -43.330  60.429 -50.505  1.00  0.00     0.055 A 
HETATM   18 CL   UNL     1     -43.865  61.719 -49.487  1.00  0.00    -0.083 Cl
HETATM   19  C   UNL     1     -41.958  60.309 -50.739  1.00  0.00     0.026 A 
HETATM   20  C   UNL     1     -41.467  59.288 -51.557  1.00  0.00     0.010 A 
ENDBRANCH   7  13
BRANCH  11  21
HETATM   21  N   UNL     1     -43.620  56.230 -56.297  1.00  0.00    -0.282 NA
HETATM   22  H   UNL     1     -44.413  55.612 -56.452  1.00  0.00     0.126 HD
HETATM   23  H   UNL     1     -42.904  56.149 -57.015  1.00  0.00     0.126 HD
ENDBRANCH  11  21
BRANCH   1  24
HETATM   24  C   UNL     1     -41.372  55.944 -49.875  1.00  0.00     0.057 C 
HETATM   25  C   UNL     1     -41.037  54.876 -48.847  1.00  0.00     0.011 C 
ENDBRANCH   1  24
TORSDOF 3
ENDMDL
MODEL 7
REMARK VINA RESULT:      -6.2     14.427     16.144
REMARK  3 active torsions:
REMARK  status: ('A' for Active; 'I' for Inactive)
REMARK    1  A    between atoms: C_2  and  C_3 
REMARK    2  A    between atoms: C_9  and  C_10 
REMARK    3  A    between atoms: C_21  and  N_22 
ROOT
HETATM    1  C   UNL     1     -36.039  41.880 -55.018  1.00  0.00     0.066 A 
HETATM    2  N   UNL     1     -37.322  41.980 -55.404  1.00  0.00    -0.177 NA
HETATM    3  N   UNL     1     -38.029  41.546 -54.344  1.00  0.00    -0.256 N 
HETATM    4  H   UNL     1     -39.042  41.538 -54.399  1.00  0.00     0.191 HD
HETATM    5  C   UNL     1     -37.238  41.166 -53.310  1.00  0.00     0.175 A 
HETATM    6  C   UNL     1     -35.937  41.361 -53.701  1.00  0.00     0.035 A 
HETATM    7  C   UNL     1     -34.830  41.064 -52.746  1.00  0.00     0.104 A 
HETATM    8  C   UNL     1     -35.389  40.456 -51.459  1.00  0.00     0.067 A 
HETATM    9  C   UNL     1     -34.376  39.942 -50.450  1.00  0.00     0.020 C 
HETATM   10  N   UNL     1     -33.536  39.514 -49.612  1.00  0.00    -0.096 N 
HETATM   11  C   UNL     1     -36.719  40.310 -51.214  1.00  0.00     0.139 A 
HETATM   12  O   UNL     1     -37.690  40.701 -52.150  1.00  0.00    -0.279 OA
ENDROOT
BRANCH   7  13
HETATM   13  C   UNL     1     -33.855  40.147 -53.471  1.00  0.00    -0.043 A 
HETATM   14  C   UNL     1     -34.334  38.959 -54.056  1.00  0.00     0.033 A 
HETATM   15  C   UNL     1     -33.474  38.098 -54.750  1.00  0.00     0.056 A 
HETATM   16 CL   UNL     1     -34.153  36.658 -55.419  1.00  0.00    -0.083 Cl
HETATM   17  C   UNL     1     -32.120  38.419 -54.876  1.00  0.00     0.055 A 
HETATM   18 CL   UNL     1     -31.000  37.406 -55.714  1.00  0.00    -0.083 Cl
HETATM   19  C   UNL     1     -31.633  39.598 -54.308  1.00  0.00     0.026 A 
HETATM   20  C   UNL     1     -32.491  40.456 -53.614  1.00  0.00     0.010 A 
ENDBRANCH   7  13
BRANCH  11  21
HETATM   21  N   UNL     1     -37.266  39.766 -50.075  1.00  0.00    -0.282 NA
HETATM   22  H   UNL     1     -38.275  39.634 -50.080  1.00  0.00     0.126 HD
HETATM   23  H   UNL     1     -36.925  40.214 -49.228  1.00  0.00     0.126 HD
ENDBRANCH  11  21
BRANCH   1  24
HETATM   24  C   UNL     1     -34.958  42.298 -55.961  1.00  0.00     0.057 C 
HETATM   25  C   UNL     1     -34.612  41.210 -56.965  1.00  0.00     0.011 C 
ENDBRANCH   1  24
TORSDOF 3
ENDMDL
MODEL 8
REMARK VINA RESULT:      -6.1     13.943     15.851
REMARK  3 active torsions:
REMARK  status: ('A' for Active; 'I' for Inactive)
REMARK    1  A    between atoms: C_2  and  C_3 
REMARK    2  A    between atoms: C_9  and  C_10 
REMARK    3  A    between atoms: C_21  and  N_22 
ROOT
HETATM    1  C   UNL     1     -32.755  39.174 -55.498  1.00  0.00     0.066 A 
HETATM    2  N   UNL     1     -31.491  39.334 -55.072  1.00  0.00    -0.177 NA
HETATM    3  N   UNL     1     -31.610  39.946 -53.880  1.00  0.00    -0.256 N 
HETATM    4  H   UNL     1     -30.770  40.166 -53.355  1.00  0.00     0.191 HD
HETATM    5  C   UNL     1     -32.901  40.189 -53.544  1.00  0.00     0.175 A 
HETATM    6  C   UNL     1     -33.683  39.708 -54.565  1.00  0.00     0.035 A 
HETATM    7  C   UNL     1     -35.168  39.800 -54.460  1.00  0.00     0.104 A 
HETATM    8  C   UNL     1     -35.563  40.560 -53.193  1.00  0.00     0.067 A 
HETATM    9  C   UNL     1     -37.038  40.886 -53.024  1.00  0.00     0.020 C 
HETATM   10  N   UNL     1     -38.261  41.157 -52.883  1.00  0.00    -0.096 N 
HETATM   11  C   UNL     1     -34.667  40.993 -52.267  1.00  0.00     0.139 A 
HETATM   12  O   UNL     1     -33.286  40.782 -52.420  1.00  0.00    -0.279 OA
ENDROOT
BRANCH   7  13
HETATM   13  C   UNL     1     -35.662  40.463 -55.738  1.00  0.00    -0.043 A 
HETATM   14  C   UNL     1     -36.656  39.823 -56.504  1.00  0.00     0.033 A 
HETATM   15  C   UNL     1     -37.154  40.408 -57.675  1.00  0.00     0.056 A 
HETATM   16 CL   UNL     1     -38.359  39.537 -58.554  1.00  0.00    -0.083 Cl
HETATM   17  C   UNL     1     -36.670  41.650 -58.093  1.00  0.00     0.055 A 
HETATM   18 CL   UNL     1     -37.235  42.432 -59.526  1.00  0.00    -0.083 Cl
HETATM   19  C   UNL     1     -35.692  42.301 -57.337  1.00  0.00     0.026 A 
HETATM   20  C   UNL     1     -35.193  41.715 -56.170  1.00  0.00     0.010 A 
ENDBRANCH   7  13
BRANCH  11  21
HETATM   21  N   UNL     1     -34.975  41.683 -51.117  1.00  0.00    -0.282 NA
HETATM   22  H   UNL     1     -34.187  41.992 -50.553  1.00  0.00     0.126 HD
HETATM   23  H   UNL     1     -35.701  41.224 -50.573  1.00  0.00     0.126 HD
ENDBRANCH  11  21
BRANCH   1  24
HETATM   24  C   UNL     1     -33.005  38.503 -56.808  1.00  0.00     0.057 C 
HETATM   25  C   UNL     1     -33.772  37.199 -56.656  1.00  0.00     0.011 C 
ENDBRANCH   1  24
TORSDOF 3
ENDMDL
MODEL 9
REMARK VINA RESULT:      -6.1      4.302      5.742
REMARK  3 active torsions:
REMARK  status: ('A' for Active; 'I' for Inactive)
REMARK    1  A    between atoms: C_2  and  C_3 
REMARK    2  A    between atoms: C_9  and  C_10 
REMARK    3  A    between atoms: C_21  and  N_22 
ROOT
HETATM    1  C   UNL     1     -41.237  57.296 -50.787  1.00  0.00     0.066 A 
HETATM    2  N   UNL     1     -40.780  56.162 -50.230  1.00  0.00    -0.177 NA
HETATM    3  N   UNL     1     -41.346  55.178 -50.953  1.00  0.00    -0.256 N 
HETATM    4  H   UNL     1     -41.137  54.214 -50.718  1.00  0.00     0.191 HD
HETATM    5  C   UNL     1     -42.151  55.650 -51.937  1.00  0.00     0.175 A 
HETATM    6  C   UNL     1     -42.116  57.021 -51.867  1.00  0.00     0.035 A 
HETATM    7  C   UNL     1     -42.884  57.827 -52.859  1.00  0.00     0.104 A 
HETATM    8  C   UNL     1     -43.707  56.910 -53.765  1.00  0.00     0.067 A 
HETATM    9  C   UNL     1     -44.675  57.584 -54.722  1.00  0.00     0.020 C 
HETATM   10  N   UNL     1     -45.480  58.142 -55.517  1.00  0.00    -0.096 N 
HETATM   11  C   UNL     1     -43.649  55.552 -53.710  1.00  0.00     0.139 A 
HETATM   12  O   UNL     1     -42.826  54.884 -52.787  1.00  0.00    -0.279 OA
ENDROOT
BRANCH   7  13
HETATM   13  C   UNL     1     -43.734  58.811 -52.068  1.00  0.00    -0.043 A 
HETATM   14  C   UNL     1     -43.506  60.192 -52.218  1.00  0.00     0.033 A 
HETATM   15  C   UNL     1     -44.279  61.133 -51.525  1.00  0.00     0.056 A 
HETATM   16 CL   UNL     1     -43.911  62.803 -51.763  1.00  0.00    -0.083 Cl
HETATM   17  C   UNL     1     -45.302  60.702 -50.676  1.00  0.00     0.055 A 
HETATM   18 CL   UNL     1     -46.295  61.801 -49.787  1.00  0.00    -0.083 Cl
HETATM   19  C   UNL     1     -45.546  59.335 -50.525  1.00  0.00     0.026 A 
HETATM   20  C   UNL     1     -44.772  58.397 -51.215  1.00  0.00     0.010 A 
ENDBRANCH   7  13
BRANCH  11  21
HETATM   21  N   UNL     1     -44.373  54.688 -54.499  1.00  0.00    -0.282 NA
HETATM   22  H   UNL     1     -43.839  53.984 -55.002  1.00  0.00     0.126 HD
HETATM   23  H   UNL     1     -45.049  55.173 -55.085  1.00  0.00     0.126 HD
ENDBRANCH  11  21
BRANCH   1  24
HETATM   24  C   UNL     1     -40.794  58.611 -50.235  1.00  0.00     0.057 C 
HETATM   25  C   UNL     1     -39.611  59.190 -50.993  1.00  0.00     0.011 C 
ENDBRANCH   1  24
TORSDOF 3
ENDMDL
MODEL 10
REMARK VINA RESULT:      -6.0      4.480      6.843
REMARK  3 active torsions:
REMARK  status: ('A' for Active; 'I' for Inactive)
REMARK    1  A    between atoms: C_2  and  C_3 
REMARK    2  A    between atoms: C_9  and  C_10 
REMARK    3  A    between atoms: C_21  and  N_22 
ROOT
HETATM    1  C   UNL     1     -44.010  57.683 -55.434  1.00  0.00     0.066 A 
HETATM    2  N   UNL     1     -45.313  58.007 -55.473  1.00  0.00    -0.177 NA
HETATM    3  N   UNL     1     -45.516  58.727 -54.354  1.00  0.00    -0.256 N 
HETATM    4  H   UNL     1     -46.443  59.095 -54.168  1.00  0.00     0.191 HD
HETATM    5  C   UNL     1     -44.392  58.858 -53.607  1.00  0.00     0.175 A 
HETATM    6  C   UNL     1     -43.387  58.194 -54.265  1.00  0.00     0.035 A 
HETATM    7  C   UNL     1     -42.009  58.196 -53.696  1.00  0.00     0.104 A 
HETATM    8  C   UNL     1     -41.997  58.898 -52.338  1.00  0.00     0.067 A 
HETATM    9  C   UNL     1     -40.700  58.838 -51.548  1.00  0.00     0.020 C 
HETATM   10  N   UNL     1     -39.624  58.789 -50.892  1.00  0.00    -0.096 N 
HETATM   11  C   UNL     1     -43.086  59.508 -51.798  1.00  0.00     0.139 A 
HETATM   12  O   UNL     1     -44.327  59.522 -52.457  1.00  0.00    -0.279 OA
ENDROOT
BRANCH   7  13
HETATM   13  C   UNL     1     -41.556  56.744 -53.626  1.00  0.00    -0.043 A 
HETATM   14  C   UNL     1     -42.081  55.907 -52.623  1.00  0.00     0.033 A 
HETATM   15  C   UNL     1     -41.707  54.560 -52.536  1.00  0.00     0.056 A 
HETATM   16 CL   UNL     1     -42.394  53.620 -51.261  1.00  0.00    -0.083 Cl
HETATM   17  C   UNL     1     -40.807  54.027 -53.462  1.00  0.00     0.055 A 
HETATM   18 CL   UNL     1     -40.298  52.377 -53.417  1.00  0.00    -0.083 Cl
HETATM   19  C   UNL     1     -40.285  54.843 -54.468  1.00  0.00     0.026 A 
HETATM   20  C   UNL     1     -40.657  56.188 -54.552  1.00  0.00     0.010 A 
ENDBRANCH   7  13
BRANCH  11  21
HETATM   21  N   UNL     1     -43.124  60.146 -50.580  1.00  0.00    -0.282 NA
HETATM   22  H   UNL     1     -42.234  60.251 -50.100  1.00  0.00     0.126 HD
HETATM   23  H   UNL     1     -43.864  59.791 -49.980  1.00  0.00     0.126 HD
ENDBRANCH  11  21
BRANCH   1  24
HETATM   24  C   UNL     1     -43.424  56.879 -56.548  1.00  0.00     0.057 C 
HETATM   25  C   UNL     1     -42.472  57.691 -57.411  1.00  0.00     0.011 C 
ENDBRANCH   1  24
TORSDOF 3
ENDMDL
