MODEL 1
REMARK VINA RESULT:      -8.2      0.000      0.000
REMARK  2 active torsions:
REMARK  status: ('A' for Active; 'I' for Inactive)
REMARK    1  A    between atoms: C_4  and  C_5 
REMARK    2  A    between atoms: C_10  and  C_11 
ROOT
HETATM    1  C   UNL     1     -41.916  55.657 -52.431  1.00  0.00     0.224 C 
HETATM    2  N   UNL     1     -41.501  54.559 -51.541  1.00  0.00    -0.359 N 
HETATM    3  C   UNL     1     -40.901  54.962 -50.270  1.00  0.00     0.152 C 
HETATM    4  C   UNL     1     -40.906  53.473 -52.224  1.00  0.00     0.047 A 
HETATM    5  C   UNL     1     -41.287  53.173 -53.546  1.00  0.00     0.058 A 
HETATM    6  C   UNL     1     -42.313  54.014 -54.189  1.00  0.00     0.255 C 
HETATM    7  O   UNL     1     -42.772  53.762 -55.297  1.00  0.00    -0.268 OA
HETATM    8  N   UNL     1     -42.732  55.096 -53.474  1.00  0.00    -0.331 N 
HETATM    9  C   UNL     1     -39.966  52.610 -51.636  1.00  0.00     0.030 A 
HETATM   10  C   UNL     1     -39.413  51.531 -52.342  1.00  0.00     0.002 A 
HETATM   11  C   UNL     1     -39.799  51.274 -53.652  1.00  0.00     0.001 A 
HETATM   12  C   UNL     1     -40.745  52.094 -54.258  1.00  0.00     0.019 A 
HETATM   13  H   UNL     1     -43.328  55.718 -53.998  1.00  0.00     0.165 HD
ENDROOT
BRANCH   1  14
HETATM   14  C   UNL     1     -42.726  56.769 -51.822  1.00  0.00     0.034 A 
HETATM   15  C   UNL     1     -42.282  58.060 -51.417  1.00  0.00     0.122 A 
HETATM   16  N   UNL     1     -43.286  58.806 -50.931  1.00  0.00    -0.172 NA
HETATM   17  N   UNL     1     -44.353  57.997 -50.990  1.00  0.00    -0.288 N 
HETATM   18  H   UNL     1     -45.244  58.351 -50.655  1.00  0.00     0.188 HD
HETATM   19  C   UNL     1     -44.075  56.770 -51.503  1.00  0.00     0.123 A 
BRANCH  15  20
HETATM   20  C   UNL     1     -40.880  58.579 -51.470  1.00  0.00     0.106 A 
HETATM   21  O   UNL     1     -40.159  58.999 -50.385  1.00  0.00    -0.313 OA
HETATM   22  C   UNL     1     -38.942  59.413 -50.832  1.00  0.00     0.050 A 
HETATM   23  C   UNL     1     -38.001  59.917 -49.813  1.00  0.00     0.076 C 
HETATM   24  C   UNL     1     -38.867  59.268 -52.200  1.00  0.00     0.035 A 
HETATM   25  C   UNL     1     -40.114  58.735 -52.609  1.00  0.00     0.042 A 
ENDBRANCH  15  20
ENDBRANCH   1  14
TORSDOF 2
ENDMDL
MODEL 2
REMARK VINA RESULT:      -8.1      1.538      2.295
REMARK  2 active torsions:
REMARK  status: ('A' for Active; 'I' for Inactive)
REMARK    1  A    between atoms: C_4  and  C_5 
REMARK    2  A    between atoms: C_10  and  C_11 
ROOT
HETATM    1  C   UNL     1     -42.759  55.461 -51.455  1.00  0.00     0.224 C 
HETATM    2  N   UNL     1     -42.297  55.151 -52.819  1.00  0.00    -0.359 N 
HETATM    3  C   UNL     1     -43.285  55.332 -53.882  1.00  0.00     0.152 C 
HETATM    4  C   UNL     1     -41.471  54.007 -52.889  1.00  0.00     0.047 A 
HETATM    5  C   UNL     1     -40.657  53.652 -51.796  1.00  0.00     0.058 A 
HETATM    6  C   UNL     1     -40.691  54.502 -50.591  1.00  0.00     0.255 C 
HETATM    7  O   UNL     1     -39.942  54.322 -49.637  1.00  0.00    -0.268 OA
HETATM    8  N   UNL     1     -41.605  55.511 -50.598  1.00  0.00    -0.331 N 
HETATM    9  C   UNL     1     -41.363  53.198 -54.033  1.00  0.00     0.030 A 
HETATM   10  C   UNL     1     -40.516  52.081 -54.069  1.00  0.00     0.002 A 
HETATM   11  C   UNL     1     -39.739  51.749 -52.965  1.00  0.00     0.001 A 
HETATM   12  C   UNL     1     -39.803  52.541 -51.824  1.00  0.00     0.019 A 
HETATM   13  H   UNL     1     -41.692  55.981 -49.710  1.00  0.00     0.165 HD
ENDROOT
BRANCH   1  14
HETATM   14  C   UNL     1     -43.485  56.763 -51.251  1.00  0.00     0.034 A 
HETATM   15  C   UNL     1     -42.962  58.084 -51.341  1.00  0.00     0.122 A 
HETATM   16  N   UNL     1     -43.905  59.013 -51.117  1.00  0.00    -0.172 NA
HETATM   17  N   UNL     1     -45.009  58.302 -50.853  1.00  0.00    -0.288 N 
HETATM   18  H   UNL     1     -45.864  58.803 -50.635  1.00  0.00     0.188 HD
HETATM   19  C   UNL     1     -44.814  56.958 -50.910  1.00  0.00     0.123 A 
BRANCH  15  20
HETATM   20  C   UNL     1     -41.542  58.466 -51.618  1.00  0.00     0.106 A 
HETATM   21  O   UNL     1     -40.612  58.771 -50.661  1.00  0.00    -0.313 OA
HETATM   22  C   UNL     1     -39.450  59.081 -51.298  1.00  0.00     0.050 A 
HETATM   23  C   UNL     1     -38.307  59.450 -50.442  1.00  0.00     0.076 C 
HETATM   24  C   UNL     1     -39.618  58.982 -52.663  1.00  0.00     0.035 A 
HETATM   25  C   UNL     1     -40.963  58.590 -52.867  1.00  0.00     0.042 A 
ENDBRANCH  15  20
ENDBRANCH   1  14
TORSDOF 2
ENDMDL
MODEL 3
REMARK VINA RESULT:      -7.7      2.004      6.370
REMARK  2 active torsions:
REMARK  status: ('A' for Active; 'I' for Inactive)
REMARK    1  A    between atoms: C_4  and  C_5 
REMARK    2  A    between atoms: C_10  and  C_11 
ROOT
HETATM    1  C   UNL     1     -41.355  55.967 -51.199  1.00  0.00     0.224 C 
HETATM    2  N   UNL     1     -42.790  56.245 -51.375  1.00  0.00    -0.359 N 
HETATM    3  C   UNL     1     -43.633  55.084 -51.659  1.00  0.00     0.152 C 
HETATM    4  C   UNL     1     -43.051  57.429 -52.100  1.00  0.00     0.047 A 
HETATM    5  C   UNL     1     -42.150  58.509 -52.042  1.00  0.00     0.058 A 
HETATM    6  C   UNL     1     -40.941  58.369 -51.210  1.00  0.00     0.255 C 
HETATM    7  O   UNL     1     -40.157  59.294 -51.025  1.00  0.00    -0.268 OA
HETATM    8  N   UNL     1     -40.741  57.145 -50.647  1.00  0.00    -0.331 N 
HETATM    9  C   UNL     1     -44.215  57.631 -52.862  1.00  0.00     0.030 A 
HETATM   10  C   UNL     1     -44.446  58.830 -53.552  1.00  0.00     0.002 A 
HETATM   11  C   UNL     1     -43.526  59.870 -53.487  1.00  0.00     0.001 A 
HETATM   12  C   UNL     1     -42.374  59.714 -52.723  1.00  0.00     0.019 A 
HETATM   13  H   UNL     1     -39.841  57.048 -50.202  1.00  0.00     0.165 HD
ENDROOT
BRANCH   1  14
HETATM   14  C   UNL     1     -40.979  54.835 -50.282  1.00  0.00     0.034 A 
HETATM   15  C   UNL     1     -40.521  53.533 -50.634  1.00  0.00     0.122 A 
HETATM   16  N   UNL     1     -40.259  52.783 -49.552  1.00  0.00    -0.172 NA
HETATM   17  N   UNL     1     -40.575  53.577 -48.520  1.00  0.00    -0.288 N 
HETATM   18  H   UNL     1     -40.468  53.210 -47.579  1.00  0.00     0.188 HD
HETATM   19  C   UNL     1     -41.018  54.805 -48.896  1.00  0.00     0.123 A 
BRANCH  15  20
HETATM   20  C   UNL     1     -40.357  52.988 -52.018  1.00  0.00     0.106 A 
HETATM   21  O   UNL     1     -40.005  51.699 -52.315  1.00  0.00    -0.313 OA
HETATM   22  C   UNL     1     -39.941  51.591 -53.670  1.00  0.00     0.050 A 
HETATM   23  C   UNL     1     -39.567  50.269 -54.209  1.00  0.00     0.076 C 
HETATM   24  C   UNL     1     -40.246  52.800 -54.256  1.00  0.00     0.035 A 
HETATM   25  C   UNL     1     -40.509  53.697 -53.194  1.00  0.00     0.042 A 
ENDBRANCH  15  20
ENDBRANCH   1  14
TORSDOF 2
ENDMDL
MODEL 4
REMARK VINA RESULT:      -7.6      1.655      1.959
REMARK  2 active torsions:
REMARK  status: ('A' for Active; 'I' for Inactive)
REMARK    1  A    between atoms: C_4  and  C_5 
REMARK    2  A    between atoms: C_10  and  C_11 
ROOT
HETATM    1  C   UNL     1     -41.951  55.833 -53.121  1.00  0.00     0.224 C 
HETATM    2  N   UNL     1     -42.289  54.832 -52.095  1.00  0.00    -0.359 N 
HETATM    3  C   UNL     1     -42.847  55.361 -50.850  1.00  0.00     0.152 C 
HETATM    4  C   UNL     1     -41.341  53.790 -51.989  1.00  0.00     0.047 A 
HETATM    5  C   UNL     1     -40.603  53.385 -53.118  1.00  0.00     0.058 A 
HETATM    6  C   UNL     1     -40.847  54.074 -54.399  1.00  0.00     0.255 C 
HETATM    7  O   UNL     1     -40.322  53.719 -55.448  1.00  0.00    -0.268 OA
HETATM    8  N   UNL     1     -41.701  55.134 -54.354  1.00  0.00    -0.331 N 
HETATM    9  C   UNL     1     -41.113  53.066 -50.806  1.00  0.00     0.030 A 
HETATM   10  C   UNL     1     -40.176  52.024 -50.747  1.00  0.00     0.002 A 
HETATM   11  C   UNL     1     -39.452  51.663 -51.878  1.00  0.00     0.001 A 
HETATM   12  C   UNL     1     -39.669  52.341 -53.072  1.00  0.00     0.019 A 
HETATM   13  H   UNL     1     -41.736  55.660 -55.214  1.00  0.00     0.165 HD
ENDROOT
BRANCH   1  14
HETATM   14  C   UNL     1     -42.989  56.875 -53.437  1.00  0.00     0.034 A 
HETATM   15  C   UNL     1     -43.072  58.210 -52.950  1.00  0.00     0.122 A 
HETATM   16  N   UNL     1     -44.125  58.867 -53.462  1.00  0.00    -0.172 NA
HETATM   17  N   UNL     1     -44.731  57.958 -54.238  1.00  0.00    -0.288 N 
HETATM   18  H   UNL     1     -45.578  58.232 -54.728  1.00  0.00     0.188 HD
HETATM   19  C   UNL     1     -44.103  56.753 -54.253  1.00  0.00     0.123 A 
BRANCH  15  20
HETATM   20  C   UNL     1     -42.151  58.860 -51.966  1.00  0.00     0.106 A 
HETATM   21  O   UNL     1     -40.790  58.720 -51.957  1.00  0.00    -0.313 OA
HETATM   22  C   UNL     1     -40.307  59.444 -50.911  1.00  0.00     0.050 A 
HETATM   23  C   UNL     1     -38.845  59.424 -50.714  1.00  0.00     0.076 C 
HETATM   24  C   UNL     1     -41.344  60.052 -50.238  1.00  0.00     0.035 A 
HETATM   25  C   UNL     1     -42.529  59.673 -50.914  1.00  0.00     0.042 A 
ENDBRANCH  15  20
ENDBRANCH   1  14
TORSDOF 2
ENDMDL
MODEL 5
REMARK VINA RESULT:      -7.5      2.356      2.875
REMARK  2 active torsions:
REMARK  status: ('A' for Active; 'I' for Inactive)
REMARK    1  A    between atoms: C_4  and  C_5 
REMARK    2  A    between atoms: C_10  and  C_11 
ROOT
HETATM    1  C   UNL     1     -42.352  55.646 -52.605  1.00  0.00     0.224 C 
HETATM    2  N   UNL     1     -41.880  54.576 -51.711  1.00  0.00    -0.359 N 
HETATM    3  C   UNL     1     -41.369  55.012 -50.411  1.00  0.00     0.152 C 
HETATM    4  C   UNL     1     -41.166  53.556 -52.379  1.00  0.00     0.047 A 
HETATM    5  C   UNL     1     -41.465  53.241 -53.718  1.00  0.00     0.058 A 
HETATM    6  C   UNL     1     -42.534  53.999 -54.395  1.00  0.00     0.255 C 
HETATM    7  O   UNL     1     -42.924  53.723 -55.523  1.00  0.00    -0.268 OA
HETATM    8  N   UNL     1     -43.074  55.030 -53.687  1.00  0.00    -0.331 N 
HETATM    9  C   UNL     1     -40.178  52.769 -51.762  1.00  0.00     0.030 A 
HETATM   10  C   UNL     1     -39.506  51.752 -52.455  1.00  0.00     0.002 A 
HETATM   11  C   UNL     1     -39.814  51.480 -53.782  1.00  0.00     0.001 A 
HETATM   12  C   UNL     1     -40.803  52.223 -54.418  1.00  0.00     0.019 A 
HETATM   13  H   UNL     1     -43.700  55.606 -54.229  1.00  0.00     0.165 HD
ENDROOT
BRANCH   1  14
HETATM   14  C   UNL     1     -43.280  56.675 -52.020  1.00  0.00     0.034 A 
HETATM   15  C   UNL     1     -43.601  57.964 -52.535  1.00  0.00     0.122 A 
HETATM   16  N   UNL     1     -44.486  58.608 -51.758  1.00  0.00    -0.172 NA
HETATM   17  N   UNL     1     -44.704  57.764 -50.741  1.00  0.00    -0.288 N 
HETATM   18  H   UNL     1     -45.343  58.050 -50.006  1.00  0.00     0.188 HD
HETATM   19  C   UNL     1     -44.006  56.603 -50.841  1.00  0.00     0.123 A 
BRANCH  15  20
HETATM   20  C   UNL     1     -43.039  58.598 -53.768  1.00  0.00     0.106 A 
HETATM   21  O   UNL     1     -43.049  58.032 -55.013  1.00  0.00    -0.313 OA
HETATM   22  C   UNL     1     -42.438  58.898 -55.866  1.00  0.00     0.050 A 
HETATM   23  C   UNL     1     -42.334  58.474 -57.276  1.00  0.00     0.076 C 
HETATM   24  C   UNL     1     -42.027  60.023 -55.184  1.00  0.00     0.035 A 
HETATM   25  C   UNL     1     -42.412  59.827 -53.835  1.00  0.00     0.042 A 
ENDBRANCH  15  20
ENDBRANCH   1  14
TORSDOF 2
ENDMDL
MODEL 6
REMARK VINA RESULT:      -7.4      5.110      7.028
REMARK  2 active torsions:
REMARK  status: ('A' for Active; 'I' for Inactive)
REMARK    1  A    between atoms: C_4  and  C_5 
REMARK    2  A    between atoms: C_10  and  C_11 
ROOT
HETATM    1  C   UNL     1     -43.316  57.560 -57.208  1.00  0.00     0.224 C 
HETATM    2  N   UNL     1     -44.596  58.053 -57.744  1.00  0.00    -0.359 N 
HETATM    3  C   UNL     1     -45.551  58.550 -56.754  1.00  0.00     0.152 C 
HETATM    4  C   UNL     1     -45.107  57.266 -58.800  1.00  0.00     0.047 A 
HETATM    5  C   UNL     1     -44.230  56.575 -59.658  1.00  0.00     0.058 A 
HETATM    6  C   UNL     1     -42.779  56.698 -59.425  1.00  0.00     0.255 C 
HETATM    7  O   UNL     1     -41.947  56.212 -60.182  1.00  0.00    -0.268 OA
HETATM    8  N   UNL     1     -42.410  57.393 -58.313  1.00  0.00    -0.331 N 
HETATM    9  C   UNL     1     -46.477  57.161 -59.096  1.00  0.00     0.030 A 
HETATM   10  C   UNL     1     -46.943  56.384 -60.166  1.00  0.00     0.002 A 
HETATM   11  C   UNL     1     -46.049  55.700 -60.983  1.00  0.00     0.001 A 
HETATM   12  C   UNL     1     -44.685  55.800 -60.734  1.00  0.00     0.019 A 
HETATM   13  H   UNL     1     -41.422  57.339 -58.114  1.00  0.00     0.165 HD
ENDROOT
BRANCH   1  14
HETATM   14  C   UNL     1     -42.601  58.435 -56.214  1.00  0.00     0.034 A 
HETATM   15  C   UNL     1     -41.965  58.047 -55.000  1.00  0.00     0.122 A 
HETATM   16  N   UNL     1     -41.408  59.093 -54.370  1.00  0.00    -0.172 NA
HETATM   17  N   UNL     1     -41.710  60.142 -55.146  1.00  0.00    -0.288 N 
HETATM   18  H   UNL     1     -41.396  61.063 -54.855  1.00  0.00     0.188 HD
HETATM   19  C   UNL     1     -42.427  59.809 -56.252  1.00  0.00     0.123 A 
BRANCH  15  20
HETATM   20  C   UNL     1     -41.909  56.669 -54.421  1.00  0.00     0.106 A 
HETATM   21  O   UNL     1     -42.763  56.185 -53.467  1.00  0.00    -0.313 OA
HETATM   22  C   UNL     1     -42.388  54.907 -53.186  1.00  0.00     0.050 A 
HETATM   23  C   UNL     1     -43.181  54.196 -52.166  1.00  0.00     0.076 C 
HETATM   24  C   UNL     1     -41.295  54.557 -53.949  1.00  0.00     0.035 A 
HETATM   25  C   UNL     1     -40.987  55.691 -54.739  1.00  0.00     0.042 A 
ENDBRANCH  15  20
ENDBRANCH   1  14
TORSDOF 2
ENDMDL
MODEL 7
REMARK VINA RESULT:      -7.4      3.181      5.584
REMARK  2 active torsions:
REMARK  status: ('A' for Active; 'I' for Inactive)
REMARK    1  A    between atoms: C_4  and  C_5 
REMARK    2  A    between atoms: C_10  and  C_11 
ROOT
HETATM    1  C   UNL     1     -42.554  56.794 -54.148  1.00  0.00     0.224 C 
HETATM    2  N   UNL     1     -43.411  56.197 -55.187  1.00  0.00    -0.359 N 
HETATM    3  C   UNL     1     -43.831  54.816 -54.949  1.00  0.00     0.152 C 
HETATM    4  C   UNL     1     -43.028  56.541 -56.502  1.00  0.00     0.047 A 
HETATM    5  C   UNL     1     -42.408  57.779 -56.759  1.00  0.00     0.058 A 
HETATM    6  C   UNL     1     -42.175  58.695 -55.628  1.00  0.00     0.255 C 
HETATM    7  O   UNL     1     -41.734  59.829 -55.778  1.00  0.00    -0.268 OA
HETATM    8  N   UNL     1     -42.485  58.210 -54.393  1.00  0.00    -0.331 N 
HETATM    9  C   UNL     1     -43.278  55.728 -57.620  1.00  0.00     0.030 A 
HETATM   10  C   UNL     1     -42.898  56.114 -58.914  1.00  0.00     0.002 A 
HETATM   11  C   UNL     1     -42.272  57.337 -59.129  1.00  0.00     0.001 A 
HETATM   12  C   UNL     1     -42.030  58.178 -58.049  1.00  0.00     0.019 A 
HETATM   13  H   UNL     1     -42.187  58.809 -53.639  1.00  0.00     0.165 HD
ENDROOT
BRANCH   1  14
HETATM   14  C   UNL     1     -42.994  56.641 -52.718  1.00  0.00     0.034 A 
HETATM   15  C   UNL     1     -42.544  55.692 -51.756  1.00  0.00     0.122 A 
HETATM   16  N   UNL     1     -43.142  55.860 -50.567  1.00  0.00    -0.172 NA
HETATM   17  N   UNL     1     -43.989  56.878 -50.768  1.00  0.00    -0.288 N 
HETATM   18  H   UNL     1     -44.572  57.180 -49.993  1.00  0.00     0.188 HD
HETATM   19  C   UNL     1     -43.950  57.375 -52.032  1.00  0.00     0.123 A 
BRANCH  15  20
HETATM   20  C   UNL     1     -41.551  54.596 -51.981  1.00  0.00     0.106 A 
HETATM   21  O   UNL     1     -41.434  53.870 -53.135  1.00  0.00    -0.313 OA
HETATM   22  C   UNL     1     -40.437  52.961 -52.953  1.00  0.00     0.050 A 
HETATM   23  C   UNL     1     -40.148  52.062 -54.086  1.00  0.00     0.076 C 
HETATM   24  C   UNL     1     -39.906  53.089 -51.688  1.00  0.00     0.035 A 
HETATM   25  C   UNL     1     -40.625  54.137 -51.063  1.00  0.00     0.042 A 
ENDBRANCH  15  20
ENDBRANCH   1  14
TORSDOF 2
ENDMDL
MODEL 8
REMARK VINA RESULT:      -7.4      3.909      6.200
REMARK  2 active torsions:
REMARK  status: ('A' for Active; 'I' for Inactive)
REMARK    1  A    between atoms: C_4  and  C_5 
REMARK    2  A    between atoms: C_10  and  C_11 
ROOT
HETATM    1  C   UNL     1     -43.664  57.030 -55.778  1.00  0.00     0.224 C 
HETATM    2  N   UNL     1     -42.539  57.857 -56.245  1.00  0.00    -0.359 N 
HETATM    3  C   UNL     1     -42.309  59.095 -55.503  1.00  0.00     0.152 C 
HETATM    4  C   UNL     1     -42.426  57.914 -57.653  1.00  0.00     0.047 A 
HETATM    5  C   UNL     1     -42.846  56.826 -58.442  1.00  0.00     0.058 A 
HETATM    6  C   UNL     1     -43.400  55.639 -57.764  1.00  0.00     0.255 C 
HETATM    7  O   UNL     1     -43.695  54.614 -58.367  1.00  0.00    -0.268 OA
HETATM    8  N   UNL     1     -43.562  55.744 -56.415  1.00  0.00    -0.331 N 
HETATM    9  C   UNL     1     -41.855  58.997 -58.341  1.00  0.00     0.030 A 
HETATM   10  C   UNL     1     -41.744  59.007 -59.739  1.00  0.00     0.002 A 
HETATM   11  C   UNL     1     -42.185  57.922 -60.489  1.00  0.00     0.001 A 
HETATM   12  C   UNL     1     -42.734  56.822 -59.839  1.00  0.00     0.019 A 
HETATM   13  H   UNL     1     -44.066  54.970 -56.009  1.00  0.00     0.165 HD
ENDROOT
BRANCH   1  14
HETATM   14  C   UNL     1     -43.753  56.755 -54.301  1.00  0.00     0.034 A 
HETATM   15  C   UNL     1     -42.956  55.868 -53.522  1.00  0.00     0.122 A 
HETATM   16  N   UNL     1     -43.302  55.891 -52.226  1.00  0.00    -0.172 NA
HETATM   17  N   UNL     1     -44.327  56.752 -52.176  1.00  0.00    -0.288 N 
HETATM   18  H   UNL     1     -44.769  56.922 -51.278  1.00  0.00     0.188 HD
HETATM   19  C   UNL     1     -44.644  57.289 -53.383  1.00  0.00     0.123 A 
BRANCH  15  20
HETATM   20  C   UNL     1     -41.870  54.970 -54.024  1.00  0.00     0.106 A 
HETATM   21  O   UNL     1     -41.850  53.610 -53.878  1.00  0.00    -0.313 OA
HETATM   22  C   UNL     1     -40.701  53.150 -54.446  1.00  0.00     0.050 A 
HETATM   23  C   UNL     1     -40.475  51.693 -54.392  1.00  0.00     0.076 C 
HETATM   24  C   UNL     1     -39.972  54.203 -54.957  1.00  0.00     0.035 A 
HETATM   25  C   UNL     1     -40.723  55.371 -54.682  1.00  0.00     0.042 A 
ENDBRANCH  15  20
ENDBRANCH   1  14
TORSDOF 2
ENDMDL
MODEL 9
REMARK VINA RESULT:      -7.3      2.427      6.219
REMARK  2 active torsions:
REMARK  status: ('A' for Active; 'I' for Inactive)
REMARK    1  A    between atoms: C_4  and  C_5 
REMARK    2  A    between atoms: C_10  and  C_11 
ROOT
HETATM    1  C   UNL     1     -43.243  56.798 -52.406  1.00  0.00     0.224 C 
HETATM    2  N   UNL     1     -42.618  58.090 -52.732  1.00  0.00    -0.359 N 
HETATM    3  C   UNL     1     -41.252  58.024 -53.251  1.00  0.00     0.152 C 
HETATM    4  C   UNL     1     -42.907  59.110 -51.798  1.00  0.00     0.047 A 
HETATM    5  C   UNL     1     -44.128  59.101 -51.095  1.00  0.00     0.058 A 
HETATM    6  C   UNL     1     -45.083  58.010 -51.361  1.00  0.00     0.255 C 
HETATM    7  O   UNL     1     -46.205  57.981 -50.869  1.00  0.00    -0.268 OA
HETATM    8  N   UNL     1     -44.648  57.027 -52.198  1.00  0.00    -0.331 N 
HETATM    9  C   UNL     1     -42.055  60.199 -51.549  1.00  0.00     0.030 A 
HETATM   10  C   UNL     1     -42.389  61.201 -50.627  1.00  0.00     0.002 A 
HETATM   11  C   UNL     1     -43.595  61.152 -49.937  1.00  0.00     0.001 A 
HETATM   12  C   UNL     1     -44.473  60.101 -50.175  1.00  0.00     0.019 A 
HETATM   13  H   UNL     1     -45.271  56.235 -52.248  1.00  0.00     0.165 HD
ENDROOT
BRANCH   1  14
HETATM   14  C   UNL     1     -43.149  55.706 -53.437  1.00  0.00     0.034 A 
HETATM   15  C   UNL     1     -42.404  54.494 -53.369  1.00  0.00     0.122 A 
HETATM   16  N   UNL     1     -42.569  53.741 -54.467  1.00  0.00    -0.172 NA
HETATM   17  N   UNL     1     -43.379  54.471 -55.246  1.00  0.00    -0.288 N 
HETATM   18  H   UNL     1     -43.637  54.099 -56.155  1.00  0.00     0.188 HD
HETATM   19  C   UNL     1     -43.747  55.653 -54.686  1.00  0.00     0.123 A 
BRANCH  15  20
HETATM   20  C   UNL     1     -41.504  54.061 -52.255  1.00  0.00     0.106 A 
HETATM   21  O   UNL     1     -41.568  54.529 -50.970  1.00  0.00    -0.313 OA
HETATM   22  C   UNL     1     -40.583  53.915 -50.258  1.00  0.00     0.050 A 
HETATM   23  C   UNL     1     -40.470  54.286 -48.834  1.00  0.00     0.076 C 
HETATM   24  C   UNL     1     -39.879  53.053 -51.070  1.00  0.00     0.035 A 
HETATM   25  C   UNL     1     -40.469  53.150 -52.353  1.00  0.00     0.042 A 
ENDBRANCH  15  20
ENDBRANCH   1  14
TORSDOF 2
ENDMDL
MODEL 10
REMARK VINA RESULT:      -7.2      2.353      3.156
REMARK  2 active torsions:
REMARK  status: ('A' for Active; 'I' for Inactive)
REMARK    1  A    between atoms: C_4  and  C_5 
REMARK    2  A    between atoms: C_10  and  C_11 
ROOT
HETATM    1  C   UNL     1     -43.558  56.228 -53.749  1.00  0.00     0.224 C 
HETATM    2  N   UNL     1     -42.281  55.960 -54.431  1.00  0.00    -0.359 N 
HETATM    3  C   UNL     1     -42.274  56.180 -55.877  1.00  0.00     0.152 C 
HETATM    4  C   UNL     1     -41.611  54.815 -53.946  1.00  0.00     0.047 A 
HETATM    5  C   UNL     1     -41.761  54.422 -52.602  1.00  0.00     0.058 A 
HETATM    6  C   UNL     1     -42.627  55.232 -51.727  1.00  0.00     0.255 C 
HETATM    7  O   UNL     1     -42.733  55.018 -50.524  1.00  0.00    -0.268 OA
HETATM    8  N   UNL     1     -43.306  56.246 -52.332  1.00  0.00    -0.331 N 
HETATM    9  C   UNL     1     -40.732  54.043 -54.725  1.00  0.00     0.030 A 
HETATM   10  C   UNL     1     -40.070  52.923 -54.200  1.00  0.00     0.002 A 
HETATM   11  C   UNL     1     -40.256  52.553 -52.873  1.00  0.00     0.001 A 
HETATM   12  C   UNL     1     -41.100  53.307 -52.066  1.00  0.00     0.019 A 
HETATM   13  H   UNL     1     -43.988  56.687 -51.734  1.00  0.00     0.165 HD
ENDROOT
BRANCH   1  14
HETATM   14  C   UNL     1     -44.250  57.526 -54.064  1.00  0.00     0.034 A 
HETATM   15  C   UNL     1     -43.983  58.818 -53.527  1.00  0.00     0.122 A 
HETATM   16  N   UNL     1     -44.786  59.756 -54.053  1.00  0.00    -0.172 NA
HETATM   17  N   UNL     1     -45.581  59.074 -54.889  1.00  0.00    -0.288 N 
HETATM   18  H   UNL     1     -46.293  59.586 -55.400  1.00  0.00     0.188 HD
HETATM   19  C   UNL     1     -45.312  57.743 -54.928  1.00  0.00     0.123 A 
BRANCH  15  20
HETATM   20  C   UNL     1     -42.968  59.158 -52.482  1.00  0.00     0.106 A 
HETATM   21  O   UNL     1     -41.634  58.865 -52.561  1.00  0.00    -0.313 OA
HETATM   22  C   UNL     1     -41.042  59.315 -51.421  1.00  0.00     0.050 A 
HETATM   23  C   UNL     1     -39.589  59.091 -51.299  1.00  0.00     0.076 C 
HETATM   24  C   UNL     1     -41.983  59.897 -50.599  1.00  0.00     0.035 A 
HETATM   25  C   UNL     1     -43.220  59.792 -51.280  1.00  0.00     0.042 A 
ENDBRANCH  15  20
ENDBRANCH   1  14
TORSDOF 2
ENDMDL
