MODEL 1
REMARK VINA RESULT:      -8.4      0.000      0.000
REMARK  3 active torsions:
REMARK  status: ('A' for Active; 'I' for Inactive)
REMARK    1  A    between atoms: C_3  and  C_4 
REMARK    2  A    between atoms: C_10  and  C_11 
REMARK    3  A    between atoms: C_14  and  O_15 
ROOT
HETATM    1  C   UNL     1     -40.817  54.308 -51.963  1.00  0.00    -0.007 A 
HETATM    2  C   UNL     1     -41.290  55.423 -52.670  1.00  0.00     0.047 A 
HETATM    3  C   UNL     1     -41.580  56.601 -51.963  1.00  0.00     0.086 A 
HETATM    4  C   UNL     1     -41.399  56.643 -50.590  1.00  0.00     0.063 A 
HETATM    5  N   UNL     1     -41.762  57.918 -50.243  1.00  0.00    -0.338 N 
HETATM    6  H   UNL     1     -41.726  58.303 -49.313  1.00  0.00     0.167 HD
HETATM    7  C   UNL     1     -42.143  58.600 -51.379  1.00  0.00     0.139 A 
HETATM    8  N   UNL     1     -42.034  57.807 -52.432  1.00  0.00    -0.228 NA
HETATM    9  C   UNL     1     -40.935  55.560 -49.847  1.00  0.00     0.033 A 
HETATM   10  C   UNL     1     -40.650  54.390 -50.566  1.00  0.00     0.016 A 
ENDROOT
BRANCH   1  11
HETATM   11  C   UNL     1     -40.455  53.017 -52.650  1.00  0.00     0.069 C 
HETATM   12  C   UNL     1     -40.940  52.752 -54.070  1.00  0.00     0.045 C 
HETATM   13  C   UNL     1     -39.971  53.399 -55.061  1.00  0.00     0.017 C 
HETATM   14  C   UNL     1     -41.070  51.254 -54.303  1.00  0.00     0.115 C 
HETATM   15  C   UNL     1     -39.886  50.501 -53.774  1.00  0.00     0.238 C 
HETATM   16  N   UNL     1     -39.304  51.033 -52.654  1.00  0.00    -0.247 N 
HETATM   17  O   UNL     1     -39.507  49.439 -54.260  1.00  0.00    -0.272 OA
HETATM   18  N   UNL     1     -39.660  52.188 -52.033  1.00  0.00    -0.176 NA
HETATM   19  H   UNL     1     -38.570  50.488 -52.213  1.00  0.00     0.192 HD
ENDBRANCH   1  11
BRANCH   7  20
HETATM   20  C   UNL     1     -42.567  60.004 -51.402  1.00  0.00     0.010 A 
HETATM   21  C   UNL     1     -42.773  60.635 -52.636  1.00  0.00     0.018 A 
HETATM   22  C   UNL     1     -43.164  61.974 -52.701  1.00  0.00     0.037 A 
HETATM   23  C   UNL     1     -43.366  62.714 -51.536  1.00  0.00     0.068 A 
HETATM   24  C   UNL     1     -43.175  62.095 -50.301  1.00  0.00     0.037 A 
HETATM   25  C   UNL     1     -42.779  60.751 -50.235  1.00  0.00     0.018 A 
BRANCH  23  26
HETATM   26  O   UNL     1     -43.743  64.011 -51.739  1.00  0.00    -0.356 OA
HETATM   27  C   UNL     1     -42.951  64.782 -52.633  1.00  0.00     0.210 C 
ENDBRANCH  23  26
ENDBRANCH   7  20
TORSDOF 3
ENDMDL
MODEL 2
REMARK VINA RESULT:      -8.3      2.091      2.374
REMARK  3 active torsions:
REMARK  status: ('A' for Active; 'I' for Inactive)
REMARK    1  A    between atoms: C_3  and  C_4 
REMARK    2  A    between atoms: C_10  and  C_11 
REMARK    3  A    between atoms: C_14  and  O_15 
ROOT
HETATM    1  C   UNL     1     -41.375  54.259 -52.106  1.00  0.00    -0.007 A 
HETATM    2  C   UNL     1     -42.367  54.993 -52.773  1.00  0.00     0.047 A 
HETATM    3  C   UNL     1     -42.864  56.163 -52.176  1.00  0.00     0.086 A 
HETATM    4  C   UNL     1     -42.371  56.570 -50.946  1.00  0.00     0.063 A 
HETATM    5  N   UNL     1     -43.056  57.727 -50.678  1.00  0.00    -0.338 N 
HETATM    6  H   UNL     1     -42.924  58.308 -49.866  1.00  0.00     0.167 HD
HETATM    7  C   UNL     1     -43.922  57.986 -51.719  1.00  0.00     0.139 A 
HETATM    8  N   UNL     1     -43.810  57.040 -52.637  1.00  0.00    -0.228 NA
HETATM    9  C   UNL     1     -41.389  55.873 -50.247  1.00  0.00     0.033 A 
HETATM   10  C   UNL     1     -40.904  54.706 -50.855  1.00  0.00     0.016 A 
ENDROOT
BRANCH   1  11
HETATM   11  C   UNL     1     -40.771  53.010 -52.692  1.00  0.00     0.069 C 
HETATM   12  C   UNL     1     -41.021  52.660 -54.154  1.00  0.00     0.045 C 
HETATM   13  C   UNL     1     -40.010  53.403 -55.029  1.00  0.00     0.017 C 
HETATM   14  C   UNL     1     -40.937  51.153 -54.348  1.00  0.00     0.115 C 
HETATM   15  C   UNL     1     -39.756  50.563 -53.639  1.00  0.00     0.238 C 
HETATM   16  N   UNL     1     -39.401  51.184 -52.471  1.00  0.00    -0.247 N 
HETATM   17  O   UNL     1     -39.189  49.546 -54.032  1.00  0.00    -0.272 OA
HETATM   18  N   UNL     1     -39.974  52.298 -51.945  1.00  0.00    -0.176 NA
HETATM   19  H   UNL     1     -38.674  50.742 -51.916  1.00  0.00     0.192 HD
ENDBRANCH   1  11
BRANCH   7  20
HETATM   20  C   UNL     1     -44.799  59.159 -51.797  1.00  0.00     0.010 A 
HETATM   21  C   UNL     1     -45.229  59.770 -50.611  1.00  0.00     0.018 A 
HETATM   22  C   UNL     1     -46.075  60.881 -50.642  1.00  0.00     0.037 A 
HETATM   23  C   UNL     1     -46.506  61.412 -51.857  1.00  0.00     0.068 A 
HETATM   24  C   UNL     1     -46.077  60.821 -53.045  1.00  0.00     0.037 A 
HETATM   25  C   UNL     1     -45.229  59.704 -53.014  1.00  0.00     0.018 A 
BRANCH  23  26
HETATM   26  O   UNL     1     -47.332  62.496 -51.748  1.00  0.00    -0.356 OA
HETATM   27  C   UNL     1     -48.485  62.516 -52.581  1.00  0.00     0.210 C 
ENDBRANCH  23  26
ENDBRANCH   7  20
TORSDOF 3
ENDMDL
MODEL 3
REMARK VINA RESULT:      -8.0      1.482      1.631
REMARK  3 active torsions:
REMARK  status: ('A' for Active; 'I' for Inactive)
REMARK    1  A    between atoms: C_3  and  C_4 
REMARK    2  A    between atoms: C_10  and  C_11 
REMARK    3  A    between atoms: C_14  and  O_15 
ROOT
HETATM    1  C   UNL     1     -41.918  54.304 -52.171  1.00  0.00    -0.007 A 
HETATM    2  C   UNL     1     -41.622  55.660 -52.378  1.00  0.00     0.047 A 
HETATM    3  C   UNL     1     -42.455  56.631 -51.800  1.00  0.00     0.086 A 
HETATM    4  C   UNL     1     -43.548  56.239 -51.043  1.00  0.00     0.063 A 
HETATM    5  N   UNL     1     -44.114  57.420 -50.637  1.00  0.00    -0.338 N 
HETATM    6  H   UNL     1     -44.922  57.505 -50.041  1.00  0.00     0.167 HD
HETATM    7  C   UNL     1     -43.374  58.468 -51.141  1.00  0.00     0.139 A 
HETATM    8  N   UNL     1     -42.360  57.998 -51.849  1.00  0.00    -0.228 NA
HETATM    9  C   UNL     1     -43.881  54.907 -50.815  1.00  0.00     0.033 A 
HETATM   10  C   UNL     1     -43.041  53.948 -51.399  1.00  0.00     0.016 A 
ENDROOT
BRANCH   1  11
HETATM   11  C   UNL     1     -41.059  53.201 -52.732  1.00  0.00     0.069 C 
HETATM   12  C   UNL     1     -41.116  52.878 -54.221  1.00  0.00     0.045 C 
HETATM   13  C   UNL     1     -40.175  53.818 -54.976  1.00  0.00     0.017 C 
HETATM   14  C   UNL     1     -40.758  51.416 -54.448  1.00  0.00     0.115 C 
HETATM   15  C   UNL     1     -39.559  51.004 -53.648  1.00  0.00     0.238 C 
HETATM   16  N   UNL     1     -39.420  51.625 -52.435  1.00  0.00    -0.247 N 
HETATM   17  O   UNL     1     -38.793  50.115 -54.014  1.00  0.00    -0.272 OA
HETATM   18  N   UNL     1     -40.220  52.602 -51.935  1.00  0.00    -0.176 NA
HETATM   19  H   UNL     1     -38.679  51.289 -51.827  1.00  0.00     0.192 HD
ENDBRANCH   1  11
BRANCH   7  20
HETATM   20  C   UNL     1     -43.662  59.885 -50.888  1.00  0.00     0.010 A 
HETATM   21  C   UNL     1     -42.596  60.787 -50.776  1.00  0.00     0.018 A 
HETATM   22  C   UNL     1     -42.827  62.142 -50.523  1.00  0.00     0.037 A 
HETATM   23  C   UNL     1     -44.126  62.628 -50.384  1.00  0.00     0.068 A 
HETATM   24  C   UNL     1     -45.196  61.742 -50.504  1.00  0.00     0.037 A 
HETATM   25  C   UNL     1     -44.965  60.381 -50.756  1.00  0.00     0.018 A 
BRANCH  23  26
HETATM   26  O   UNL     1     -44.213  63.969 -50.136  1.00  0.00    -0.356 OA
HETATM   27  C   UNL     1     -42.993  64.667 -49.925  1.00  0.00     0.210 C 
ENDBRANCH  23  26
ENDBRANCH   7  20
TORSDOF 3
ENDMDL
MODEL 4
REMARK VINA RESULT:      -7.9      5.129      6.620
REMARK  3 active torsions:
REMARK  status: ('A' for Active; 'I' for Inactive)
REMARK    1  A    between atoms: C_3  and  C_4 
REMARK    2  A    between atoms: C_10  and  C_11 
REMARK    3  A    between atoms: C_14  and  O_15 
ROOT
HETATM    1  C   UNL     1     -41.435  54.633 -52.915  1.00  0.00    -0.007 A 
HETATM    2  C   UNL     1     -42.409  55.529 -53.381  1.00  0.00     0.047 A 
HETATM    3  C   UNL     1     -42.539  55.729 -54.765  1.00  0.00     0.086 A 
HETATM    4  C   UNL     1     -41.711  55.045 -55.640  1.00  0.00     0.063 A 
HETATM    5  N   UNL     1     -42.116  55.465 -56.881  1.00  0.00    -0.338 N 
HETATM    6  H   UNL     1     -41.739  55.143 -57.758  1.00  0.00     0.167 HD
HETATM    7  C   UNL     1     -43.149  56.366 -56.733  1.00  0.00     0.139 A 
HETATM    8  N   UNL     1     -43.415  56.532 -55.448  1.00  0.00    -0.228 NA
HETATM    9  C   UNL     1     -40.730  54.150 -55.222  1.00  0.00     0.033 A 
HETATM   10  C   UNL     1     -40.610  53.961 -53.838  1.00  0.00     0.016 A 
ENDROOT
BRANCH   1  11
HETATM   11  C   UNL     1     -41.250  54.341 -51.449  1.00  0.00     0.069 C 
HETATM   12  C   UNL     1     -42.109  55.065 -50.417  1.00  0.00     0.045 C 
HETATM   13  C   UNL     1     -43.438  54.326 -50.263  1.00  0.00     0.017 C 
HETATM   14  C   UNL     1     -41.359  55.163 -49.096  1.00  0.00     0.115 C 
HETATM   15  C   UNL     1     -40.699  53.867 -48.730  1.00  0.00     0.238 C 
HETATM   16  N   UNL     1     -40.253  53.117 -49.786  1.00  0.00    -0.247 N 
HETATM   17  O   UNL     1     -40.500  53.533 -47.565  1.00  0.00    -0.272 OA
HETATM   18  N   UNL     1     -40.409  53.408 -51.103  1.00  0.00    -0.176 NA
HETATM   19  H   UNL     1     -39.709  52.288 -49.564  1.00  0.00     0.192 HD
ENDBRANCH   1  11
BRANCH   7  20
HETATM   20  C   UNL     1     -43.858  57.006 -57.847  1.00  0.00     0.010 A 
HETATM   21  C   UNL     1     -44.768  58.036 -57.574  1.00  0.00     0.018 A 
HETATM   22  C   UNL     1     -45.473  58.662 -58.605  1.00  0.00     0.037 A 
HETATM   23  C   UNL     1     -45.281  58.280 -59.932  1.00  0.00     0.068 A 
HETATM   24  C   UNL     1     -44.370  57.264 -60.218  1.00  0.00     0.037 A 
HETATM   25  C   UNL     1     -43.663  56.633 -59.184  1.00  0.00     0.018 A 
BRANCH  23  26
HETATM   26  O   UNL     1     -46.033  58.968 -60.842  1.00  0.00    -0.356 OA
HETATM   27  C   UNL     1     -47.359  58.506 -61.066  1.00  0.00     0.210 C 
ENDBRANCH  23  26
ENDBRANCH   7  20
TORSDOF 3
ENDMDL
MODEL 5
REMARK VINA RESULT:      -7.8      2.515      9.622
REMARK  3 active torsions:
REMARK  status: ('A' for Active; 'I' for Inactive)
REMARK    1  A    between atoms: C_3  and  C_4 
REMARK    2  A    between atoms: C_10  and  C_11 
REMARK    3  A    between atoms: C_14  and  O_15 
ROOT
HETATM    1  C   UNL     1     -44.484  59.166 -51.718  1.00  0.00    -0.007 A 
HETATM    2  C   UNL     1     -43.578  58.243 -51.175  1.00  0.00     0.047 A 
HETATM    3  C   UNL     1     -43.196  57.133 -51.945  1.00  0.00     0.086 A 
HETATM    4  C   UNL     1     -43.719  56.966 -53.218  1.00  0.00     0.063 A 
HETATM    5  N   UNL     1     -43.134  55.812 -53.672  1.00  0.00    -0.338 N 
HETATM    6  H   UNL     1     -43.271  55.407 -54.584  1.00  0.00     0.167 HD
HETATM    7  C   UNL     1     -42.296  55.320 -52.693  1.00  0.00     0.139 A 
HETATM    8  N   UNL     1     -42.326  56.119 -51.639  1.00  0.00    -0.228 NA
HETATM    9  C   UNL     1     -44.623  57.854 -53.795  1.00  0.00     0.033 A 
HETATM   10  C   UNL     1     -44.995  58.957 -53.014  1.00  0.00     0.016 A 
ENDROOT
BRANCH   1  11
HETATM   11  C   UNL     1     -44.921  60.396 -50.967  1.00  0.00     0.069 C 
HETATM   12  C   UNL     1     -43.976  61.050 -49.966  1.00  0.00     0.045 C 
HETATM   13  C   UNL     1     -43.033  61.997 -50.710  1.00  0.00     0.017 C 
HETATM   14  C   UNL     1     -44.776  61.776 -48.894  1.00  0.00     0.115 C 
HETATM   15  C   UNL     1     -45.900  62.577 -49.482  1.00  0.00     0.238 C 
HETATM   16  N   UNL     1     -46.471  62.048 -50.608  1.00  0.00    -0.247 N 
HETATM   17  O   UNL     1     -46.333  63.596 -48.950  1.00  0.00    -0.272 OA
HETATM   18  N   UNL     1     -46.078  60.922 -51.259  1.00  0.00    -0.176 NA
HETATM   19  H   UNL     1     -47.301  62.512 -50.965  1.00  0.00     0.192 HD
ENDBRANCH   1  11
BRANCH   7  20
HETATM   20  C   UNL     1     -41.475  54.113 -52.833  1.00  0.00     0.010 A 
HETATM   21  C   UNL     1     -41.431  53.457 -54.070  1.00  0.00     0.018 A 
HETATM   22  C   UNL     1     -40.671  52.297 -54.241  1.00  0.00     0.037 A 
HETATM   23  C   UNL     1     -39.933  51.769 -53.183  1.00  0.00     0.068 A 
HETATM   24  C   UNL     1     -39.959  52.418 -51.949  1.00  0.00     0.037 A 
HETATM   25  C   UNL     1     -40.723  53.582 -51.776  1.00  0.00     0.018 A 
BRANCH  23  26
HETATM   26  O   UNL     1     -39.237  50.631 -53.481  1.00  0.00    -0.356 OA
HETATM   27  C   UNL     1     -39.697  49.863 -54.585  1.00  0.00     0.210 C 
ENDBRANCH  23  26
ENDBRANCH   7  20
TORSDOF 3
ENDMDL
MODEL 6
REMARK VINA RESULT:      -7.8      5.184      9.508
REMARK  3 active torsions:
REMARK  status: ('A' for Active; 'I' for Inactive)
REMARK    1  A    between atoms: C_3  and  C_4 
REMARK    2  A    between atoms: C_10  and  C_11 
REMARK    3  A    between atoms: C_14  and  O_15 
ROOT
HETATM    1  C   UNL     1     -43.926  57.541 -57.198  1.00  0.00    -0.007 A 
HETATM    2  C   UNL     1     -42.914  56.569 -57.191  1.00  0.00     0.047 A 
HETATM    3  C   UNL     1     -42.649  55.874 -56.000  1.00  0.00     0.086 A 
HETATM    4  C   UNL     1     -43.382  56.158 -54.859  1.00  0.00     0.063 A 
HETATM    5  N   UNL     1     -42.874  55.306 -53.914  1.00  0.00    -0.338 N 
HETATM    6  H   UNL     1     -43.200  55.226 -52.964  1.00  0.00     0.167 HD
HETATM    7  C   UNL     1     -41.875  54.547 -54.486  1.00  0.00     0.139 A 
HETATM    8  N   UNL     1     -41.732  54.884 -55.757  1.00  0.00    -0.228 NA
HETATM    9  C   UNL     1     -44.392  57.116 -54.819  1.00  0.00     0.033 A 
HETATM   10  C   UNL     1     -44.646  57.803 -56.015  1.00  0.00     0.016 A 
ENDROOT
BRANCH   1  11
HETATM   11  C   UNL     1     -44.291  58.309 -58.441  1.00  0.00     0.069 C 
HETATM   12  C   UNL     1     -43.841  59.758 -58.597  1.00  0.00     0.045 C 
HETATM   13  C   UNL     1     -42.418  59.784 -59.157  1.00  0.00     0.017 C 
HETATM   14  C   UNL     1     -44.815  60.509 -59.492  1.00  0.00     0.115 C 
HETATM   15  C   UNL     1     -45.184  59.715 -60.709  1.00  0.00     0.238 C 
HETATM   16  N   UNL     1     -45.231  58.357 -60.532  1.00  0.00    -0.247 N 
HETATM   17  O   UNL     1     -45.499  60.242 -61.773  1.00  0.00    -0.272 OA
HETATM   18  N   UNL     1     -44.919  57.682 -59.395  1.00  0.00    -0.176 NA
HETATM   19  H   UNL     1     -45.580  57.803 -61.308  1.00  0.00     0.192 HD
ENDBRANCH   1  11
BRANCH   7  20
HETATM   20  C   UNL     1     -41.121  53.502 -53.785  1.00  0.00     0.010 A 
HETATM   21  C   UNL     1     -40.968  53.587 -52.395  1.00  0.00     0.018 A 
HETATM   22  C   UNL     1     -40.247  52.619 -51.692  1.00  0.00     0.037 A 
HETATM   23  C   UNL     1     -39.667  51.540 -52.359  1.00  0.00     0.068 A 
HETATM   24  C   UNL     1     -39.822  51.437 -53.741  1.00  0.00     0.037 A 
HETATM   25  C   UNL     1     -40.544  52.410 -54.448  1.00  0.00     0.018 A 
BRANCH  23  26
HETATM   26  O   UNL     1     -38.987  50.667 -51.556  1.00  0.00    -0.356 OA
HETATM   27  C   UNL     1     -39.764  49.829 -50.710  1.00  0.00     0.210 C 
ENDBRANCH  23  26
ENDBRANCH   7  20
TORSDOF 3
ENDMDL
MODEL 7
REMARK VINA RESULT:      -7.7     17.337     19.625
REMARK  3 active torsions:
REMARK  status: ('A' for Active; 'I' for Inactive)
REMARK    1  A    between atoms: C_3  and  C_4 
REMARK    2  A    between atoms: C_10  and  C_11 
REMARK    3  A    between atoms: C_14  and  O_15 
ROOT
HETATM    1  C   UNL     1     -35.221  40.932 -54.913  1.00  0.00    -0.007 A 
HETATM    2  C   UNL     1     -35.925  39.889 -55.533  1.00  0.00     0.047 A 
HETATM    3  C   UNL     1     -36.333  40.046 -56.868  1.00  0.00     0.086 A 
HETATM    4  C   UNL     1     -36.038  41.218 -57.545  1.00  0.00     0.063 A 
HETATM    5  N   UNL     1     -36.565  41.024 -58.795  1.00  0.00    -0.338 N 
HETATM    6  H   UNL     1     -36.506  41.676 -59.561  1.00  0.00     0.167 HD
HETATM    7  C   UNL     1     -37.149  39.777 -58.847  1.00  0.00     0.139 A 
HETATM    8  N   UNL     1     -37.011  39.172 -57.678  1.00  0.00    -0.228 NA
HETATM    9  C   UNL     1     -35.345  42.280 -56.968  1.00  0.00     0.033 A 
HETATM   10  C   UNL     1     -34.945  42.110 -55.635  1.00  0.00     0.016 A 
ENDROOT
BRANCH   1  11
HETATM   11  C   UNL     1     -34.723  40.831 -53.495  1.00  0.00     0.069 C 
HETATM   12  C   UNL     1     -35.427  41.607 -52.387  1.00  0.00     0.045 C 
HETATM   13  C   UNL     1     -36.623  40.795 -51.887  1.00  0.00     0.017 C 
HETATM   14  C   UNL     1     -34.445  41.916 -51.266  1.00  0.00     0.115 C 
HETATM   15  C   UNL     1     -33.605  40.725 -50.915  1.00  0.00     0.238 C 
HETATM   16  N   UNL     1     -33.305  39.890 -51.958  1.00  0.00    -0.247 N 
HETATM   17  O   UNL     1     -33.148  40.547 -49.789  1.00  0.00    -0.272 OA
HETATM   18  N   UNL     1     -33.745  40.009 -53.238  1.00  0.00    -0.176 NA
HETATM   19  H   UNL     1     -32.651  39.136 -51.771  1.00  0.00     0.192 HD
ENDBRANCH   1  11
BRANCH   7  20
HETATM   20  C   UNL     1     -37.789  39.207 -60.038  1.00  0.00     0.010 A 
HETATM   21  C   UNL     1     -39.035  38.580 -59.909  1.00  0.00     0.018 A 
HETATM   22  C   UNL     1     -39.671  38.014 -61.016  1.00  0.00     0.037 A 
HETATM   23  C   UNL     1     -39.082  38.067 -62.279  1.00  0.00     0.068 A 
HETATM   24  C   UNL     1     -37.847  38.699 -62.423  1.00  0.00     0.037 A 
HETATM   25  C   UNL     1     -37.207  39.265 -61.311  1.00  0.00     0.018 A 
BRANCH  23  26
HETATM   26  O   UNL     1     -39.806  37.474 -63.275  1.00  0.00    -0.356 OA
HETATM   27  C   UNL     1     -41.172  37.853 -63.394  1.00  0.00     0.210 C 
ENDBRANCH  23  26
ENDBRANCH   7  20
TORSDOF 3
ENDMDL
MODEL 8
REMARK VINA RESULT:      -7.6      5.061      6.414
REMARK  3 active torsions:
REMARK  status: ('A' for Active; 'I' for Inactive)
REMARK    1  A    between atoms: C_3  and  C_4 
REMARK    2  A    between atoms: C_10  and  C_11 
REMARK    3  A    between atoms: C_14  and  O_15 
ROOT
HETATM    1  C   UNL     1     -41.687  54.735 -53.074  1.00  0.00    -0.007 A 
HETATM    2  C   UNL     1     -41.878  56.027 -53.588  1.00  0.00     0.047 A 
HETATM    3  C   UNL     1     -42.101  56.182 -54.966  1.00  0.00     0.086 A 
HETATM    4  C   UNL     1     -42.127  55.068 -55.789  1.00  0.00     0.063 A 
HETATM    5  N   UNL     1     -42.373  55.580 -57.037  1.00  0.00    -0.338 N 
HETATM    6  H   UNL     1     -42.484  55.038 -57.879  1.00  0.00     0.167 HD
HETATM    7  C   UNL     1     -42.487  56.950 -56.944  1.00  0.00     0.139 A 
HETATM    8  N   UNL     1     -42.325  57.327 -55.686  1.00  0.00    -0.228 NA
HETATM    9  C   UNL     1     -41.940  53.769 -55.323  1.00  0.00     0.033 A 
HETATM   10  C   UNL     1     -41.717  53.629 -53.946  1.00  0.00     0.016 A 
ENDROOT
BRANCH   1  11
HETATM   11  C   UNL     1     -41.470  54.481 -51.605  1.00  0.00     0.069 C 
HETATM   12  C   UNL     1     -42.203  55.330 -50.572  1.00  0.00     0.045 C 
HETATM   13  C   UNL     1     -43.595  54.742 -50.336  1.00  0.00     0.017 C 
HETATM   14  C   UNL     1     -41.391  55.397 -49.287  1.00  0.00     0.115 C 
HETATM   15  C   UNL     1     -40.855  54.052 -48.893  1.00  0.00     0.238 C 
HETATM   16  N   UNL     1     -40.536  53.220 -49.933  1.00  0.00    -0.247 N 
HETATM   17  O   UNL     1     -40.641  53.743 -47.724  1.00  0.00    -0.272 OA
HETATM   18  N   UNL     1     -40.717  53.476 -51.255  1.00  0.00    -0.176 NA
HETATM   19  H   UNL     1     -40.072  52.347 -49.699  1.00  0.00     0.192 HD
ENDBRANCH   1  11
BRANCH   7  20
HETATM   20  C   UNL     1     -42.782  57.838 -58.075  1.00  0.00     0.010 A 
HETATM   21  C   UNL     1     -41.894  57.879 -59.158  1.00  0.00     0.018 A 
HETATM   22  C   UNL     1     -42.132  58.721 -60.248  1.00  0.00     0.037 A 
HETATM   23  C   UNL     1     -43.264  59.534 -60.285  1.00  0.00     0.068 A 
HETATM   24  C   UNL     1     -44.161  59.494 -59.218  1.00  0.00     0.037 A 
HETATM   25  C   UNL     1     -43.922  58.651 -58.122  1.00  0.00     0.018 A 
BRANCH  23  26
HETATM   26  O   UNL     1     -43.376  60.310 -61.404  1.00  0.00    -0.356 OA
HETATM   27  C   UNL     1     -42.179  60.880 -61.918  1.00  0.00     0.210 C 
ENDBRANCH  23  26
ENDBRANCH   7  20
TORSDOF 3
ENDMDL
MODEL 9
REMARK VINA RESULT:      -7.5      2.312      9.418
REMARK  3 active torsions:
REMARK  status: ('A' for Active; 'I' for Inactive)
REMARK    1  A    between atoms: C_3  and  C_4 
REMARK    2  A    between atoms: C_10  and  C_11 
REMARK    3  A    between atoms: C_14  and  O_15 
ROOT
HETATM    1  C   UNL     1     -43.790  59.441 -51.757  1.00  0.00    -0.007 A 
HETATM    2  C   UNL     1     -43.870  58.168 -52.340  1.00  0.00     0.047 A 
HETATM    3  C   UNL     1     -42.798  57.276 -52.172  1.00  0.00     0.086 A 
HETATM    4  C   UNL     1     -41.687  57.666 -51.440  1.00  0.00     0.063 A 
HETATM    5  N   UNL     1     -40.864  56.570 -51.473  1.00  0.00    -0.338 N 
HETATM    6  H   UNL     1     -39.971  56.496 -51.012  1.00  0.00     0.167 HD
HETATM    7  C   UNL     1     -41.476  55.572 -52.201  1.00  0.00     0.139 A 
HETATM    8  N   UNL     1     -42.655  55.992 -52.629  1.00  0.00    -0.228 NA
HETATM    9  C   UNL     1     -41.564  58.919 -50.847  1.00  0.00     0.033 A 
HETATM   10  C   UNL     1     -42.641  59.799 -51.024  1.00  0.00     0.016 A 
ENDROOT
BRANCH   1  11
HETATM   11  C   UNL     1     -44.908  60.444 -51.866  1.00  0.00     0.069 C 
HETATM   12  C   UNL     1     -44.618  61.928 -51.671  1.00  0.00     0.045 C 
HETATM   13  C   UNL     1     -44.130  62.523 -52.993  1.00  0.00     0.017 C 
HETATM   14  C   UNL     1     -45.863  62.637 -51.157  1.00  0.00     0.115 C 
HETATM   15  C   UNL     1     -47.094  62.217 -51.904  1.00  0.00     0.238 C 
HETATM   16  N   UNL     1     -47.102  60.918 -52.339  1.00  0.00    -0.247 N 
HETATM   17  O   UNL     1     -48.062  62.958 -52.051  1.00  0.00    -0.272 OA
HETATM   18  N   UNL     1     -46.092  60.019 -52.210  1.00  0.00    -0.176 NA
HETATM   19  H   UNL     1     -47.964  60.577 -52.753  1.00  0.00     0.192 HD
ENDBRANCH   1  11
BRANCH   7  20
HETATM   20  C   UNL     1     -40.907  54.239 -52.425  1.00  0.00     0.010 A 
HETATM   21  C   UNL     1     -41.010  53.657 -53.695  1.00  0.00     0.018 A 
HETATM   22  C   UNL     1     -40.492  52.384 -53.946  1.00  0.00     0.037 A 
HETATM   23  C   UNL     1     -39.853  51.665 -52.936  1.00  0.00     0.068 A 
HETATM   24  C   UNL     1     -39.734  52.237 -51.670  1.00  0.00     0.037 A 
HETATM   25  C   UNL     1     -40.255  53.514 -51.417  1.00  0.00     0.018 A 
BRANCH  23  26
HETATM   26  O   UNL     1     -39.395  50.433 -53.311  1.00  0.00    -0.356 OA
HETATM   27  C   UNL     1     -39.970  49.858 -54.478  1.00  0.00     0.210 C 
ENDBRANCH  23  26
ENDBRANCH   7  20
TORSDOF 3
ENDMDL
MODEL 10
REMARK VINA RESULT:      -7.4      1.868      2.617
REMARK  3 active torsions:
REMARK  status: ('A' for Active; 'I' for Inactive)
REMARK    1  A    between atoms: C_3  and  C_4 
REMARK    2  A    between atoms: C_10  and  C_11 
REMARK    3  A    between atoms: C_14  and  O_15 
ROOT
HETATM    1  C   UNL     1     -40.975  54.493 -53.161  1.00  0.00    -0.007 A 
HETATM    2  C   UNL     1     -41.719  55.004 -52.087  1.00  0.00     0.047 A 
HETATM    3  C   UNL     1     -42.084  56.360 -52.099  1.00  0.00     0.086 A 
HETATM    4  C   UNL     1     -41.705  57.165 -53.161  1.00  0.00     0.063 A 
HETATM    5  N   UNL     1     -42.229  58.394 -52.852  1.00  0.00    -0.338 N 
HETATM    6  H   UNL     1     -42.164  59.218 -53.429  1.00  0.00     0.167 HD
HETATM    7  C   UNL     1     -42.893  58.308 -51.648  1.00  0.00     0.139 A 
HETATM    8  N   UNL     1     -42.812  57.072 -51.182  1.00  0.00    -0.228 NA
HETATM    9  C   UNL     1     -40.964  56.702 -54.245  1.00  0.00     0.033 A 
HETATM   10  C   UNL     1     -40.606  55.347 -54.219  1.00  0.00     0.016 A 
ENDROOT
BRANCH   1  11
HETATM   11  C   UNL     1     -40.569  53.044 -53.237  1.00  0.00     0.069 C 
HETATM   12  C   UNL     1     -39.669  52.451 -52.159  1.00  0.00     0.045 C 
HETATM   13  C   UNL     1     -40.528  52.012 -50.973  1.00  0.00     0.017 C 
HETATM   14  C   UNL     1     -38.865  51.293 -52.735  1.00  0.00     0.115 C 
HETATM   15  C   UNL     1     -39.714  50.384 -53.571  1.00  0.00     0.238 C 
HETATM   16  N   UNL     1     -40.733  50.995 -54.253  1.00  0.00    -0.247 N 
HETATM   17  O   UNL     1     -39.471  49.187 -53.702  1.00  0.00    -0.272 OA
HETATM   18  N   UNL     1     -41.071  52.309 -54.190  1.00  0.00    -0.176 NA
HETATM   19  H   UNL     1     -41.256  50.423 -54.909  1.00  0.00     0.192 HD
ENDBRANCH   1  11
BRANCH   7  20
HETATM   20  C   UNL     1     -43.608  59.420 -51.012  1.00  0.00     0.010 A 
HETATM   21  C   UNL     1     -45.002  59.354 -50.888  1.00  0.00     0.018 A 
HETATM   22  C   UNL     1     -45.720  60.397 -50.301  1.00  0.00     0.037 A 
HETATM   23  C   UNL     1     -45.064  61.529 -49.816  1.00  0.00     0.068 A 
HETATM   24  C   UNL     1     -43.676  61.603 -49.923  1.00  0.00     0.037 A 
HETATM   25  C   UNL     1     -42.954  60.556 -50.515  1.00  0.00     0.018 A 
BRANCH  23  26
HETATM   26  O   UNL     1     -45.883  62.476 -49.269  1.00  0.00    -0.356 OA
HETATM   27  C   UNL     1     -46.913  62.997 -50.098  1.00  0.00     0.210 C 
ENDBRANCH  23  26
ENDBRANCH   7  20
TORSDOF 3
ENDMDL
