MODEL 1
REMARK VINA RESULT:      -8.8      0.000      0.000
REMARK  8 active torsions:
REMARK  status: ('A' for Active; 'I' for Inactive)
REMARK    1  A    between atoms: C_4  and  C_5 
REMARK    2  A    between atoms: C_5  and  C_6 
REMARK    3  A    between atoms: C_6  and  N_7 
REMARK    4  A    between atoms: C_8  and  S_9 
REMARK    5  A    between atoms: S_9  and  C_10 
REMARK    6  A    between atoms: C_10  and  C_11 
REMARK    7  A    between atoms: C_24  and  C_25 
REMARK    8  A    between atoms: C_26  and  O_27 
ROOT
HETATM    1  N   UNL     1     -42.366  56.020 -54.230  1.00  0.00    -0.307 N 
HETATM    2  C   UNL     1     -43.238  56.700 -55.044  1.00  0.00     0.192 C 
HETATM    3  N   UNL     1     -44.357  56.933 -54.403  1.00  0.00    -0.122 NA
HETATM    4  N   UNL     1     -44.210  56.481 -53.127  1.00  0.00    -0.128 NA
HETATM    5  C   UNL     1     -42.982  56.008 -52.983  1.00  0.00     0.167 C 
ENDROOT
BRANCH   2   6
HETATM    6  S   UNL     1     -42.921  57.213 -56.664  1.00  0.00    -0.083 SA
BRANCH   6   7
HETATM    7  C   UNL     1     -42.302  58.895 -56.347  1.00  0.00     0.161 C 
BRANCH   7   8
HETATM    8  C   UNL     1     -42.165  59.235 -54.875  1.00  0.00     0.117 A 
HETATM    9  N   UNL     1     -41.031  59.021 -54.287  1.00  0.00    -0.234 NA
HETATM   10  C   UNL     1     -40.918  59.317 -52.918  1.00  0.00     0.074 A 
HETATM   11  C   UNL     1     -41.981  59.832 -52.171  1.00  0.00     0.061 A 
HETATM   12  C   UNL     1     -39.704  59.079 -52.275  1.00  0.00     0.032 A 
HETATM   13  C   UNL     1     -43.249  60.067 -52.879  1.00  0.00     0.259 A 
HETATM   14  C   UNL     1     -41.847  60.109 -50.808  1.00  0.00     0.019 A 
HETATM   15  O   UNL     1     -44.240  60.519 -52.317  1.00  0.00    -0.267 OA
HETATM   16  N   UNL     1     -43.249  59.742 -54.211  1.00  0.00    -0.310 N 
HETATM   17  H   UNL     1     -44.116  59.899 -54.709  1.00  0.00     0.170 HD
HETATM   18  C   UNL     1     -40.626  59.866 -50.178  1.00  0.00     0.001 A 
HETATM   19  C   UNL     1     -39.556  59.351 -50.911  1.00  0.00     0.002 A 
ENDBRANCH   7   8
ENDBRANCH   6   7
ENDBRANCH   2   6
BRANCH   1  20
HETATM   20  C   UNL     1     -41.073  55.443 -54.551  1.00  0.00     0.137 C 
BRANCH  20  21
HETATM   21  C   UNL     1     -41.055  53.981 -55.018  1.00  0.00     0.059 C 
BRANCH  21  22
HETATM   22  C   UNL     1     -40.521  52.963 -54.028  1.00  0.00    -0.057 A 
HETATM   23  C   UNL     1     -40.282  51.658 -54.493  1.00  0.00     0.007 A 
HETATM   24  C   UNL     1     -39.781  50.670 -53.642  1.00  0.00     0.001 A 
HETATM   25  C   UNL     1     -39.512  50.970 -52.310  1.00  0.00     0.000 A 
HETATM   26  C   UNL     1     -39.737  52.258 -51.833  1.00  0.00     0.001 A 
HETATM   27  C   UNL     1     -40.232  53.250 -52.686  1.00  0.00     0.007 A 
ENDBRANCH  21  22
ENDBRANCH  20  21
ENDBRANCH   1  20
BRANCH   5  28
HETATM   28  C   UNL     1     -42.459  55.525 -51.701  1.00  0.00     0.045 A 
HETATM   29  C   UNL     1     -43.065  54.429 -51.059  1.00  0.00     0.079 A 
HETATM   30  C   UNL     1     -42.589  53.948 -49.841  1.00  0.00     0.037 A 
HETATM   31  C   UNL     1     -41.510  54.573 -49.222  1.00  0.00     0.003 A 
HETATM   32  C   UNL     1     -40.921  55.687 -49.817  1.00  0.00     0.001 A 
HETATM   33  C   UNL     1     -41.400  56.167 -51.041  1.00  0.00     0.018 A 
BRANCH  29  34
HETATM   34  O   UNL     1     -44.159  53.783 -51.577  1.00  0.00    -0.360 OA
HETATM   35  H   UNL     1     -44.925  54.391 -51.519  1.00  0.00     0.217 HD
ENDBRANCH  29  34
ENDBRANCH   5  28
TORSDOF 8
ENDMDL
MODEL 2
REMARK VINA RESULT:      -8.5      3.888      5.960
REMARK  8 active torsions:
REMARK  status: ('A' for Active; 'I' for Inactive)
REMARK    1  A    between atoms: C_4  and  C_5 
REMARK    2  A    between atoms: C_5  and  C_6 
REMARK    3  A    between atoms: C_6  and  N_7 
REMARK    4  A    between atoms: C_8  and  S_9 
REMARK    5  A    between atoms: S_9  and  C_10 
REMARK    6  A    between atoms: C_10  and  C_11 
REMARK    7  A    between atoms: C_24  and  C_25 
REMARK    8  A    between atoms: C_26  and  O_27 
ROOT
HETATM    1  N   UNL     1     -42.201  55.960 -54.498  1.00  0.00    -0.307 N 
HETATM    2  C   UNL     1     -43.037  56.554 -55.410  1.00  0.00     0.192 C 
HETATM    3  N   UNL     1     -44.152  56.916 -54.824  1.00  0.00    -0.122 NA
HETATM    4  N   UNL     1     -44.034  56.641 -53.495  1.00  0.00    -0.128 NA
HETATM    5  C   UNL     1     -42.827  56.145 -53.271  1.00  0.00     0.167 C 
ENDROOT
BRANCH   2   6
HETATM    6  S   UNL     1     -42.686  56.824 -57.081  1.00  0.00    -0.083 SA
BRANCH   6   7
HETATM    7  C   UNL     1     -43.965  58.058 -57.476  1.00  0.00     0.161 C 
BRANCH   7   8
HETATM    8  C   UNL     1     -44.910  57.634 -58.586  1.00  0.00     0.117 A 
HETATM    9  N   UNL     1     -45.700  58.520 -59.105  1.00  0.00    -0.234 NA
HETATM   10  C   UNL     1     -46.588  58.116 -60.117  1.00  0.00     0.074 A 
HETATM   11  C   UNL     1     -46.649  56.799 -60.581  1.00  0.00     0.061 A 
HETATM   12  C   UNL     1     -47.450  59.060 -60.673  1.00  0.00     0.032 A 
HETATM   13  C   UNL     1     -45.728  55.828 -59.970  1.00  0.00     0.259 A 
HETATM   14  C   UNL     1     -47.547  56.420 -61.582  1.00  0.00     0.019 A 
HETATM   15  O   UNL     1     -45.700  54.650 -60.308  1.00  0.00    -0.267 OA
HETATM   16  N   UNL     1     -44.908  56.327 -58.992  1.00  0.00    -0.310 N 
HETATM   17  H   UNL     1     -44.270  55.669 -58.564  1.00  0.00     0.170 HD
HETATM   18  C   UNL     1     -48.404  57.375 -62.129  1.00  0.00     0.001 A 
HETATM   19  C   UNL     1     -48.356  58.694 -61.675  1.00  0.00     0.002 A 
ENDBRANCH   7   8
ENDBRANCH   6   7
ENDBRANCH   2   6
BRANCH   1  20
HETATM   20  C   UNL     1     -40.929  55.295 -54.718  1.00  0.00     0.137 C 
BRANCH  20  21
HETATM   21  C   UNL     1     -40.972  53.801 -55.074  1.00  0.00     0.059 C 
BRANCH  21  22
HETATM   22  C   UNL     1     -40.466  52.840 -54.014  1.00  0.00    -0.057 A 
HETATM   23  C   UNL     1     -40.222  51.510 -54.397  1.00  0.00     0.007 A 
HETATM   24  C   UNL     1     -39.747  50.572 -53.478  1.00  0.00     0.001 A 
HETATM   25  C   UNL     1     -39.508  50.947 -52.160  1.00  0.00     0.000 A 
HETATM   26  C   UNL     1     -39.738  52.261 -51.764  1.00  0.00     0.001 A 
HETATM   27  C   UNL     1     -40.208  53.204 -52.683  1.00  0.00     0.007 A 
ENDBRANCH  21  22
ENDBRANCH  20  21
ENDBRANCH   1  20
BRANCH   5  28
HETATM   28  C   UNL     1     -42.335  55.825 -51.926  1.00  0.00     0.045 A 
HETATM   29  C   UNL     1     -42.921  54.778 -51.191  1.00  0.00     0.079 A 
HETATM   30  C   UNL     1     -42.473  54.450 -49.912  1.00  0.00     0.037 A 
HETATM   31  C   UNL     1     -41.445  55.185 -49.328  1.00  0.00     0.003 A 
HETATM   32  C   UNL     1     -40.879  56.254 -50.019  1.00  0.00     0.001 A 
HETATM   33  C   UNL     1     -41.329  56.579 -51.303  1.00  0.00     0.018 A 
BRANCH  29  34
HETATM   34  O   UNL     1     -43.967  54.032 -51.673  1.00  0.00    -0.360 OA
HETATM   35  H   UNL     1     -44.746  54.621 -51.753  1.00  0.00     0.217 HD
ENDBRANCH  29  34
ENDBRANCH   5  28
TORSDOF 8
ENDMDL
MODEL 3
REMARK VINA RESULT:      -8.4      3.326      5.536
REMARK  8 active torsions:
REMARK  status: ('A' for Active; 'I' for Inactive)
REMARK    1  A    between atoms: C_4  and  C_5 
REMARK    2  A    between atoms: C_5  and  C_6 
REMARK    3  A    between atoms: C_6  and  N_7 
REMARK    4  A    between atoms: C_8  and  S_9 
REMARK    5  A    between atoms: S_9  and  C_10 
REMARK    6  A    between atoms: C_10  and  C_11 
REMARK    7  A    between atoms: C_24  and  C_25 
REMARK    8  A    between atoms: C_26  and  O_27 
ROOT
HETATM    1  N   UNL     1     -43.469  57.866 -53.615  1.00  0.00    -0.307 N 
HETATM    2  C   UNL     1     -43.263  59.165 -54.008  1.00  0.00     0.192 C 
HETATM    3  N   UNL     1     -42.568  59.802 -53.098  1.00  0.00    -0.122 NA
HETATM    4  N   UNL     1     -42.232  58.908 -52.127  1.00  0.00    -0.128 NA
HETATM    5  C   UNL     1     -42.694  57.715 -52.471  1.00  0.00     0.167 C 
ENDROOT
BRANCH   2   6
HETATM    6  S   UNL     1     -43.804  59.873 -55.490  1.00  0.00    -0.083 SA
BRANCH   6   7
HETATM    7  C   UNL     1     -42.554  59.207 -56.632  1.00  0.00     0.161 C 
BRANCH   7   8
HETATM    8  C   UNL     1     -43.126  58.334 -57.734  1.00  0.00     0.117 A 
HETATM    9  N   UNL     1     -44.412  58.276 -57.879  1.00  0.00    -0.234 NA
HETATM   10  C   UNL     1     -44.937  57.448 -58.886  1.00  0.00     0.074 A 
HETATM   11  C   UNL     1     -44.125  56.690 -59.734  1.00  0.00     0.061 A 
HETATM   12  C   UNL     1     -46.320  57.371 -59.043  1.00  0.00     0.032 A 
HETATM   13  C   UNL     1     -42.670  56.792 -59.540  1.00  0.00     0.259 A 
HETATM   14  C   UNL     1     -44.671  55.867 -60.722  1.00  0.00     0.019 A 
HETATM   15  O   UNL     1     -41.871  56.170 -60.231  1.00  0.00    -0.267 OA
HETATM   16  N   UNL     1     -42.267  57.625 -58.528  1.00  0.00    -0.310 N 
HETATM   17  H   UNL     1     -41.269  57.703 -58.385  1.00  0.00     0.170 HD
HETATM   18  C   UNL     1     -46.057  55.799 -60.866  1.00  0.00     0.001 A 
HETATM   19  C   UNL     1     -46.881  56.550 -60.027  1.00  0.00     0.002 A 
ENDBRANCH   7   8
ENDBRANCH   6   7
ENDBRANCH   2   6
BRANCH   1  20
HETATM   20  C   UNL     1     -44.286  56.839 -54.235  1.00  0.00     0.137 C 
BRANCH  20  21
HETATM   21  C   UNL     1     -43.652  56.035 -55.380  1.00  0.00     0.059 C 
BRANCH  21  22
HETATM   22  C   UNL     1     -42.526  55.092 -54.998  1.00  0.00    -0.057 A 
HETATM   23  C   UNL     1     -41.210  55.487 -55.293  1.00  0.00     0.007 A 
HETATM   24  C   UNL     1     -40.123  54.676 -54.962  1.00  0.00     0.001 A 
HETATM   25  C   UNL     1     -40.332  53.454 -54.331  1.00  0.00     0.000 A 
HETATM   26  C   UNL     1     -41.627  53.048 -54.025  1.00  0.00     0.001 A 
HETATM   27  C   UNL     1     -42.718  53.862 -54.350  1.00  0.00     0.007 A 
ENDBRANCH  21  22
ENDBRANCH  20  21
ENDBRANCH   1  20
BRANCH   5  28
HETATM   28  C   UNL     1     -42.429  56.503 -51.689  1.00  0.00     0.045 A 
HETATM   29  C   UNL     1     -43.453  55.920 -50.921  1.00  0.00     0.079 A 
HETATM   30  C   UNL     1     -43.230  54.767 -50.169  1.00  0.00     0.037 A 
HETATM   31  C   UNL     1     -41.965  54.188 -50.148  1.00  0.00     0.003 A 
HETATM   32  C   UNL     1     -40.923  54.772 -50.865  1.00  0.00     0.001 A 
HETATM   33  C   UNL     1     -41.151  55.928 -51.619  1.00  0.00     0.018 A 
BRANCH  29  34
HETATM   34  O   UNL     1     -44.717  56.450 -50.851  1.00  0.00    -0.360 OA
HETATM   35  H   UNL     1     -45.254  55.875 -50.268  1.00  0.00     0.217 HD
ENDBRANCH  29  34
ENDBRANCH   5  28
TORSDOF 8
ENDMDL
MODEL 4
REMARK VINA RESULT:      -8.3      2.894      4.665
REMARK  8 active torsions:
REMARK  status: ('A' for Active; 'I' for Inactive)
REMARK    1  A    between atoms: C_4  and  C_5 
REMARK    2  A    between atoms: C_5  and  C_6 
REMARK    3  A    between atoms: C_6  and  N_7 
REMARK    4  A    between atoms: C_8  and  S_9 
REMARK    5  A    between atoms: S_9  and  C_10 
REMARK    6  A    between atoms: C_10  and  C_11 
REMARK    7  A    between atoms: C_24  and  C_25 
REMARK    8  A    between atoms: C_26  and  O_27 
ROOT
HETATM    1  N   UNL     1     -42.796  55.185 -55.008  1.00  0.00    -0.307 N 
HETATM    2  C   UNL     1     -43.249  55.998 -56.016  1.00  0.00     0.192 C 
HETATM    3  N   UNL     1     -43.858  57.042 -55.508  1.00  0.00    -0.122 NA
HETATM    4  N   UNL     1     -43.744  56.974 -54.153  1.00  0.00    -0.128 NA
HETATM    5  C   UNL     1     -43.028  55.905 -53.841  1.00  0.00     0.167 C 
ENDROOT
BRANCH   2   6
HETATM    6  S   UNL     1     -43.035  55.727 -57.710  1.00  0.00    -0.083 SA
BRANCH   6   7
HETATM    7  C   UNL     1     -44.044  57.088 -58.377  1.00  0.00     0.161 C 
BRANCH   7   8
HETATM    8  C   UNL     1     -43.258  58.353 -58.671  1.00  0.00     0.117 A 
HETATM    9  N   UNL     1     -43.179  58.768 -59.895  1.00  0.00    -0.234 NA
HETATM   10  C   UNL     1     -42.431  59.927 -60.164  1.00  0.00     0.074 A 
HETATM   11  C   UNL     1     -41.771  60.643 -59.162  1.00  0.00     0.061 A 
HETATM   12  C   UNL     1     -42.331  60.375 -61.480  1.00  0.00     0.032 A 
HETATM   13  C   UNL     1     -41.893  60.141 -57.784  1.00  0.00     0.259 A 
HETATM   14  C   UNL     1     -41.025  61.788 -59.455  1.00  0.00     0.019 A 
HETATM   15  O   UNL     1     -41.357  60.698 -56.834  1.00  0.00    -0.267 OA
HETATM   16  N   UNL     1     -42.644  59.004 -57.636  1.00  0.00    -0.310 N 
HETATM   17  H   UNL     1     -42.735  58.649 -56.693  1.00  0.00     0.170 HD
HETATM   18  C   UNL     1     -40.934  62.224 -60.777  1.00  0.00     0.001 A 
HETATM   19  C   UNL     1     -41.587  61.518 -61.789  1.00  0.00     0.002 A 
ENDBRANCH   7   8
ENDBRANCH   6   7
ENDBRANCH   2   6
BRANCH   1  20
HETATM   20  C   UNL     1     -42.186  53.870 -55.094  1.00  0.00     0.137 C 
BRANCH  20  21
HETATM   21  C   UNL     1     -40.698  53.763 -54.727  1.00  0.00     0.059 C 
BRANCH  21  22
HETATM   22  C   UNL     1     -40.311  52.619 -53.809  1.00  0.00    -0.057 A 
HETATM   23  C   UNL     1     -40.209  51.334 -54.370  1.00  0.00     0.007 A 
HETATM   24  C   UNL     1     -39.848  50.234 -53.590  1.00  0.00     0.001 A 
HETATM   25  C   UNL     1     -39.583  50.399 -52.234  1.00  0.00     0.000 A 
HETATM   26  C   UNL     1     -39.672  51.664 -51.662  1.00  0.00     0.001 A 
HETATM   27  C   UNL     1     -40.028  52.769 -52.443  1.00  0.00     0.007 A 
ENDBRANCH  21  22
ENDBRANCH  20  21
ENDBRANCH   1  20
BRANCH   5  28
HETATM   28  C   UNL     1     -42.636  55.582 -52.464  1.00  0.00     0.045 A 
HETATM   29  C   UNL     1     -41.616  56.315 -51.831  1.00  0.00     0.079 A 
HETATM   30  C   UNL     1     -41.223  56.032 -50.524  1.00  0.00     0.037 A 
HETATM   31  C   UNL     1     -41.827  54.986 -49.830  1.00  0.00     0.003 A 
HETATM   32  C   UNL     1     -42.809  54.219 -50.452  1.00  0.00     0.001 A 
HETATM   33  C   UNL     1     -43.201  54.506 -51.764  1.00  0.00     0.018 A 
BRANCH  29  34
HETATM   34  O   UNL     1     -40.939  57.332 -52.456  1.00  0.00    -0.360 OA
HETATM   35  H   UNL     1     -40.538  56.970 -53.274  1.00  0.00     0.217 HD
ENDBRANCH  29  34
ENDBRANCH   5  28
TORSDOF 8
ENDMDL
MODEL 5
REMARK VINA RESULT:      -8.3      2.394      4.462
REMARK  8 active torsions:
REMARK  status: ('A' for Active; 'I' for Inactive)
REMARK    1  A    between atoms: C_4  and  C_5 
REMARK    2  A    between atoms: C_5  and  C_6 
REMARK    3  A    between atoms: C_6  and  N_7 
REMARK    4  A    between atoms: C_8  and  S_9 
REMARK    5  A    between atoms: S_9  and  C_10 
REMARK    6  A    between atoms: C_10  and  C_11 
REMARK    7  A    between atoms: C_24  and  C_25 
REMARK    8  A    between atoms: C_26  and  O_27 
ROOT
HETATM    1  N   UNL     1     -42.909  57.796 -52.564  1.00  0.00    -0.307 N 
HETATM    2  C   UNL     1     -44.020  58.601 -52.536  1.00  0.00     0.192 C 
HETATM    3  N   UNL     1     -44.925  58.085 -51.740  1.00  0.00    -0.122 NA
HETATM    4  N   UNL     1     -44.391  56.971 -51.166  1.00  0.00    -0.128 NA
HETATM    5  C   UNL     1     -43.143  56.835 -51.586  1.00  0.00     0.167 C 
ENDROOT
BRANCH   2   6
HETATM    6  S   UNL     1     -44.213  60.092 -53.389  1.00  0.00    -0.083 SA
BRANCH   6   7
HETATM    7  C   UNL     1     -45.132  59.505 -54.846  1.00  0.00     0.161 C 
BRANCH   7   8
HETATM    8  C   UNL     1     -44.250  59.145 -56.028  1.00  0.00     0.117 A 
HETATM    9  N   UNL     1     -44.549  58.101 -56.734  1.00  0.00    -0.234 NA
HETATM   10  C   UNL     1     -43.716  57.760 -57.813  1.00  0.00     0.074 A 
HETATM   11  C   UNL     1     -42.581  58.504 -58.150  1.00  0.00     0.061 A 
HETATM   12  C   UNL     1     -44.023  56.632 -58.573  1.00  0.00     0.032 A 
HETATM   13  C   UNL     1     -42.283  59.686 -57.327  1.00  0.00     0.259 A 
HETATM   14  C   UNL     1     -41.763  58.139 -59.223  1.00  0.00     0.019 A 
HETATM   15  O   UNL     1     -41.315  60.406 -57.540  1.00  0.00    -0.267 OA
HETATM   16  N   UNL     1     -43.159  59.925 -56.299  1.00  0.00    -0.310 N 
HETATM   17  H   UNL     1     -42.965  60.735 -55.726  1.00  0.00     0.170 HD
HETATM   18  C   UNL     1     -42.083  57.007 -59.973  1.00  0.00     0.001 A 
HETATM   19  C   UNL     1     -43.212  56.254 -59.648  1.00  0.00     0.002 A 
ENDBRANCH   7   8
ENDBRANCH   6   7
ENDBRANCH   2   6
BRANCH   1  20
HETATM   20  C   UNL     1     -41.723  57.898 -53.395  1.00  0.00     0.137 C 
BRANCH  20  21
HETATM   21  C   UNL     1     -41.728  57.121 -54.720  1.00  0.00     0.059 C 
BRANCH  21  22
HETATM   22  C   UNL     1     -41.574  55.615 -54.619  1.00  0.00    -0.057 A 
HETATM   23  C   UNL     1     -42.669  54.816 -54.993  1.00  0.00     0.007 A 
HETATM   24  C   UNL     1     -42.597  53.423 -54.935  1.00  0.00     0.001 A 
HETATM   25  C   UNL     1     -41.429  52.803 -54.503  1.00  0.00     0.000 A 
HETATM   26  C   UNL     1     -40.332  53.576 -54.135  1.00  0.00     0.001 A 
HETATM   27  C   UNL     1     -40.400  54.972 -54.197  1.00  0.00     0.007 A 
ENDBRANCH  21  22
ENDBRANCH  20  21
ENDBRANCH   1  20
BRANCH   5  28
HETATM   28  C   UNL     1     -42.245  55.786 -51.089  1.00  0.00     0.045 A 
HETATM   29  C   UNL     1     -42.607  54.432 -51.210  1.00  0.00     0.079 A 
HETATM   30  C   UNL     1     -41.774  53.414 -50.748  1.00  0.00     0.037 A 
HETATM   31  C   UNL     1     -40.569  53.733 -50.127  1.00  0.00     0.003 A 
HETATM   32  C   UNL     1     -40.210  55.068 -49.957  1.00  0.00     0.001 A 
HETATM   33  C   UNL     1     -41.048  56.087 -50.423  1.00  0.00     0.018 A 
BRANCH  29  34
HETATM   34  O   UNL     1     -43.794  54.032 -51.769  1.00  0.00    -0.360 OA
HETATM   35  H   UNL     1     -44.020  53.152 -51.401  1.00  0.00     0.217 HD
ENDBRANCH  29  34
ENDBRANCH   5  28
TORSDOF 8
ENDMDL
MODEL 6
REMARK VINA RESULT:      -8.3      3.271      8.236
REMARK  8 active torsions:
REMARK  status: ('A' for Active; 'I' for Inactive)
REMARK    1  A    between atoms: C_4  and  C_5 
REMARK    2  A    between atoms: C_5  and  C_6 
REMARK    3  A    between atoms: C_6  and  N_7 
REMARK    4  A    between atoms: C_8  and  S_9 
REMARK    5  A    between atoms: S_9  and  C_10 
REMARK    6  A    between atoms: C_10  and  C_11 
REMARK    7  A    between atoms: C_24  and  C_25 
REMARK    8  A    between atoms: C_26  and  O_27 
ROOT
HETATM    1  N   UNL     1     -43.371  56.842 -55.475  1.00  0.00    -0.307 N 
HETATM    2  C   UNL     1     -43.145  55.785 -54.628  1.00  0.00     0.192 C 
HETATM    3  N   UNL     1     -42.923  54.696 -55.323  1.00  0.00    -0.122 NA
HETATM    4  N   UNL     1     -42.917  55.035 -56.642  1.00  0.00    -0.128 NA
HETATM    5  C   UNL     1     -43.097  56.343 -56.744  1.00  0.00     0.167 C 
ENDROOT
BRANCH   2   6
HETATM    6  S   UNL     1     -43.123  55.858 -52.901  1.00  0.00    -0.083 SA
BRANCH   6   7
HETATM    7  C   UNL     1     -41.334  55.703 -52.603  1.00  0.00     0.161 C 
BRANCH   7   8
HETATM    8  C   UNL     1     -40.876  54.283 -52.324  1.00  0.00     0.117 A 
HETATM    9  N   UNL     1     -40.633  53.497 -53.325  1.00  0.00    -0.234 NA
HETATM   10  C   UNL     1     -40.231  52.177 -53.058  1.00  0.00     0.074 A 
HETATM   11  C   UNL     1     -40.085  51.684 -51.759  1.00  0.00     0.061 A 
HETATM   12  C   UNL     1     -39.978  51.321 -54.129  1.00  0.00     0.032 A 
HETATM   13  C   UNL     1     -40.363  52.612 -50.652  1.00  0.00     0.259 A 
HETATM   14  C   UNL     1     -39.693  50.364 -51.520  1.00  0.00     0.019 A 
HETATM   15  O   UNL     1     -40.262  52.280 -49.477  1.00  0.00    -0.267 OA
HETATM   16  N   UNL     1     -40.750  53.874 -51.024  1.00  0.00    -0.310 N 
HETATM   17  H   UNL     1     -40.944  54.522 -50.272  1.00  0.00     0.170 HD
HETATM   18  C   UNL     1     -39.443  49.519 -52.602  1.00  0.00     0.001 A 
HETATM   19  C   UNL     1     -39.586  49.997 -53.905  1.00  0.00     0.002 A 
ENDBRANCH   7   8
ENDBRANCH   6   7
ENDBRANCH   2   6
BRANCH   1  20
HETATM   20  C   UNL     1     -43.783  58.198 -55.161  1.00  0.00     0.137 C 
BRANCH  20  21
HETATM   21  C   UNL     1     -45.275  58.529 -55.310  1.00  0.00     0.059 C 
BRANCH  21  22
HETATM   22  C   UNL     1     -45.746  58.906 -56.702  1.00  0.00    -0.057 A 
HETATM   23  C   UNL     1     -45.172  60.039 -57.305  1.00  0.00     0.007 A 
HETATM   24  C   UNL     1     -45.549  60.441 -58.588  1.00  0.00     0.001 A 
HETATM   25  C   UNL     1     -46.507  59.717 -59.291  1.00  0.00     0.000 A 
HETATM   26  C   UNL     1     -47.082  58.589 -58.714  1.00  0.00     0.001 A 
HETATM   27  C   UNL     1     -46.702  58.182 -57.430  1.00  0.00     0.007 A 
ENDBRANCH  21  22
ENDBRANCH  20  21
ENDBRANCH   1  20
BRANCH   5  28
HETATM   28  C   UNL     1     -43.052  57.055 -58.026  1.00  0.00     0.045 A 
HETATM   29  C   UNL     1     -43.860  56.633 -59.097  1.00  0.00     0.079 A 
HETATM   30  C   UNL     1     -43.839  57.292 -60.326  1.00  0.00     0.037 A 
HETATM   31  C   UNL     1     -42.983  58.373 -60.518  1.00  0.00     0.003 A 
HETATM   32  C   UNL     1     -42.141  58.781 -59.486  1.00  0.00     0.001 A 
HETATM   33  C   UNL     1     -42.166  58.119 -58.254  1.00  0.00     0.018 A 
BRANCH  29  34
HETATM   34  O   UNL     1     -44.699  55.551 -59.008  1.00  0.00    -0.360 OA
HETATM   35  H   UNL     1     -45.622  55.883 -59.015  1.00  0.00     0.217 HD
ENDBRANCH  29  34
ENDBRANCH   5  28
TORSDOF 8
ENDMDL
MODEL 7
REMARK VINA RESULT:      -8.2      2.568      4.845
REMARK  8 active torsions:
REMARK  status: ('A' for Active; 'I' for Inactive)
REMARK    1  A    between atoms: C_4  and  C_5 
REMARK    2  A    between atoms: C_5  and  C_6 
REMARK    3  A    between atoms: C_6  and  N_7 
REMARK    4  A    between atoms: C_8  and  S_9 
REMARK    5  A    between atoms: S_9  and  C_10 
REMARK    6  A    between atoms: C_10  and  C_11 
REMARK    7  A    between atoms: C_24  and  C_25 
REMARK    8  A    between atoms: C_26  and  O_27 
ROOT
HETATM    1  N   UNL     1     -42.609  56.118 -54.835  1.00  0.00    -0.307 N 
HETATM    2  C   UNL     1     -43.477  56.214 -53.776  1.00  0.00     0.192 C 
HETATM    3  N   UNL     1     -44.506  56.955 -54.107  1.00  0.00    -0.122 NA
HETATM    4  N   UNL     1     -44.373  57.292 -55.421  1.00  0.00    -0.128 NA
HETATM    5  C   UNL     1     -43.278  56.719 -55.896  1.00  0.00     0.167 C 
ENDROOT
BRANCH   2   6
HETATM    6  S   UNL     1     -43.281  55.457 -52.234  1.00  0.00    -0.083 SA
BRANCH   6   7
HETATM    7  C   UNL     1     -42.336  56.749 -51.367  1.00  0.00     0.161 C 
BRANCH   7   8
HETATM    8  C   UNL     1     -43.133  58.008 -51.077  1.00  0.00     0.117 A 
HETATM    9  N   UNL     1     -42.508  59.139 -51.003  1.00  0.00    -0.234 NA
HETATM   10  C   UNL     1     -43.249  60.297 -50.712  1.00  0.00     0.074 A 
HETATM   11  C   UNL     1     -44.630  60.272 -50.500  1.00  0.00     0.061 A 
HETATM   12  C   UNL     1     -42.582  61.519 -50.620  1.00  0.00     0.032 A 
HETATM   13  C   UNL     1     -45.302  58.967 -50.601  1.00  0.00     0.259 A 
HETATM   14  C   UNL     1     -45.343  61.436 -50.202  1.00  0.00     0.019 A 
HETATM   15  O   UNL     1     -46.509  58.837 -50.436  1.00  0.00    -0.267 OA
HETATM   16  N   UNL     1     -44.484  57.904 -50.886  1.00  0.00    -0.310 N 
HETATM   17  H   UNL     1     -44.935  57.001 -50.959  1.00  0.00     0.170 HD
HETATM   18  C   UNL     1     -44.662  62.651 -50.113  1.00  0.00     0.001 A 
HETATM   19  C   UNL     1     -43.283  62.692 -50.321  1.00  0.00     0.002 A 
ENDBRANCH   7   8
ENDBRANCH   6   7
ENDBRANCH   2   6
BRANCH   1  20
HETATM   20  C   UNL     1     -41.290  55.515 -54.888  1.00  0.00     0.137 C 
BRANCH  20  21
HETATM   21  C   UNL     1     -41.220  54.007 -55.168  1.00  0.00     0.059 C 
BRANCH  21  22
HETATM   22  C   UNL     1     -40.626  53.144 -54.070  1.00  0.00    -0.057 A 
HETATM   23  C   UNL     1     -40.218  51.842 -54.407  1.00  0.00     0.007 A 
HETATM   24  C   UNL     1     -39.654  50.993 -53.453  1.00  0.00     0.001 A 
HETATM   25  C   UNL     1     -39.488  51.432 -52.142  1.00  0.00     0.000 A 
HETATM   26  C   UNL     1     -39.881  52.720 -51.791  1.00  0.00     0.001 A 
HETATM   27  C   UNL     1     -40.441  53.573 -52.747  1.00  0.00     0.007 A 
ENDBRANCH  21  22
ENDBRANCH  20  21
ENDBRANCH   1  20
BRANCH   5  28
HETATM   28  C   UNL     1     -42.885  56.801 -57.307  1.00  0.00     0.045 A 
HETATM   29  C   UNL     1     -42.311  57.982 -57.813  1.00  0.00     0.079 A 
HETATM   30  C   UNL     1     -41.927  58.088 -59.148  1.00  0.00     0.037 A 
HETATM   31  C   UNL     1     -42.136  57.019 -60.016  1.00  0.00     0.003 A 
HETATM   32  C   UNL     1     -42.743  55.856 -59.549  1.00  0.00     0.001 A 
HETATM   33  C   UNL     1     -43.126  55.752 -58.207  1.00  0.00     0.018 A 
BRANCH  29  34
HETATM   34  O   UNL     1     -42.110  59.096 -57.038  1.00  0.00    -0.360 OA
HETATM   35  H   UNL     1     -41.590  59.740 -57.563  1.00  0.00     0.217 HD
ENDBRANCH  29  34
ENDBRANCH   5  28
TORSDOF 8
ENDMDL
MODEL 8
REMARK VINA RESULT:      -8.0      2.894      7.183
REMARK  8 active torsions:
REMARK  status: ('A' for Active; 'I' for Inactive)
REMARK    1  A    between atoms: C_4  and  C_5 
REMARK    2  A    between atoms: C_5  and  C_6 
REMARK    3  A    between atoms: C_6  and  N_7 
REMARK    4  A    between atoms: C_8  and  S_9 
REMARK    5  A    between atoms: S_9  and  C_10 
REMARK    6  A    between atoms: C_10  and  C_11 
REMARK    7  A    between atoms: C_24  and  C_25 
REMARK    8  A    between atoms: C_26  and  O_27 
ROOT
HETATM    1  N   UNL     1     -44.337  57.667 -54.333  1.00  0.00    -0.307 N 
HETATM    2  C   UNL     1     -44.431  57.946 -52.993  1.00  0.00     0.192 C 
HETATM    3  N   UNL     1     -44.958  59.134 -52.820  1.00  0.00    -0.122 NA
HETATM    4  N   UNL     1     -45.296  59.623 -54.045  1.00  0.00    -0.128 NA
HETATM    5  C   UNL     1     -45.008  58.711 -54.960  1.00  0.00     0.167 C 
ENDROOT
BRANCH   2   6
HETATM    6  S   UNL     1     -43.961  56.895 -51.703  1.00  0.00    -0.083 SA
BRANCH   6   7
HETATM    7  C   UNL     1     -42.150  56.995 -51.860  1.00  0.00     0.161 C 
BRANCH   7   8
HETATM    8  C   UNL     1     -41.453  55.647 -51.834  1.00  0.00     0.117 A 
HETATM    9  N   UNL     1     -41.336  54.983 -52.940  1.00  0.00    -0.234 NA
HETATM   10  C   UNL     1     -40.710  53.725 -52.904  1.00  0.00     0.074 A 
HETATM   11  C   UNL     1     -40.211  53.168 -51.724  1.00  0.00     0.061 A 
HETATM   12  C   UNL     1     -40.589  52.998 -54.088  1.00  0.00     0.032 A 
HETATM   13  C   UNL     1     -40.357  53.959 -50.493  1.00  0.00     0.259 A 
HETATM   14  C   UNL     1     -39.600  51.911 -51.713  1.00  0.00     0.019 A 
HETATM   15  O   UNL     1     -39.951  53.562 -49.406  1.00  0.00    -0.267 OA
HETATM   16  N   UNL     1     -40.985  55.169 -50.640  1.00  0.00    -0.310 N 
HETATM   17  H   UNL     1     -41.092  55.723 -49.800  1.00  0.00     0.170 HD
HETATM   18  C   UNL     1     -39.487  51.195 -52.905  1.00  0.00     0.001 A 
HETATM   19  C   UNL     1     -39.982  51.738 -54.092  1.00  0.00     0.002 A 
ENDBRANCH   7   8
ENDBRANCH   6   7
ENDBRANCH   2   6
BRANCH   1  20
HETATM   20  C   UNL     1     -43.705  56.538 -54.993  1.00  0.00     0.137 C 
BRANCH  20  21
HETATM   21  C   UNL     1     -42.456  56.829 -55.836  1.00  0.00     0.059 C 
BRANCH  21  22
HETATM   22  C   UNL     1     -42.640  56.812 -57.342  1.00  0.00    -0.057 A 
HETATM   23  C   UNL     1     -42.110  57.885 -58.080  1.00  0.00     0.007 A 
HETATM   24  C   UNL     1     -42.232  57.933 -59.470  1.00  0.00     0.001 A 
HETATM   25  C   UNL     1     -42.887  56.909 -60.148  1.00  0.00     0.000 A 
HETATM   26  C   UNL     1     -43.413  55.836 -59.435  1.00  0.00     0.001 A 
HETATM   27  C   UNL     1     -43.286  55.783 -58.043  1.00  0.00     0.007 A 
ENDBRANCH  21  22
ENDBRANCH  20  21
ENDBRANCH   1  20
BRANCH   5  28
HETATM   28  C   UNL     1     -45.332  58.878 -56.381  1.00  0.00     0.045 A 
HETATM   29  C   UNL     1     -44.788  59.954 -57.107  1.00  0.00     0.079 A 
HETATM   30  C   UNL     1     -45.076  60.137 -58.458  1.00  0.00     0.037 A 
HETATM   31  C   UNL     1     -45.942  59.261 -59.107  1.00  0.00     0.003 A 
HETATM   32  C   UNL     1     -46.527  58.214 -58.399  1.00  0.00     0.001 A 
HETATM   33  C   UNL     1     -46.234  58.032 -57.043  1.00  0.00     0.018 A 
BRANCH  29  34
HETATM   34  O   UNL     1     -43.962  60.888 -56.535  1.00  0.00    -0.360 OA
HETATM   35  H   UNL     1     -44.506  61.667 -56.296  1.00  0.00     0.217 HD
ENDBRANCH  29  34
ENDBRANCH   5  28
TORSDOF 8
ENDMDL
MODEL 9
REMARK VINA RESULT:      -8.0      2.982      4.495
REMARK  8 active torsions:
REMARK  status: ('A' for Active; 'I' for Inactive)
REMARK    1  A    between atoms: C_4  and  C_5 
REMARK    2  A    between atoms: C_5  and  C_6 
REMARK    3  A    between atoms: C_6  and  N_7 
REMARK    4  A    between atoms: C_8  and  S_9 
REMARK    5  A    between atoms: S_9  and  C_10 
REMARK    6  A    between atoms: C_10  and  C_11 
REMARK    7  A    between atoms: C_24  and  C_25 
REMARK    8  A    between atoms: C_26  and  O_27 
ROOT
HETATM    1  N   UNL     1     -42.726  55.474 -54.709  1.00  0.00    -0.307 N 
HETATM    2  C   UNL     1     -43.193  56.352 -55.654  1.00  0.00     0.192 C 
HETATM    3  N   UNL     1     -43.689  57.415 -55.069  1.00  0.00    -0.122 NA
HETATM    4  N   UNL     1     -43.481  57.290 -53.729  1.00  0.00    -0.128 NA
HETATM    5  C   UNL     1     -42.822  56.164 -53.506  1.00  0.00     0.167 C 
ENDROOT
BRANCH   2   6
HETATM    6  S   UNL     1     -43.123  56.129 -57.367  1.00  0.00    -0.083 SA
BRANCH   6   7
HETATM    7  C   UNL     1     -44.238  57.465 -57.904  1.00  0.00     0.161 C 
BRANCH   7   8
HETATM    8  C   UNL     1     -43.537  58.600 -58.628  1.00  0.00     0.117 A 
HETATM    9  N   UNL     1     -42.647  59.291 -57.991  1.00  0.00    -0.234 NA
HETATM   10  C   UNL     1     -42.019  60.356 -58.660  1.00  0.00     0.074 A 
HETATM   11  C   UNL     1     -42.319  60.693 -59.982  1.00  0.00     0.061 A 
HETATM   12  C   UNL     1     -41.066  61.113 -57.978  1.00  0.00     0.032 A 
HETATM   13  C   UNL     1     -43.331  59.877 -60.671  1.00  0.00     0.259 A 
HETATM   14  C   UNL     1     -41.687  61.763 -60.623  1.00  0.00     0.019 A 
HETATM   15  O   UNL     1     -43.664  60.088 -61.832  1.00  0.00    -0.267 OA
HETATM   16  N   UNL     1     -43.882  58.867 -59.925  1.00  0.00    -0.310 N 
HETATM   17  H   UNL     1     -44.579  58.299 -60.388  1.00  0.00     0.170 HD
HETATM   18  C   UNL     1     -40.737  62.511 -59.928  1.00  0.00     0.001 A 
HETATM   19  C   UNL     1     -40.427  62.186 -58.607  1.00  0.00     0.002 A 
ENDBRANCH   7   8
ENDBRANCH   6   7
ENDBRANCH   2   6
BRANCH   1  20
HETATM   20  C   UNL     1     -42.218  54.125 -54.882  1.00  0.00     0.137 C 
BRANCH  20  21
HETATM   21  C   UNL     1     -40.710  53.913 -54.681  1.00  0.00     0.059 C 
BRANCH  21  22
HETATM   22  C   UNL     1     -40.302  52.705 -53.859  1.00  0.00    -0.057 A 
HETATM   23  C   UNL     1     -40.071  52.894 -52.486  1.00  0.00     0.007 A 
HETATM   24  C   UNL     1     -39.702  51.828 -51.664  1.00  0.00     0.001 A 
HETATM   25  C   UNL     1     -39.557  50.552 -52.201  1.00  0.00     0.000 A 
HETATM   26  C   UNL     1     -39.789  50.344 -53.557  1.00  0.00     0.001 A 
HETATM   27  C   UNL     1     -40.164  51.410 -54.381  1.00  0.00     0.007 A 
ENDBRANCH  21  22
ENDBRANCH  20  21
ENDBRANCH   1  20
BRANCH   5  28
HETATM   28  C   UNL     1     -42.354  55.766 -52.173  1.00  0.00     0.045 A 
HETATM   29  C   UNL     1     -43.032  54.762 -51.458  1.00  0.00     0.079 A 
HETATM   30  C   UNL     1     -42.610  54.362 -50.192  1.00  0.00     0.037 A 
HETATM   31  C   UNL     1     -41.513  54.981 -49.599  1.00  0.00     0.003 A 
HETATM   32  C   UNL     1     -40.852  56.008 -50.269  1.00  0.00     0.001 A 
HETATM   33  C   UNL     1     -41.278  56.406 -51.541  1.00  0.00     0.018 A 
BRANCH  29  34
HETATM   34  O   UNL     1     -44.147  54.131 -51.949  1.00  0.00    -0.360 OA
HETATM   35  H   UNL     1     -43.971  53.167 -51.956  1.00  0.00     0.217 HD
ENDBRANCH  29  34
ENDBRANCH   5  28
TORSDOF 8
ENDMDL
MODEL 10
REMARK VINA RESULT:      -8.0      3.708      5.719
REMARK  8 active torsions:
REMARK  status: ('A' for Active; 'I' for Inactive)
REMARK    1  A    between atoms: C_4  and  C_5 
REMARK    2  A    between atoms: C_5  and  C_6 
REMARK    3  A    between atoms: C_6  and  N_7 
REMARK    4  A    between atoms: C_8  and  S_9 
REMARK    5  A    between atoms: S_9  and  C_10 
REMARK    6  A    between atoms: C_10  and  C_11 
REMARK    7  A    between atoms: C_24  and  C_25 
REMARK    8  A    between atoms: C_26  and  O_27 
ROOT
HETATM    1  N   UNL     1     -42.649  55.089 -54.621  1.00  0.00    -0.307 N 
HETATM    2  C   UNL     1     -43.083  55.901 -55.639  1.00  0.00     0.192 C 
HETATM    3  N   UNL     1     -43.596  57.001 -55.143  1.00  0.00    -0.122 NA
HETATM    4  N   UNL     1     -43.434  56.967 -53.791  1.00  0.00    -0.128 NA
HETATM    5  C   UNL     1     -42.784  55.859 -53.471  1.00  0.00     0.167 C 
ENDROOT
BRANCH   2   6
HETATM    6  S   UNL     1     -42.956  55.564 -57.329  1.00  0.00    -0.083 SA
BRANCH   6   7
HETATM    7  C   UNL     1     -42.841  57.260 -57.981  1.00  0.00     0.161 C 
BRANCH   7   8
HETATM    8  C   UNL     1     -44.052  57.695 -58.787  1.00  0.00     0.117 A 
HETATM    9  N   UNL     1     -44.786  56.788 -59.349  1.00  0.00    -0.234 NA
HETATM   10  C   UNL     1     -45.892  57.199 -60.113  1.00  0.00     0.074 A 
HETATM   11  C   UNL     1     -46.227  58.544 -60.286  1.00  0.00     0.061 A 
HETATM   12  C   UNL     1     -46.681  56.230 -60.732  1.00  0.00     0.032 A 
HETATM   13  C   UNL     1     -45.371  59.541 -59.623  1.00  0.00     0.259 A 
HETATM   14  C   UNL     1     -47.327  58.928 -61.058  1.00  0.00     0.019 A 
HETATM   15  O   UNL     1     -45.581  60.745 -59.709  1.00  0.00    -0.267 OA
HETATM   16  N   UNL     1     -44.319  59.031 -58.906  1.00  0.00    -0.310 N 
HETATM   17  H   UNL     1     -43.724  59.707 -58.446  1.00  0.00     0.170 HD
HETATM   18  C   UNL     1     -48.107  57.948 -61.671  1.00  0.00     0.001 A 
HETATM   19  C   UNL     1     -47.784  56.600 -61.508  1.00  0.00     0.002 A 
ENDBRANCH   7   8
ENDBRANCH   6   7
ENDBRANCH   2   6
BRANCH   1  20
HETATM   20  C   UNL     1     -42.138  53.731 -54.687  1.00  0.00     0.137 C 
BRANCH  20  21
HETATM   21  C   UNL     1     -40.635  53.537 -54.437  1.00  0.00     0.059 C 
BRANCH  21  22
HETATM   22  C   UNL     1     -40.236  52.299 -53.655  1.00  0.00    -0.057 A 
HETATM   23  C   UNL     1     -40.147  51.083 -54.353  1.00  0.00     0.007 A 
HETATM   24  C   UNL     1     -39.777  49.904 -53.702  1.00  0.00     0.001 A 
HETATM   25  C   UNL     1     -39.489  49.922 -52.341  1.00  0.00     0.000 A 
HETATM   26  C   UNL     1     -39.565  51.118 -51.634  1.00  0.00     0.001 A 
HETATM   27  C   UNL     1     -39.931  52.301 -52.286  1.00  0.00     0.007 A 
ENDBRANCH  21  22
ENDBRANCH  20  21
ENDBRANCH   1  20
BRANCH   5  28
HETATM   28  C   UNL     1     -42.362  55.551 -52.100  1.00  0.00     0.045 A 
HETATM   29  C   UNL     1     -41.465  56.402 -51.429  1.00  0.00     0.079 A 
HETATM   30  C   UNL     1     -41.048  56.136 -50.126  1.00  0.00     0.037 A 
HETATM   31  C   UNL     1     -41.499  54.991 -49.475  1.00  0.00     0.003 A 
HETATM   32  C   UNL     1     -42.353  54.110 -50.134  1.00  0.00     0.001 A 
HETATM   33  C   UNL     1     -42.771  54.381 -51.442  1.00  0.00     0.018 A 
BRANCH  29  34
HETATM   34  O   UNL     1     -40.939  57.527 -52.013  1.00  0.00    -0.360 OA
HETATM   35  H   UNL     1     -40.587  57.275 -52.892  1.00  0.00     0.217 HD
ENDBRANCH  29  34
ENDBRANCH   5  28
TORSDOF 8
ENDMDL
