MODEL 1
REMARK VINA RESULT:      -8.6      0.000      0.000
REMARK  6 active torsions:
REMARK  status: ('A' for Active; 'I' for Inactive)
REMARK    1  A    between atoms: C_2  and  O_3 
REMARK    2  A    between atoms: O_3  and  C_4 
REMARK    3  A    between atoms: C_5  and  O_6 
REMARK    4  A    between atoms: O_6  and  C_7 
REMARK    5  A    between atoms: C_7  and  C_8 
REMARK    6  A    between atoms: C_18  and  C_19 
ROOT
HETATM    1  C   UNL     1     -43.277  55.963 -52.426  1.00  0.00     0.103 A 
HETATM    2  C   UNL     1     -42.939  54.826 -53.165  1.00  0.00     0.112 A 
HETATM    3  C   UNL     1     -43.397  54.641 -54.469  1.00  0.00     0.041 A 
HETATM    4  C   UNL     1     -44.172  55.630 -55.068  1.00  0.00     0.014 A 
HETATM    5  C   UNL     1     -44.520  56.802 -54.365  1.00  0.00    -0.013 A 
HETATM    6  C   UNL     1     -44.074  56.941 -53.033  1.00  0.00     0.050 A 
ENDROOT
BRANCH   5   7
HETATM    7  C   UNL     1     -45.367  57.847 -55.079  1.00  0.00     0.219 C 
HETATM    8  N   UNL     1     -45.017  59.182 -54.663  1.00  0.00    -0.332 N 
HETATM    9  C   UNL     1     -44.095  59.965 -55.297  1.00  0.00     0.256 C 
HETATM   10  H   UNL     1     -45.180  59.434 -53.700  1.00  0.00     0.165 HD
HETATM   11  O   UNL     1     -43.608  60.956 -54.762  1.00  0.00    -0.267 OA
HETATM   12  C   UNL     1     -43.775  59.571 -56.656  1.00  0.00     0.073 A 
HETATM   13  C   UNL     1     -44.424  58.491 -57.206  1.00  0.00     0.088 A 
HETATM   14  C   UNL     1     -42.863  60.173 -57.579  1.00  0.00    -0.023 A 
HETATM   15  S   UNL     1     -43.961  58.202 -58.817  1.00  0.00    -0.074 SA
HETATM   16  N   UNL     1     -45.323  57.750 -56.527  1.00  0.00    -0.358 N 
HETATM   17  C   UNL     1     -42.882  59.518 -58.797  1.00  0.00     0.018 A 
HETATM   18  C   UNL     1     -42.053  59.887 -59.978  1.00  0.00     0.281 C 
HETATM   19  N   UNL     1     -41.472  61.290 -59.832  1.00  0.00    -0.070 N 
HETATM   20  C   UNL     1     -40.920  61.524 -58.427  1.00  0.00     0.239 C 
HETATM   21  H   UNL     1     -40.670  61.332 -60.473  1.00  0.00     0.279 HD
HETATM   22  C   UNL     1     -42.425  62.359 -60.283  1.00  0.00     0.270 C 
HETATM   23  C   UNL     1     -42.001  61.378 -57.342  1.00  0.00     0.068 C 
HETATM   24  H   UNL     1     -45.660  56.870 -56.907  1.00  0.00     0.162 HD
ENDBRANCH   5   7
BRANCH   1  25
HETATM   25  O   UNL     1     -42.817  56.017 -51.138  1.00  0.00    -0.349 OA
BRANCH  25  26
HETATM   26  C   UNL     1     -41.675  56.839 -50.903  1.00  0.00     0.171 C 
HETATM   27  C   UNL     1     -40.682  56.040 -50.079  1.00  0.00     0.034 C 
ENDBRANCH  25  26
ENDBRANCH   1  25
BRANCH   2  28
HETATM   28  O   UNL     1     -42.145  53.828 -52.598  1.00  0.00    -0.272 OA
BRANCH  28  29
HETATM   29  C   UNL     1     -40.911  53.766 -53.211  1.00  0.00     0.300 C 
HETATM   30  O   UNL     1     -40.262  54.684 -53.693  1.00  0.00    -0.259 OA
BRANCH  29  31
HETATM   31  C   UNL     1     -40.394  52.385 -53.139  1.00  0.00     0.061 A 
HETATM   32  C   UNL     1     -39.964  51.781 -51.951  1.00  0.00     0.050 A 
HETATM   33 CL   UNL     1     -40.018  52.567 -50.413  1.00  0.00    -0.083 Cl
HETATM   34  C   UNL     1     -39.524  50.452 -51.971  1.00  0.00     0.025 A 
HETATM   35  C   UNL     1     -39.526  49.724 -53.163  1.00  0.00     0.002 A 
HETATM   36  C   UNL     1     -39.976  50.317 -54.342  1.00  0.00     0.001 A 
HETATM   37  C   UNL     1     -40.411  51.643 -54.331  1.00  0.00     0.019 A 
ENDBRANCH  29  31
ENDBRANCH  28  29
ENDBRANCH   2  28
TORSDOF 6
ENDMDL
MODEL 2
REMARK VINA RESULT:      -8.5      1.466      1.738
REMARK  6 active torsions:
REMARK  status: ('A' for Active; 'I' for Inactive)
REMARK    1  A    between atoms: C_2  and  O_3 
REMARK    2  A    between atoms: O_3  and  C_4 
REMARK    3  A    between atoms: C_5  and  O_6 
REMARK    4  A    between atoms: O_6  and  C_7 
REMARK    5  A    between atoms: C_7  and  C_8 
REMARK    6  A    between atoms: C_18  and  C_19 
ROOT
HETATM    1  C   UNL     1     -42.065  56.051 -52.453  1.00  0.00     0.103 A 
HETATM    2  C   UNL     1     -42.506  54.933 -53.166  1.00  0.00     0.112 A 
HETATM    3  C   UNL     1     -43.500  55.032 -54.138  1.00  0.00     0.041 A 
HETATM    4  C   UNL     1     -44.038  56.280 -54.439  1.00  0.00     0.014 A 
HETATM    5  C   UNL     1     -43.609  57.438 -53.758  1.00  0.00    -0.013 A 
HETATM    6  C   UNL     1     -42.629  57.297 -52.751  1.00  0.00     0.050 A 
ENDROOT
BRANCH   5   7
HETATM    7  C   UNL     1     -44.234  58.773 -54.138  1.00  0.00     0.219 C 
HETATM    8  N   UNL     1     -43.246  59.692 -54.644  1.00  0.00    -0.332 N 
HETATM    9  C   UNL     1     -42.933  59.829 -55.967  1.00  0.00     0.256 C 
HETATM   10  H   UNL     1     -42.519  59.998 -54.015  1.00  0.00     0.165 HD
HETATM   11  O   UNL     1     -41.904  60.387 -56.336  1.00  0.00    -0.267 OA
HETATM   12  C   UNL     1     -43.923  59.317 -56.895  1.00  0.00     0.073 A 
HETATM   13  C   UNL     1     -45.084  58.775 -56.398  1.00  0.00     0.088 A 
HETATM   14  C   UNL     1     -43.898  59.306 -58.325  1.00  0.00    -0.023 A 
HETATM   15  S   UNL     1     -46.147  58.268 -57.626  1.00  0.00    -0.074 SA
HETATM   16  N   UNL     1     -45.335  58.660 -55.078  1.00  0.00    -0.358 N 
HETATM   17  C   UNL     1     -45.063  58.766 -58.840  1.00  0.00     0.018 A 
HETATM   18  C   UNL     1     -45.362  58.606 -60.290  1.00  0.00     0.281 C 
HETATM   19  N   UNL     1     -44.426  59.452 -61.147  1.00  0.00    -0.070 N 
HETATM   20  C   UNL     1     -42.980  59.349 -60.665  1.00  0.00     0.239 C 
HETATM   21  H   UNL     1     -44.452  59.039 -62.087  1.00  0.00     0.279 HD
HETATM   22  C   UNL     1     -44.903  60.869 -61.298  1.00  0.00     0.270 C 
HETATM   23  C   UNL     1     -42.810  59.832 -59.214  1.00  0.00     0.068 C 
HETATM   24  H   UNL     1     -46.125  58.112 -54.747  1.00  0.00     0.162 HD
ENDBRANCH   5   7
BRANCH   1  25
HETATM   25  O   UNL     1     -41.123  55.829 -51.485  1.00  0.00    -0.349 OA
BRANCH  25  26
HETATM   26  C   UNL     1     -41.339  56.467 -50.228  1.00  0.00     0.171 C 
HETATM   27  C   UNL     1     -41.337  55.396 -49.151  1.00  0.00     0.034 C 
ENDBRANCH  25  26
ENDBRANCH   1  25
BRANCH   2  28
HETATM   28  O   UNL     1     -41.969  53.671 -52.900  1.00  0.00    -0.272 OA
BRANCH  28  29
HETATM   29  C   UNL     1     -40.829  53.450 -53.645  1.00  0.00     0.300 C 
HETATM   30  O   UNL     1     -40.244  54.234 -54.378  1.00  0.00    -0.259 OA
BRANCH  29  31
HETATM   31  C   UNL     1     -40.316  52.093 -53.368  1.00  0.00     0.061 A 
HETATM   32  C   UNL     1     -39.857  51.681 -52.111  1.00  0.00     0.050 A 
HETATM   33 CL   UNL     1     -39.865  52.701 -50.716  1.00  0.00    -0.083 Cl
HETATM   34  C   UNL     1     -39.424  50.362 -51.932  1.00  0.00     0.025 A 
HETATM   35  C   UNL     1     -39.461  49.455 -52.994  1.00  0.00     0.002 A 
HETATM   36  C   UNL     1     -39.940  49.858 -54.239  1.00  0.00     0.001 A 
HETATM   37  C   UNL     1     -40.369  51.172 -54.426  1.00  0.00     0.019 A 
ENDBRANCH  29  31
ENDBRANCH  28  29
ENDBRANCH   2  28
TORSDOF 6
ENDMDL
MODEL 3
REMARK VINA RESULT:      -8.3      3.521      4.779
REMARK  6 active torsions:
REMARK  status: ('A' for Active; 'I' for Inactive)
REMARK    1  A    between atoms: C_2  and  O_3 
REMARK    2  A    between atoms: O_3  and  C_4 
REMARK    3  A    between atoms: C_5  and  O_6 
REMARK    4  A    between atoms: O_6  and  C_7 
REMARK    5  A    between atoms: C_7  and  C_8 
REMARK    6  A    between atoms: C_18  and  C_19 
ROOT
HETATM    1  C   UNL     1     -42.880  56.159 -53.264  1.00  0.00     0.103 A 
HETATM    2  C   UNL     1     -42.053  55.262 -52.583  1.00  0.00     0.112 A 
HETATM    3  C   UNL     1     -41.273  55.667 -51.501  1.00  0.00     0.041 A 
HETATM    4  C   UNL     1     -41.352  56.985 -51.057  1.00  0.00     0.014 A 
HETATM    5  C   UNL     1     -42.188  57.918 -51.704  1.00  0.00    -0.013 A 
HETATM    6  C   UNL     1     -42.934  57.486 -52.822  1.00  0.00     0.050 A 
ENDROOT
BRANCH   5   7
HETATM    7  C   UNL     1     -42.230  59.342 -51.167  1.00  0.00     0.219 C 
HETATM    8  N   UNL     1     -41.893  60.300 -52.190  1.00  0.00    -0.332 N 
HETATM    9  C   UNL     1     -42.809  60.919 -52.992  1.00  0.00     0.256 C 
HETATM   10  H   UNL     1     -40.960  60.273 -52.573  1.00  0.00     0.165 HD
HETATM   11  O   UNL     1     -42.483  61.489 -54.029  1.00  0.00    -0.267 OA
HETATM   12  C   UNL     1     -44.175  60.897 -52.506  1.00  0.00     0.073 A 
HETATM   13  C   UNL     1     -44.442  60.302 -51.296  1.00  0.00     0.088 A 
HETATM   14  C   UNL     1     -45.354  61.447 -53.101  1.00  0.00    -0.023 A 
HETATM   15  S   UNL     1     -46.083  60.409 -50.862  1.00  0.00    -0.074 SA
HETATM   16  N   UNL     1     -43.494  59.700 -50.548  1.00  0.00    -0.358 N 
HETATM   17  C   UNL     1     -46.459  61.251 -52.293  1.00  0.00     0.018 A 
HETATM   18  C   UNL     1     -47.842  61.700 -52.614  1.00  0.00     0.281 C 
HETATM   19  N   UNL     1     -47.845  62.733 -53.736  1.00  0.00    -0.070 N 
HETATM   20  C   UNL     1     -46.906  62.329 -54.872  1.00  0.00     0.239 C 
HETATM   21  H   UNL     1     -48.795  62.726 -54.125  1.00  0.00     0.279 HD
HETATM   22  C   UNL     1     -47.606  64.129 -53.235  1.00  0.00     0.270 C 
HETATM   23  C   UNL     1     -45.448  62.187 -54.403  1.00  0.00     0.068 C 
HETATM   24  H   UNL     1     -43.752  59.134 -49.744  1.00  0.00     0.162 HD
ENDBRANCH   5   7
BRANCH   1  25
HETATM   25  O   UNL     1     -43.561  55.666 -54.345  1.00  0.00    -0.349 OA
BRANCH  25  26
HETATM   26  C   UNL     1     -43.246  56.240 -55.612  1.00  0.00     0.171 C 
HETATM   27  C   UNL     1     -42.771  55.126 -56.528  1.00  0.00     0.034 C 
ENDBRANCH  25  26
ENDBRANCH   1  25
BRANCH   2  28
HETATM   28  O   UNL     1     -41.971  53.930 -52.991  1.00  0.00    -0.272 OA
BRANCH  28  29
HETATM   29  C   UNL     1     -40.791  53.687 -53.663  1.00  0.00     0.300 C 
HETATM   30  O   UNL     1     -40.135  54.467 -54.339  1.00  0.00    -0.259 OA
BRANCH  29  31
HETATM   31  C   UNL     1     -40.339  52.310 -53.382  1.00  0.00     0.061 A 
HETATM   32  C   UNL     1     -39.826  51.901 -52.144  1.00  0.00     0.050 A 
HETATM   33 CL   UNL     1     -39.689  52.952 -50.780  1.00  0.00    -0.083 Cl
HETATM   34  C   UNL     1     -39.457  50.564 -51.958  1.00  0.00     0.025 A 
HETATM   35  C   UNL     1     -39.612  49.636 -52.990  1.00  0.00     0.002 A 
HETATM   36  C   UNL     1     -40.144  50.037 -54.214  1.00  0.00     0.001 A 
HETATM   37  C   UNL     1     -40.510  51.369 -54.410  1.00  0.00     0.019 A 
ENDBRANCH  29  31
ENDBRANCH  28  29
ENDBRANCH   2  28
TORSDOF 6
ENDMDL
MODEL 4
REMARK VINA RESULT:      -8.1      2.009      2.685
REMARK  6 active torsions:
REMARK  status: ('A' for Active; 'I' for Inactive)
REMARK    1  A    between atoms: C_2  and  O_3 
REMARK    2  A    between atoms: O_3  and  C_4 
REMARK    3  A    between atoms: C_5  and  O_6 
REMARK    4  A    between atoms: O_6  and  C_7 
REMARK    5  A    between atoms: C_7  and  C_8 
REMARK    6  A    between atoms: C_18  and  C_19 
ROOT
HETATM    1  C   UNL     1     -41.553  56.553 -53.955  1.00  0.00     0.103 A 
HETATM    2  C   UNL     1     -41.232  55.273 -54.416  1.00  0.00     0.112 A 
HETATM    3  C   UNL     1     -41.931  54.679 -55.465  1.00  0.00     0.041 A 
HETATM    4  C   UNL     1     -42.945  55.391 -56.100  1.00  0.00     0.014 A 
HETATM    5  C   UNL     1     -43.289  56.692 -55.679  1.00  0.00    -0.013 A 
HETATM    6  C   UNL     1     -42.588  57.250 -54.588  1.00  0.00     0.050 A 
ENDROOT
BRANCH   5   7
HETATM    7  C   UNL     1     -44.406  57.419 -56.418  1.00  0.00     0.219 C 
HETATM    8  N   UNL     1     -44.434  58.820 -56.081  1.00  0.00    -0.332 N 
HETATM    9  C   UNL     1     -43.777  59.791 -56.783  1.00  0.00     0.256 C 
HETATM   10  H   UNL     1     -44.646  59.072 -55.128  1.00  0.00     0.165 HD
HETATM   11  O   UNL     1     -43.577  60.906 -56.315  1.00  0.00    -0.267 OA
HETATM   12  C   UNL     1     -43.383  59.423 -58.130  1.00  0.00     0.073 A 
HETATM   13  C   UNL     1     -43.714  58.176 -58.604  1.00  0.00     0.088 A 
HETATM   14  C   UNL     1     -42.689  60.200 -59.110  1.00  0.00    -0.023 A 
HETATM   15  S   UNL     1     -43.214  57.934 -60.212  1.00  0.00    -0.074 SA
HETATM   16  N   UNL     1     -44.360  57.255 -57.860  1.00  0.00    -0.358 N 
HETATM   17  C   UNL     1     -42.545  59.497 -60.292  1.00  0.00     0.018 A 
HETATM   18  C   UNL     1     -41.870  60.013 -61.516  1.00  0.00     0.281 C 
HETATM   19  N   UNL     1     -41.701  61.528 -61.460  1.00  0.00    -0.070 N 
HETATM   20  C   UNL     1     -41.214  61.986 -60.087  1.00  0.00     0.239 C 
HETATM   21  H   UNL     1     -40.953  61.754 -62.127  1.00  0.00     0.279 HD
HETATM   22  C   UNL     1     -42.922  62.263 -61.934  1.00  0.00     0.270 C 
HETATM   23  C   UNL     1     -42.193  61.608 -58.962  1.00  0.00     0.068 C 
HETATM   24  H   UNL     1     -44.444  56.295 -58.184  1.00  0.00     0.162 HD
ENDBRANCH   5   7
BRANCH   1  25
HETATM   25  O   UNL     1     -40.835  57.017 -52.885  1.00  0.00    -0.349 OA
BRANCH  25  26
HETATM   26  C   UNL     1     -41.565  57.733 -51.891  1.00  0.00     0.171 C 
HETATM   27  C   UNL     1     -40.711  57.800 -50.638  1.00  0.00     0.034 C 
ENDBRANCH  25  26
ENDBRANCH   1  25
BRANCH   2  28
HETATM   28  O   UNL     1     -40.205  54.544 -53.814  1.00  0.00    -0.272 OA
BRANCH  28  29
HETATM   29  C   UNL     1     -40.705  53.469 -53.110  1.00  0.00     0.300 C 
HETATM   30  O   UNL     1     -40.941  52.343 -53.522  1.00  0.00    -0.259 OA
BRANCH  29  31
HETATM   31  C   UNL     1     -40.854  53.838 -51.687  1.00  0.00     0.061 A 
HETATM   32  C   UNL     1     -42.081  54.164 -51.096  1.00  0.00     0.050 A 
HETATM   33 CL   UNL     1     -43.581  54.144 -51.952  1.00  0.00    -0.083 Cl
HETATM   34  C   UNL     1     -42.131  54.464 -49.730  1.00  0.00     0.025 A 
HETATM   35  C   UNL     1     -40.970  54.425 -48.953  1.00  0.00     0.002 A 
HETATM   36  C   UNL     1     -39.753  54.077 -49.536  1.00  0.00     0.001 A 
HETATM   37  C   UNL     1     -39.694  53.782 -50.898  1.00  0.00     0.019 A 
ENDBRANCH  29  31
ENDBRANCH  28  29
ENDBRANCH   2  28
TORSDOF 6
ENDMDL
MODEL 5
REMARK VINA RESULT:      -8.0      1.725      2.196
REMARK  6 active torsions:
REMARK  status: ('A' for Active; 'I' for Inactive)
REMARK    1  A    between atoms: C_2  and  O_3 
REMARK    2  A    between atoms: O_3  and  C_4 
REMARK    3  A    between atoms: C_5  and  O_6 
REMARK    4  A    between atoms: O_6  and  C_7 
REMARK    5  A    between atoms: C_7  and  C_8 
REMARK    6  A    between atoms: C_18  and  C_19 
ROOT
HETATM    1  C   UNL     1     -41.907  57.096 -54.804  1.00  0.00     0.103 A 
HETATM    2  C   UNL     1     -41.603  55.741 -54.958  1.00  0.00     0.112 A 
HETATM    3  C   UNL     1     -42.175  54.975 -55.972  1.00  0.00     0.041 A 
HETATM    4  C   UNL     1     -43.037  55.582 -56.882  1.00  0.00     0.014 A 
HETATM    5  C   UNL     1     -43.356  56.950 -56.775  1.00  0.00    -0.013 A 
HETATM    6  C   UNL     1     -42.791  57.689 -55.713  1.00  0.00     0.050 A 
ENDROOT
BRANCH   5   7
HETATM    7  C   UNL     1     -44.303  57.554 -57.805  1.00  0.00     0.219 C 
HETATM    8  N   UNL     1     -44.909  58.767 -57.315  1.00  0.00    -0.332 N 
HETATM    9  C   UNL     1     -44.400  60.017 -57.526  1.00  0.00     0.256 C 
HETATM   10  H   UNL     1     -45.520  58.700 -56.516  1.00  0.00     0.165 HD
HETATM   11  O   UNL     1     -44.760  60.984 -56.864  1.00  0.00    -0.267 OA
HETATM   12  C   UNL     1     -43.449  60.124 -58.617  1.00  0.00     0.073 A 
HETATM   13  C   UNL     1     -43.158  59.004 -59.359  1.00  0.00     0.088 A 
HETATM   14  C   UNL     1     -42.745  61.275 -59.089  1.00  0.00    -0.023 A 
HETATM   15  S   UNL     1     -42.063  59.323 -60.621  1.00  0.00    -0.074 SA
HETATM   16  N   UNL     1     -43.689  57.792 -59.099  1.00  0.00    -0.358 N 
HETATM   17  C   UNL     1     -41.962  60.966 -60.187  1.00  0.00     0.018 A 
HETATM   18  C   UNL     1     -41.100  61.933 -60.922  1.00  0.00     0.281 C 
HETATM   19  N   UNL     1     -41.469  63.374 -60.584  1.00  0.00    -0.070 N 
HETATM   20  C   UNL     1     -41.690  63.558 -59.083  1.00  0.00     0.239 C 
HETATM   21  H   UNL     1     -40.650  63.941 -60.831  1.00  0.00     0.279 HD
HETATM   22  C   UNL     1     -42.606  63.890 -61.420  1.00  0.00     0.270 C 
HETATM   23  C   UNL     1     -42.827  62.672 -58.546  1.00  0.00     0.068 C 
HETATM   24  H   UNL     1     -43.331  56.961 -59.562  1.00  0.00     0.162 HD
ENDBRANCH   5   7
BRANCH   1  25
HETATM   25  O   UNL     1     -41.328  57.738 -53.742  1.00  0.00    -0.349 OA
BRANCH  25  26
HETATM   26  C   UNL     1     -42.182  58.048 -52.643  1.00  0.00     0.171 C 
HETATM   27  C   UNL     1     -41.485  57.608 -51.368  1.00  0.00     0.034 C 
ENDBRANCH  25  26
ENDBRANCH   1  25
BRANCH   2  28
HETATM   28  O   UNL     1     -40.724  55.111 -54.074  1.00  0.00    -0.272 OA
BRANCH  28  29
HETATM   29  C   UNL     1     -41.400  54.263 -53.222  1.00  0.00     0.300 C 
HETATM   30  O   UNL     1     -42.457  54.464 -52.640  1.00  0.00    -0.259 OA
BRANCH  29  31
HETATM   31  C   UNL     1     -40.697  52.966 -53.158  1.00  0.00     0.061 A 
HETATM   32  C   UNL     1     -39.979  52.529 -52.038  1.00  0.00     0.050 A 
HETATM   33 CL   UNL     1     -39.853  53.442 -50.577  1.00  0.00    -0.083 Cl
HETATM   34  C   UNL     1     -39.375  51.266 -52.054  1.00  0.00     0.025 A 
HETATM   35  C   UNL     1     -39.499  50.436 -53.171  1.00  0.00     0.002 A 
HETATM   36  C   UNL     1     -40.234  50.861 -54.277  1.00  0.00     0.001 A 
HETATM   37  C   UNL     1     -40.834  52.120 -54.271  1.00  0.00     0.019 A 
ENDBRANCH  29  31
ENDBRANCH  28  29
ENDBRANCH   2  28
TORSDOF 6
ENDMDL
MODEL 6
REMARK VINA RESULT:      -8.0      2.776      4.149
REMARK  6 active torsions:
REMARK  status: ('A' for Active; 'I' for Inactive)
REMARK    1  A    between atoms: C_2  and  O_3 
REMARK    2  A    between atoms: O_3  and  C_4 
REMARK    3  A    between atoms: C_5  and  O_6 
REMARK    4  A    between atoms: O_6  and  C_7 
REMARK    5  A    between atoms: C_7  and  C_8 
REMARK    6  A    between atoms: C_18  and  C_19 
ROOT
HETATM    1  C   UNL     1     -43.163  57.221 -55.150  1.00  0.00     0.103 A 
HETATM    2  C   UNL     1     -42.921  56.099 -54.353  1.00  0.00     0.112 A 
HETATM    3  C   UNL     1     -42.838  54.819 -54.899  1.00  0.00     0.041 A 
HETATM    4  C   UNL     1     -42.954  54.657 -56.277  1.00  0.00     0.014 A 
HETATM    5  C   UNL     1     -43.179  55.763 -57.120  1.00  0.00    -0.013 A 
HETATM    6  C   UNL     1     -43.298  57.041 -56.531  1.00  0.00     0.050 A 
ENDROOT
BRANCH   5   7
HETATM    7  C   UNL     1     -43.293  55.517 -58.619  1.00  0.00     0.219 C 
HETATM    8  N   UNL     1     -44.659  55.627 -59.068  1.00  0.00    -0.332 N 
HETATM    9  C   UNL     1     -45.220  56.779 -59.542  1.00  0.00     0.256 C 
HETATM   10  H   UNL     1     -45.326  54.957 -58.717  1.00  0.00     0.165 HD
HETATM   11  O   UNL     1     -46.435  56.919 -59.633  1.00  0.00    -0.267 OA
HETATM   12  C   UNL     1     -44.279  57.796 -59.972  1.00  0.00     0.073 A 
HETATM   13  C   UNL     1     -42.932  57.528 -59.906  1.00  0.00     0.088 A 
HETATM   14  C   UNL     1     -44.539  59.095 -60.509  1.00  0.00    -0.023 A 
HETATM   15  S   UNL     1     -41.981  58.810 -60.493  1.00  0.00    -0.074 SA
HETATM   16  N   UNL     1     -42.436  56.371 -59.422  1.00  0.00    -0.358 N 
HETATM   17  C   UNL     1     -43.362  59.743 -60.840  1.00  0.00     0.018 A 
HETATM   18  C   UNL     1     -43.274  61.111 -61.421  1.00  0.00     0.281 C 
HETATM   19  N   UNL     1     -44.621  61.567 -61.975  1.00  0.00    -0.070 N 
HETATM   20  C   UNL     1     -45.762  61.233 -61.015  1.00  0.00     0.239 C 
HETATM   21  H   UNL     1     -44.572  62.592 -62.027  1.00  0.00     0.279 HD
HETATM   22  C   UNL     1     -44.862  61.085 -63.377  1.00  0.00     0.270 C 
HETATM   23  C   UNL     1     -45.881  59.722 -60.750  1.00  0.00     0.068 C 
HETATM   24  H   UNL     1     -41.442  56.271 -59.239  1.00  0.00     0.162 HD
ENDBRANCH   5   7
BRANCH   1  25
HETATM   25  O   UNL     1     -43.277  58.421 -54.502  1.00  0.00    -0.349 OA
BRANCH  25  26
HETATM   26  C   UNL     1     -42.289  59.404 -54.803  1.00  0.00     0.171 C 
HETATM   27  C   UNL     1     -42.097  60.271 -53.571  1.00  0.00     0.034 C 
ENDBRANCH  25  26
ENDBRANCH   1  25
BRANCH   2  28
HETATM   28  O   UNL     1     -42.778  56.235 -52.970  1.00  0.00    -0.272 OA
BRANCH  28  29
HETATM   29  C   UNL     1     -41.448  56.273 -52.610  1.00  0.00     0.300 C 
HETATM   30  O   UNL     1     -40.564  56.986 -53.065  1.00  0.00    -0.259 OA
BRANCH  29  31
HETATM   31  C   UNL     1     -41.217  55.354 -51.477  1.00  0.00     0.061 A 
HETATM   32  C   UNL     1     -40.752  54.042 -51.628  1.00  0.00     0.050 A 
HETATM   33 CL   UNL     1     -40.357  53.345 -53.158  1.00  0.00    -0.083 Cl
HETATM   34  C   UNL     1     -40.526  53.255 -50.493  1.00  0.00     0.025 A 
HETATM   35  C   UNL     1     -40.747  53.775 -49.215  1.00  0.00     0.002 A 
HETATM   36  C   UNL     1     -41.188  55.088 -49.064  1.00  0.00     0.001 A 
HETATM   37  C   UNL     1     -41.420  55.878 -50.190  1.00  0.00     0.019 A 
ENDBRANCH  29  31
ENDBRANCH  28  29
ENDBRANCH   2  28
TORSDOF 6
ENDMDL
MODEL 7
REMARK VINA RESULT:      -8.0      2.352      3.201
REMARK  6 active torsions:
REMARK  status: ('A' for Active; 'I' for Inactive)
REMARK    1  A    between atoms: C_2  and  O_3 
REMARK    2  A    between atoms: O_3  and  C_4 
REMARK    3  A    between atoms: C_5  and  O_6 
REMARK    4  A    between atoms: O_6  and  C_7 
REMARK    5  A    between atoms: C_7  and  C_8 
REMARK    6  A    between atoms: C_18  and  C_19 
ROOT
HETATM    1  C   UNL     1     -42.092  57.902 -51.794  1.00  0.00     0.103 A 
HETATM    2  C   UNL     1     -43.020  57.029 -51.220  1.00  0.00     0.112 A 
HETATM    3  C   UNL     1     -44.390  57.183 -51.425  1.00  0.00     0.041 A 
HETATM    4  C   UNL     1     -44.846  58.203 -52.256  1.00  0.00     0.014 A 
HETATM    5  C   UNL     1     -43.943  59.094 -52.870  1.00  0.00    -0.013 A 
HETATM    6  C   UNL     1     -42.565  58.936 -52.610  1.00  0.00     0.050 A 
ENDROOT
BRANCH   5   7
HETATM    7  C   UNL     1     -44.507  60.186 -53.771  1.00  0.00     0.219 C 
HETATM    8  N   UNL     1     -43.458  60.875 -54.480  1.00  0.00    -0.332 N 
HETATM    9  C   UNL     1     -43.016  60.526 -55.725  1.00  0.00     0.256 C 
HETATM   10  H   UNL     1     -42.791  61.405 -53.939  1.00  0.00     0.165 HD
HETATM   11  O   UNL     1     -41.948  60.930 -56.171  1.00  0.00    -0.267 OA
HETATM   12  C   UNL     1     -43.921  59.690 -56.492  1.00  0.00     0.073 A 
HETATM   13  C   UNL     1     -45.134  59.344 -55.945  1.00  0.00     0.088 A 
HETATM   14  C   UNL     1     -43.758  59.158 -57.809  1.00  0.00    -0.023 A 
HETATM   15  S   UNL     1     -46.081  58.403 -56.999  1.00  0.00    -0.074 SA
HETATM   16  N   UNL     1     -45.513  59.716 -54.705  1.00  0.00    -0.358 N 
HETATM   17  C   UNL     1     -44.876  58.444 -58.200  1.00  0.00     0.018 A 
HETATM   18  C   UNL     1     -45.037  57.759 -59.513  1.00  0.00     0.281 C 
HETATM   19  N   UNL     1     -44.008  58.252 -60.526  1.00  0.00    -0.070 N 
HETATM   20  C   UNL     1     -42.617  58.360 -59.903  1.00  0.00     0.239 C 
HETATM   21  H   UNL     1     -43.950  57.523 -61.248  1.00  0.00     0.279 HD
HETATM   22  C   UNL     1     -44.444  59.505 -61.229  1.00  0.00     0.270 C 
HETATM   23  C   UNL     1     -42.580  59.343 -58.721  1.00  0.00     0.068 C 
HETATM   24  H   UNL     1     -46.340  59.311 -54.275  1.00  0.00     0.162 HD
ENDBRANCH   5   7
BRANCH   1  25
HETATM   25  O   UNL     1     -40.776  57.689 -51.483  1.00  0.00    -0.349 OA
BRANCH  25  26
HETATM   26  C   UNL     1     -39.904  58.811 -51.600  1.00  0.00     0.171 C 
HETATM   27  C   UNL     1     -39.914  59.555 -50.277  1.00  0.00     0.034 C 
ENDBRANCH  25  26
ENDBRANCH   1  25
BRANCH   2  28
HETATM   28  O   UNL     1     -42.591  55.983 -50.400  1.00  0.00    -0.272 OA
BRANCH  28  29
HETATM   29  C   UNL     1     -43.151  54.785 -50.789  1.00  0.00     0.300 C 
HETATM   30  O   UNL     1     -44.263  54.351 -50.524  1.00  0.00    -0.259 OA
BRANCH  29  31
HETATM   31  C   UNL     1     -42.222  54.077 -51.692  1.00  0.00     0.061 A 
HETATM   32  C   UNL     1     -42.399  53.999 -53.079  1.00  0.00     0.050 A 
HETATM   33 CL   UNL     1     -43.714  54.751 -53.911  1.00  0.00    -0.083 Cl
HETATM   34  C   UNL     1     -41.445  53.338 -53.862  1.00  0.00     0.025 A 
HETATM   35  C   UNL     1     -40.313  52.773 -53.270  1.00  0.00     0.002 A 
HETATM   36  C   UNL     1     -40.124  52.870 -51.893  1.00  0.00     0.001 A 
HETATM   37  C   UNL     1     -41.073  53.523 -51.105  1.00  0.00     0.019 A 
ENDBRANCH  29  31
ENDBRANCH  28  29
ENDBRANCH   2  28
TORSDOF 6
ENDMDL
MODEL 8
REMARK VINA RESULT:      -8.0      2.462      3.907
REMARK  6 active torsions:
REMARK  status: ('A' for Active; 'I' for Inactive)
REMARK    1  A    between atoms: C_2  and  O_3 
REMARK    2  A    between atoms: O_3  and  C_4 
REMARK    3  A    between atoms: C_5  and  O_6 
REMARK    4  A    between atoms: O_6  and  C_7 
REMARK    5  A    between atoms: C_7  and  C_8 
REMARK    6  A    between atoms: C_18  and  C_19 
ROOT
HETATM    1  C   UNL     1     -42.790  56.369 -56.814  1.00  0.00     0.103 A 
HETATM    2  C   UNL     1     -42.068  55.966 -55.687  1.00  0.00     0.112 A 
HETATM    3  C   UNL     1     -41.642  56.883 -54.728  1.00  0.00     0.041 A 
HETATM    4  C   UNL     1     -41.979  58.226 -54.870  1.00  0.00     0.014 A 
HETATM    5  C   UNL     1     -42.722  58.673 -55.981  1.00  0.00    -0.013 A 
HETATM    6  C   UNL     1     -43.104  57.725 -56.955  1.00  0.00     0.050 A 
ENDROOT
BRANCH   5   7
HETATM    7  C   UNL     1     -43.060  60.155 -56.075  1.00  0.00     0.219 C 
HETATM    8  N   UNL     1     -41.909  60.934 -56.458  1.00  0.00    -0.332 N 
HETATM    9  C   UNL     1     -41.596  61.255 -57.749  1.00  0.00     0.256 C 
HETATM   10  H   UNL     1     -41.125  60.961 -55.824  1.00  0.00     0.165 HD
HETATM   11  O   UNL     1     -40.480  61.652 -58.066  1.00  0.00    -0.267 OA
HETATM   12  C   UNL     1     -42.687  61.140 -58.699  1.00  0.00     0.073 A 
HETATM   13  C   UNL     1     -43.928  60.759 -58.246  1.00  0.00     0.088 A 
HETATM   14  C   UNL     1     -42.689  61.397 -60.105  1.00  0.00    -0.023 A 
HETATM   15  S   UNL     1     -45.093  60.722 -59.484  1.00  0.00    -0.074 SA
HETATM   16  N   UNL     1     -44.175  60.448 -56.957  1.00  0.00    -0.358 N 
HETATM   17  C   UNL     1     -43.948  61.212 -60.645  1.00  0.00     0.018 A 
HETATM   18  C   UNL     1     -44.299  61.395 -62.081  1.00  0.00     0.281 C 
HETATM   19  N   UNL     1     -43.220  62.182 -62.819  1.00  0.00    -0.070 N 
HETATM   20  C   UNL     1     -41.820  61.699 -62.446  1.00  0.00     0.239 C 
HETATM   21  H   UNL     1     -43.347  61.970 -63.816  1.00  0.00     0.279 HD
HETATM   22  C   UNL     1     -43.393  63.668 -62.681  1.00  0.00     0.270 C 
HETATM   23  C   UNL     1     -41.529  61.852 -60.943  1.00  0.00     0.068 C 
HETATM   24  H   UNL     1     -45.057  60.019 -56.688  1.00  0.00     0.162 HD
ENDBRANCH   5   7
BRANCH   1  25
HETATM   25  O   UNL     1     -43.112  55.392 -57.718  1.00  0.00    -0.349 OA
BRANCH  25  26
HETATM   26  C   UNL     1     -43.092  55.765 -59.094  1.00  0.00     0.171 C 
HETATM   27  C   UNL     1     -44.185  54.991 -59.807  1.00  0.00     0.034 C 
ENDBRANCH  25  26
ENDBRANCH   1  25
BRANCH   2  28
HETATM   28  O   UNL     1     -41.735  54.622 -55.507  1.00  0.00    -0.272 OA
BRANCH  28  29
HETATM   29  C   UNL     1     -42.294  54.122 -54.350  1.00  0.00     0.300 C 
HETATM   30  O   UNL     1     -43.451  54.224 -53.966  1.00  0.00    -0.259 OA
BRANCH  29  31
HETATM   31  C   UNL     1     -41.288  53.325 -53.621  1.00  0.00     0.061 A 
HETATM   32  C   UNL     1     -40.841  53.636 -52.330  1.00  0.00     0.050 A 
HETATM   33 CL   UNL     1     -41.436  54.976 -51.417  1.00  0.00    -0.083 Cl
HETATM   34  C   UNL     1     -39.910  52.799 -51.702  1.00  0.00     0.025 A 
HETATM   35  C   UNL     1     -39.441  51.652 -52.346  1.00  0.00     0.002 A 
HETATM   36  C   UNL     1     -39.904  51.330 -53.620  1.00  0.00     0.001 A 
HETATM   37  C   UNL     1     -40.827  52.160 -54.256  1.00  0.00     0.019 A 
ENDBRANCH  29  31
ENDBRANCH  28  29
ENDBRANCH   2  28
TORSDOF 6
ENDMDL
MODEL 9
REMARK VINA RESULT:      -7.9      3.750      9.379
REMARK  6 active torsions:
REMARK  status: ('A' for Active; 'I' for Inactive)
REMARK    1  A    between atoms: C_2  and  O_3 
REMARK    2  A    between atoms: O_3  and  C_4 
REMARK    3  A    between atoms: C_5  and  O_6 
REMARK    4  A    between atoms: O_6  and  C_7 
REMARK    5  A    between atoms: C_7  and  C_8 
REMARK    6  A    between atoms: C_18  and  C_19 
ROOT
HETATM    1  C   UNL     1     -42.422  58.539 -56.858  1.00  0.00     0.103 A 
HETATM    2  C   UNL     1     -42.029  59.718 -56.220  1.00  0.00     0.112 A 
HETATM    3  C   UNL     1     -42.321  59.954 -54.878  1.00  0.00     0.041 A 
HETATM    4  C   UNL     1     -42.979  58.974 -54.140  1.00  0.00     0.014 A 
HETATM    5  C   UNL     1     -43.376  57.761 -54.739  1.00  0.00    -0.013 A 
HETATM    6  C   UNL     1     -43.102  57.571 -56.110  1.00  0.00     0.050 A 
ENDROOT
BRANCH   5   7
HETATM    7  C   UNL     1     -44.090  56.729 -53.875  1.00  0.00     0.219 C 
HETATM    8  N   UNL     1     -44.183  55.456 -54.546  1.00  0.00    -0.332 N 
HETATM    9  C   UNL     1     -43.265  54.453 -54.418  1.00  0.00     0.256 C 
HETATM   10  H   UNL     1     -44.734  55.407 -55.390  1.00  0.00     0.165 HD
HETATM   11  O   UNL     1     -43.210  53.519 -55.210  1.00  0.00    -0.267 OA
HETATM   12  C   UNL     1     -42.400  54.548 -53.257  1.00  0.00     0.073 A 
HETATM   13  C   UNL     1     -42.579  55.589 -52.376  1.00  0.00     0.088 A 
HETATM   14  C   UNL     1     -41.350  53.672 -52.840  1.00  0.00    -0.023 A 
HETATM   15  S   UNL     1     -41.512  55.517 -51.054  1.00  0.00    -0.074 SA
HETATM   16  N   UNL     1     -43.502  56.556 -52.559  1.00  0.00    -0.358 N 
HETATM   17  C   UNL     1     -40.794  54.091 -51.645  1.00  0.00     0.018 A 
HETATM   18  C   UNL     1     -39.679  53.407 -50.934  1.00  0.00     0.281 C 
HETATM   19  N   UNL     1     -39.476  51.987 -51.456  1.00  0.00    -0.070 N 
HETATM   20  C   UNL     1     -39.534  51.938 -52.982  1.00  0.00     0.239 C 
HETATM   21  H   UNL     1     -38.521  51.721 -51.190  1.00  0.00     0.279 HD
HETATM   22  C   UNL     1     -40.388  50.993 -50.794  1.00  0.00     0.270 C 
HETATM   23  C   UNL     1     -40.886  52.424 -53.533  1.00  0.00     0.068 C 
HETATM   24  H   UNL     1     -43.498  57.390 -51.980  1.00  0.00     0.162 HD
ENDBRANCH   5   7
BRANCH   1  25
HETATM   25  O   UNL     1     -42.130  58.436 -58.192  1.00  0.00    -0.349 OA
BRANCH  25  26
HETATM   26  C   UNL     1     -42.707  57.333 -58.887  1.00  0.00     0.171 C 
HETATM   27  C   UNL     1     -41.976  57.176 -60.208  1.00  0.00     0.034 C 
ENDBRANCH  25  26
ENDBRANCH   1  25
BRANCH   2  28
HETATM   28  O   UNL     1     -41.348  60.710 -56.929  1.00  0.00    -0.272 OA
BRANCH  28  29
HETATM   29  C   UNL     1     -42.208  61.424 -57.736  1.00  0.00     0.300 C 
HETATM   30  O   UNL     1     -43.358  61.765 -57.496  1.00  0.00    -0.259 OA
BRANCH  29  31
HETATM   31  C   UNL     1     -41.505  61.829 -58.970  1.00  0.00     0.061 A 
HETATM   32  C   UNL     1     -41.957  61.513 -60.257  1.00  0.00     0.050 A 
HETATM   33 CL   UNL     1     -43.414  60.637 -60.563  1.00  0.00    -0.083 Cl
HETATM   34  C   UNL     1     -41.244  61.973 -61.371  1.00  0.00     0.025 A 
HETATM   35  C   UNL     1     -40.098  62.755 -61.205  1.00  0.00     0.002 A 
HETATM   36  C   UNL     1     -39.661  63.089 -59.924  1.00  0.00     0.001 A 
HETATM   37  C   UNL     1     -40.363  62.630 -58.809  1.00  0.00     0.019 A 
ENDBRANCH  29  31
ENDBRANCH  28  29
ENDBRANCH   2  28
TORSDOF 6
ENDMDL
MODEL 10
REMARK VINA RESULT:      -7.6      1.879      2.964
REMARK  6 active torsions:
REMARK  status: ('A' for Active; 'I' for Inactive)
REMARK    1  A    between atoms: C_2  and  O_3 
REMARK    2  A    between atoms: O_3  and  C_4 
REMARK    3  A    between atoms: C_5  and  O_6 
REMARK    4  A    between atoms: O_6  and  C_7 
REMARK    5  A    between atoms: C_7  and  C_8 
REMARK    6  A    between atoms: C_18  and  C_19 
ROOT
HETATM    1  C   UNL     1     -43.423  55.633 -53.101  1.00  0.00     0.103 A 
HETATM    2  C   UNL     1     -43.008  55.722 -51.769  1.00  0.00     0.112 A 
HETATM    3  C   UNL     1     -42.974  56.942 -51.096  1.00  0.00     0.041 A 
HETATM    4  C   UNL     1     -43.406  58.094 -51.748  1.00  0.00     0.014 A 
HETATM    5  C   UNL     1     -43.850  58.046 -53.085  1.00  0.00    -0.013 A 
HETATM    6  C   UNL     1     -43.834  56.801 -53.751  1.00  0.00     0.050 A 
ENDROOT
BRANCH   5   7
HETATM    7  C   UNL     1     -44.312  59.342 -53.739  1.00  0.00     0.219 C 
HETATM    8  N   UNL     1     -43.212  60.041 -54.355  1.00  0.00    -0.332 N 
HETATM    9  C   UNL     1     -42.843  59.891 -55.662  1.00  0.00     0.256 C 
HETATM   10  H   UNL     1     -42.477  60.386 -53.756  1.00  0.00     0.165 HD
HETATM   11  O   UNL     1     -41.748  60.259 -56.073  1.00  0.00    -0.267 OA
HETATM   12  C   UNL     1     -43.853  59.315 -56.529  1.00  0.00     0.073 A 
HETATM   13  C   UNL     1     -45.083  58.999 -56.002  1.00  0.00     0.088 A 
HETATM   14  C   UNL     1     -43.784  59.029 -57.929  1.00  0.00    -0.023 A 
HETATM   15  S   UNL     1     -46.155  58.379 -57.168  1.00  0.00    -0.074 SA
HETATM   16  N   UNL     1     -45.387  59.165 -54.698  1.00  0.00    -0.358 N 
HETATM   17  C   UNL     1     -44.983  58.523 -58.395  1.00  0.00     0.018 A 
HETATM   18  C   UNL     1     -45.252  58.121 -59.803  1.00  0.00     0.281 C 
HETATM   19  N   UNL     1     -44.200  58.688 -60.753  1.00  0.00    -0.070 N 
HETATM   20  C   UNL     1     -42.791  58.531 -60.184  1.00  0.00     0.239 C 
HETATM   21  H   UNL     1     -44.241  58.108 -61.599  1.00  0.00     0.279 HD
HETATM   22  C   UNL     1     -44.513  60.091 -61.189  1.00  0.00     0.270 C 
HETATM   23  C   UNL     1     -42.616  59.262 -58.842  1.00  0.00     0.068 C 
HETATM   24  H   UNL     1     -46.243  58.774 -54.313  1.00  0.00     0.162 HD
ENDBRANCH   5   7
BRANCH   1  25
HETATM   25  O   UNL     1     -43.366  54.393 -53.679  1.00  0.00    -0.349 OA
BRANCH  25  26
HETATM   26  C   UNL     1     -43.873  54.286 -55.007  1.00  0.00     0.171 C 
HETATM   27  C   UNL     1     -42.755  54.650 -55.968  1.00  0.00     0.034 C 
ENDBRANCH  25  26
ENDBRANCH   1  25
BRANCH   2  28
HETATM   28  O   UNL     1     -42.592  54.580 -51.083  1.00  0.00    -0.272 OA
BRANCH  28  29
HETATM   29  C   UNL     1     -41.224  54.579 -50.904  1.00  0.00     0.300 C 
HETATM   30  O   UNL     1     -40.531  55.446 -50.392  1.00  0.00    -0.259 OA
BRANCH  29  31
HETATM   31  C   UNL     1     -40.669  53.287 -51.355  1.00  0.00     0.061 A 
HETATM   32  C   UNL     1     -40.218  53.053 -52.660  1.00  0.00     0.050 A 
HETATM   33 CL   UNL     1     -40.224  54.258 -53.897  1.00  0.00    -0.083 Cl
HETATM   34  C   UNL     1     -39.671  51.806 -52.988  1.00  0.00     0.025 A 
HETATM   35  C   UNL     1     -39.559  50.806 -52.019  1.00  0.00     0.002 A 
HETATM   36  C   UNL     1     -39.986  51.047 -50.715  1.00  0.00     0.001 A 
HETATM   37  C   UNL     1     -40.537  52.284 -50.381  1.00  0.00     0.019 A 
ENDBRANCH  29  31
ENDBRANCH  28  29
ENDBRANCH   2  28
TORSDOF 6
ENDMDL
