MODEL 1
REMARK VINA RESULT:      -8.3      0.000      0.000
REMARK  9 active torsions:
REMARK  status: ('A' for Active; 'I' for Inactive)
REMARK    1  A    between atoms: C_3  and  C_4 
REMARK    2  A    between atoms: C_4  and  O_5 
REMARK    3  A    between atoms: C_8  and  C_9 
REMARK    4  A    between atoms: C_9  and  O_10 
REMARK    5  A    between atoms: O_10  and  C_11 
REMARK    6  A    between atoms: C_11  and  C_12 
REMARK    7  A    between atoms: C_15  and  C_16 
REMARK    8  A    between atoms: C_16  and  N_17 
REMARK       I    between atoms: N_17  and  C_18 
REMARK       I    between atoms: C_18  and  N_19 
REMARK    9  A    between atoms: N_19  and  C_20 
ROOT
HETATM    1  C   UNL     1     -43.987  56.889 -54.545  1.00  0.00     0.293 C 
HETATM    2  O   UNL     1     -44.374  57.120 -55.678  1.00  0.00    -0.259 OA
ENDROOT
BRANCH   1   3
HETATM    3  O   UNL     1     -43.451  55.723 -54.108  1.00  0.00    -0.311 OA
BRANCH   3   4
HETATM    4  C   UNL     1     -42.037  55.760 -53.849  1.00  0.00     0.239 C 
BRANCH   4   5
HETATM    5  C   UNL     1     -41.454  54.560 -53.141  1.00  0.00     0.076 A 
HETATM    6  C   UNL     1     -41.260  54.503 -51.763  1.00  0.00     0.073 A 
HETATM    7  C   UNL     1     -40.630  53.373 -51.199  1.00  0.00    -0.031 A 
HETATM    8  C   UNL     1     -40.330  53.308 -49.721  1.00  0.00     0.050 C 
HETATM    9  C   UNL     1     -40.289  52.285 -52.052  1.00  0.00    -0.000 A 
HETATM   10  C   UNL     1     -40.534  52.436 -53.434  1.00  0.00     0.068 A 
HETATM   11  C   UNL     1     -39.717  51.068 -51.606  1.00  0.00     0.014 A 
HETATM   12  N   UNL     1     -41.070  53.544 -53.960  1.00  0.00    -0.249 NA
HETATM   13  C   UNL     1     -40.204  51.406 -54.303  1.00  0.00     0.032 A 
HETATM   14  C   UNL     1     -39.636  50.214 -53.852  1.00  0.00     0.002 A 
HETATM   15  C   UNL     1     -39.393  50.043 -52.499  1.00  0.00     0.001 A 
BRANCH   6  16
HETATM   16  C   UNL     1     -41.667  55.658 -50.943  1.00  0.00     0.295 C 
HETATM   17  O   UNL     1     -42.754  55.762 -50.403  1.00  0.00    -0.259 OA
BRANCH  16  18
HETATM   18  O   UNL     1     -40.640  56.542 -50.894  1.00  0.00    -0.322 OA
HETATM   19  C   UNL     1     -41.058  57.902 -50.772  1.00  0.00     0.213 C 
ENDBRANCH  16  18
ENDBRANCH   6  16
ENDBRANCH   4   5
ENDBRANCH   3   4
ENDBRANCH   1   3
BRANCH   1  20
HETATM   20  C   UNL     1     -43.920  57.931 -53.482  1.00  0.00     0.039 A 
HETATM   21  C   UNL     1     -44.676  57.734 -52.319  1.00  0.00     0.018 A 
HETATM   22  C   UNL     1     -44.800  58.756 -51.373  1.00  0.00     0.010 A 
HETATM   23  C   UNL     1     -44.182  59.996 -51.583  1.00  0.00    -0.040 A 
HETATM   24  C   UNL     1     -43.368  60.166 -52.713  1.00  0.00     0.010 A 
HETATM   25  C   UNL     1     -43.239  59.143 -53.658  1.00  0.00     0.018 A 
BRANCH  23  26
HETATM   26  C   UNL     1     -44.429  61.140 -50.635  1.00  0.00     0.162 C 
BRANCH  26  27
HETATM   27  N   UNL     1     -44.093  60.807 -49.273  1.00  0.00    -0.339 N 
HETATM   28  C   UNL     1     -45.060  60.985 -48.314  1.00  0.00     0.316 C 
HETATM   29  N   UNL     1     -44.560  60.755 -47.058  1.00  0.00    -0.339 N 
HETATM   30  O   UNL     1     -46.210  61.315 -48.562  1.00  0.00    -0.247 OA
HETATM   31  H   UNL     1     -43.782  60.114 -47.033  1.00  0.00     0.164 HD
HETATM   32  H   UNL     1     -43.155  61.025 -48.973  1.00  0.00     0.164 HD
BRANCH  29  33
HETATM   33  C   UNL     1     -45.370  60.838 -45.846  1.00  0.00     0.078 C 
HETATM   34  C   UNL     1     -46.278  59.622 -45.663  1.00  0.00     0.032 C 
HETATM   35  C   UNL     1     -44.524  61.096 -44.601  1.00  0.00     0.032 C 
ENDBRANCH  29  33
ENDBRANCH  26  27
ENDBRANCH  23  26
ENDBRANCH   1  20
TORSDOF 9
ENDMDL
MODEL 2
REMARK VINA RESULT:      -7.8      3.345      6.317
REMARK  9 active torsions:
REMARK  status: ('A' for Active; 'I' for Inactive)
REMARK    1  A    between atoms: C_3  and  C_4 
REMARK    2  A    between atoms: C_4  and  O_5 
REMARK    3  A    between atoms: C_8  and  C_9 
REMARK    4  A    between atoms: C_9  and  O_10 
REMARK    5  A    between atoms: O_10  and  C_11 
REMARK    6  A    between atoms: C_11  and  C_12 
REMARK    7  A    between atoms: C_15  and  C_16 
REMARK    8  A    between atoms: C_16  and  N_17 
REMARK       I    between atoms: N_17  and  C_18 
REMARK       I    between atoms: C_18  and  N_19 
REMARK    9  A    between atoms: N_19  and  C_20 
ROOT
HETATM    1  C   UNL     1     -41.721  59.243 -51.244  1.00  0.00     0.293 C 
HETATM    2  O   UNL     1     -41.553  59.794 -50.169  1.00  0.00    -0.259 OA
ENDROOT
BRANCH   1   3
HETATM    3  O   UNL     1     -41.178  58.062 -51.628  1.00  0.00    -0.311 OA
BRANCH   3   4
HETATM    4  C   UNL     1     -41.983  56.903 -51.354  1.00  0.00     0.239 C 
BRANCH   4   5
HETATM    5  C   UNL     1     -41.661  55.660 -52.150  1.00  0.00     0.076 A 
HETATM    6  C   UNL     1     -42.158  55.420 -53.428  1.00  0.00     0.073 A 
HETATM    7  C   UNL     1     -41.872  54.191 -54.063  1.00  0.00    -0.031 A 
HETATM    8  C   UNL     1     -42.456  53.861 -55.414  1.00  0.00     0.050 C 
HETATM    9  C   UNL     1     -41.009  53.269 -53.406  1.00  0.00    -0.000 A 
HETATM   10  C   UNL     1     -40.550  53.609 -52.115  1.00  0.00     0.068 A 
HETATM   11  C   UNL     1     -40.587  52.035 -53.959  1.00  0.00     0.014 A 
HETATM   12  N   UNL     1     -40.888  54.749 -51.500  1.00  0.00    -0.249 NA
HETATM   13  C   UNL     1     -39.718  52.732 -51.433  1.00  0.00     0.032 A 
HETATM   14  C   UNL     1     -39.314  51.517 -51.986  1.00  0.00     0.002 A 
HETATM   15  C   UNL     1     -39.749  51.167 -53.255  1.00  0.00     0.001 A 
BRANCH   6  16
HETATM   16  C   UNL     1     -43.021  56.437 -54.054  1.00  0.00     0.295 C 
HETATM   17  O   UNL     1     -44.234  56.463 -53.945  1.00  0.00    -0.259 OA
BRANCH  16  18
HETATM   18  O   UNL     1     -42.242  57.311 -54.737  1.00  0.00    -0.322 OA
HETATM   19  C   UNL     1     -42.540  57.378 -56.132  1.00  0.00     0.213 C 
ENDBRANCH  16  18
ENDBRANCH   6  16
ENDBRANCH   4   5
ENDBRANCH   3   4
ENDBRANCH   1   3
BRANCH   1  20
HETATM   20  C   UNL     1     -42.685  59.738 -52.267  1.00  0.00     0.039 A 
HETATM   21  C   UNL     1     -44.045  59.461 -52.076  1.00  0.00     0.018 A 
HETATM   22  C   UNL     1     -44.972  59.735 -53.086  1.00  0.00     0.010 A 
HETATM   23  C   UNL     1     -44.550  60.277 -54.308  1.00  0.00    -0.040 A 
HETATM   24  C   UNL     1     -43.199  60.618 -54.469  1.00  0.00     0.010 A 
HETATM   25  C   UNL     1     -42.271  60.349 -53.457  1.00  0.00     0.018 A 
BRANCH  23  26
HETATM   26  C   UNL     1     -45.524  60.441 -55.444  1.00  0.00     0.162 C 
BRANCH  26  27
HETATM   27  N   UNL     1     -45.868  59.183 -56.059  1.00  0.00    -0.339 N 
HETATM   28  C   UNL     1     -45.463  58.971 -57.354  1.00  0.00     0.316 C 
HETATM   29  N   UNL     1     -45.971  57.797 -57.847  1.00  0.00    -0.339 N 
HETATM   30  O   UNL     1     -44.748  59.743 -57.976  1.00  0.00    -0.247 OA
HETATM   31  H   UNL     1     -46.162  57.101 -57.142  1.00  0.00     0.164 HD
HETATM   32  H   UNL     1     -46.774  58.803 -55.833  1.00  0.00     0.164 HD
BRANCH  29  33
HETATM   33  C   UNL     1     -45.679  57.298 -59.188  1.00  0.00     0.078 C 
HETATM   34  C   UNL     1     -44.471  56.361 -59.215  1.00  0.00     0.032 C 
HETATM   35  C   UNL     1     -46.899  56.657 -59.845  1.00  0.00     0.032 C 
ENDBRANCH  29  33
ENDBRANCH  26  27
ENDBRANCH  23  26
ENDBRANCH   1  20
TORSDOF 9
ENDMDL
MODEL 3
REMARK VINA RESULT:      -7.8      4.255      7.216
REMARK  9 active torsions:
REMARK  status: ('A' for Active; 'I' for Inactive)
REMARK    1  A    between atoms: C_3  and  C_4 
REMARK    2  A    between atoms: C_4  and  O_5 
REMARK    3  A    between atoms: C_8  and  C_9 
REMARK    4  A    between atoms: C_9  and  O_10 
REMARK    5  A    between atoms: O_10  and  C_11 
REMARK    6  A    between atoms: C_11  and  C_12 
REMARK    7  A    between atoms: C_15  and  C_16 
REMARK    8  A    between atoms: C_16  and  N_17 
REMARK       I    between atoms: N_17  and  C_18 
REMARK       I    between atoms: C_18  and  N_19 
REMARK    9  A    between atoms: N_19  and  C_20 
ROOT
HETATM    1  C   UNL     1     -43.128  55.202 -55.457  1.00  0.00     0.293 C 
HETATM    2  O   UNL     1     -43.368  54.008 -55.520  1.00  0.00    -0.259 OA
ENDROOT
BRANCH   1   3
HETATM    3  O   UNL     1     -42.676  55.868 -54.366  1.00  0.00    -0.311 OA
BRANCH   3   4
HETATM    4  C   UNL     1     -41.283  55.673 -54.067  1.00  0.00     0.239 C 
BRANCH   4   5
HETATM    5  C   UNL     1     -40.949  54.516 -53.154  1.00  0.00     0.076 A 
HETATM    6  C   UNL     1     -40.988  54.601 -51.766  1.00  0.00     0.073 A 
HETATM    7  C   UNL     1     -40.577  53.492 -50.993  1.00  0.00    -0.031 A 
HETATM    8  C   UNL     1     -40.530  53.571 -49.487  1.00  0.00     0.050 C 
HETATM    9  C   UNL     1     -40.216  52.290 -51.664  1.00  0.00    -0.000 A 
HETATM   10  C   UNL     1     -40.217  52.302 -53.075  1.00  0.00     0.068 A 
HETATM   11  C   UNL     1     -39.852  51.087 -51.009  1.00  0.00     0.014 A 
HETATM   12  N   UNL     1     -40.543  53.385 -53.792  1.00  0.00    -0.249 NA
HETATM   13  C   UNL     1     -39.857  51.156 -53.769  1.00  0.00     0.032 A 
HETATM   14  C   UNL     1     -39.496  49.979 -53.113  1.00  0.00     0.002 A 
HETATM   15  C   UNL     1     -39.495  49.944 -51.728  1.00  0.00     0.001 A 
BRANCH   6  16
HETATM   16  C   UNL     1     -41.402  55.871 -51.145  1.00  0.00     0.295 C 
HETATM   17  O   UNL     1     -40.641  56.792 -50.906  1.00  0.00    -0.259 OA
BRANCH  16  18
HETATM   18  O   UNL     1     -42.736  55.830 -50.912  1.00  0.00    -0.322 OA
HETATM   19  C   UNL     1     -43.411  57.051 -51.217  1.00  0.00     0.213 C 
ENDBRANCH  16  18
ENDBRANCH   6  16
ENDBRANCH   4   5
ENDBRANCH   3   4
ENDBRANCH   1   3
BRANCH   1  20
HETATM   20  C   UNL     1     -43.169  56.101 -56.644  1.00  0.00     0.039 A 
HETATM   21  C   UNL     1     -43.588  57.424 -56.453  1.00  0.00     0.018 A 
HETATM   22  C   UNL     1     -43.824  58.259 -57.550  1.00  0.00     0.010 A 
HETATM   23  C   UNL     1     -43.657  57.777 -58.856  1.00  0.00    -0.040 A 
HETATM   24  C   UNL     1     -43.169  56.475 -59.042  1.00  0.00     0.010 A 
HETATM   25  C   UNL     1     -42.929  55.641 -57.945  1.00  0.00     0.018 A 
BRANCH  23  26
HETATM   26  C   UNL     1     -44.043  58.628 -60.036  1.00  0.00     0.162 C 
BRANCH  26  27
HETATM   27  N   UNL     1     -43.644  60.005 -59.874  1.00  0.00    -0.339 N 
HETATM   28  C   UNL     1     -42.410  60.373 -60.350  1.00  0.00     0.316 C 
HETATM   29  N   UNL     1     -42.115  61.668 -60.010  1.00  0.00    -0.339 N 
HETATM   30  O   UNL     1     -41.677  59.629 -60.984  1.00  0.00    -0.247 OA
HETATM   31  H   UNL     1     -42.924  62.257 -59.882  1.00  0.00     0.164 HD
HETATM   32  H   UNL     1     -43.918  60.455 -59.015  1.00  0.00     0.164 HD
BRANCH  29  33
HETATM   33  C   UNL     1     -40.881  62.340 -60.410  1.00  0.00     0.078 C 
HETATM   34  C   UNL     1     -41.141  63.654 -61.147  1.00  0.00     0.032 C 
HETATM   35  C   UNL     1     -39.923  62.536 -59.237  1.00  0.00     0.032 C 
ENDBRANCH  29  33
ENDBRANCH  26  27
ENDBRANCH  23  26
ENDBRANCH   1  20
TORSDOF 9
ENDMDL
MODEL 4
REMARK VINA RESULT:      -7.7      3.174      3.773
REMARK  9 active torsions:
REMARK  status: ('A' for Active; 'I' for Inactive)
REMARK    1  A    between atoms: C_3  and  C_4 
REMARK    2  A    between atoms: C_4  and  O_5 
REMARK    3  A    between atoms: C_8  and  C_9 
REMARK    4  A    between atoms: C_9  and  O_10 
REMARK    5  A    between atoms: O_10  and  C_11 
REMARK    6  A    between atoms: C_11  and  C_12 
REMARK    7  A    between atoms: C_15  and  C_16 
REMARK    8  A    between atoms: C_16  and  N_17 
REMARK       I    between atoms: N_17  and  C_18 
REMARK       I    between atoms: C_18  and  N_19 
REMARK    9  A    between atoms: N_19  and  C_20 
ROOT
HETATM    1  C   UNL     1     -43.174  56.291 -56.431  1.00  0.00     0.293 C 
HETATM    2  O   UNL     1     -43.125  56.466 -57.637  1.00  0.00    -0.259 OA
ENDROOT
BRANCH   1   3
HETATM    3  O   UNL     1     -42.809  55.164 -55.774  1.00  0.00    -0.311 OA
BRANCH   3   4
HETATM    4  C   UNL     1     -41.406  55.056 -55.480  1.00  0.00     0.239 C 
BRANCH   4   5
HETATM    5  C   UNL     1     -41.032  54.183 -54.304  1.00  0.00     0.076 A 
HETATM    6  C   UNL     1     -41.037  54.632 -52.986  1.00  0.00     0.073 A 
HETATM    7  C   UNL     1     -40.591  53.770 -51.960  1.00  0.00    -0.031 A 
HETATM    8  C   UNL     1     -40.506  54.244 -50.530  1.00  0.00     0.050 C 
HETATM    9  C   UNL     1     -40.231  52.435 -52.300  1.00  0.00    -0.000 A 
HETATM   10  C   UNL     1     -40.268  52.074 -53.664  1.00  0.00     0.068 A 
HETATM   11  C   UNL     1     -39.834  51.451 -51.361  1.00  0.00     0.014 A 
HETATM   12  N   UNL     1     -40.627  52.926 -54.632  1.00  0.00    -0.249 NA
HETATM   13  C   UNL     1     -39.911  50.787 -54.040  1.00  0.00     0.032 A 
HETATM   14  C   UNL     1     -39.516  49.828 -53.107  1.00  0.00     0.002 A 
HETATM   15  C   UNL     1     -39.479  50.160 -51.762  1.00  0.00     0.001 A 
BRANCH   6  16
HETATM   16  C   UNL     1     -41.452  56.019 -52.712  1.00  0.00     0.295 C 
HETATM   17  O   UNL     1     -40.720  56.985 -52.830  1.00  0.00    -0.259 OA
BRANCH  16  18
HETATM   18  O   UNL     1     -42.752  56.019 -52.332  1.00  0.00    -0.322 OA
HETATM   19  C   UNL     1     -43.036  56.910 -51.253  1.00  0.00     0.213 C 
ENDBRANCH  16  18
ENDBRANCH   6  16
ENDBRANCH   4   5
ENDBRANCH   3   4
ENDBRANCH   1   3
BRANCH   1  20
HETATM   20  C   UNL     1     -43.524  57.373 -55.468  1.00  0.00     0.039 A 
HETATM   21  C   UNL     1     -44.772  57.310 -54.834  1.00  0.00     0.018 A 
HETATM   22  C   UNL     1     -45.232  58.385 -54.066  1.00  0.00     0.010 A 
HETATM   23  C   UNL     1     -44.456  59.545 -53.934  1.00  0.00    -0.040 A 
HETATM   24  C   UNL     1     -43.178  59.577 -54.512  1.00  0.00     0.010 A 
HETATM   25  C   UNL     1     -42.715  58.500 -55.276  1.00  0.00     0.018 A 
BRANCH  23  26
HETATM   26  C   UNL     1     -45.009  60.753 -53.226  1.00  0.00     0.162 C 
BRANCH  26  27
HETATM   27  N   UNL     1     -46.312  61.128 -53.716  1.00  0.00    -0.339 N 
HETATM   28  C   UNL     1     -47.202  61.668 -52.820  1.00  0.00     0.316 C 
HETATM   29  N   UNL     1     -48.434  61.851 -53.394  1.00  0.00    -0.339 N 
HETATM   30  O   UNL     1     -46.921  61.936 -51.661  1.00  0.00    -0.247 OA
HETATM   31  H   UNL     1     -48.408  61.990 -54.392  1.00  0.00     0.164 HD
HETATM   32  H   UNL     1     -46.725  60.523 -54.409  1.00  0.00     0.164 HD
BRANCH  29  33
HETATM   33  C   UNL     1     -49.568  62.439 -52.686  1.00  0.00     0.078 C 
HETATM   34  C   UNL     1     -49.590  63.965 -52.780  1.00  0.00     0.032 C 
HETATM   35  C   UNL     1     -50.900  61.833 -53.123  1.00  0.00     0.032 C 
ENDBRANCH  29  33
ENDBRANCH  26  27
ENDBRANCH  23  26
ENDBRANCH   1  20
TORSDOF 9
ENDMDL
MODEL 5
REMARK VINA RESULT:      -7.6      4.169      7.355
REMARK  9 active torsions:
REMARK  status: ('A' for Active; 'I' for Inactive)
REMARK    1  A    between atoms: C_3  and  C_4 
REMARK    2  A    between atoms: C_4  and  O_5 
REMARK    3  A    between atoms: C_8  and  C_9 
REMARK    4  A    between atoms: C_9  and  O_10 
REMARK    5  A    between atoms: O_10  and  C_11 
REMARK    6  A    between atoms: C_11  and  C_12 
REMARK    7  A    between atoms: C_15  and  C_16 
REMARK    8  A    between atoms: C_16  and  N_17 
REMARK       I    between atoms: N_17  and  C_18 
REMARK       I    between atoms: C_18  and  N_19 
REMARK    9  A    between atoms: N_19  and  C_20 
ROOT
HETATM    1  C   UNL     1     -42.775  57.051 -54.585  1.00  0.00     0.293 C 
HETATM    2  O   UNL     1     -43.063  58.077 -53.992  1.00  0.00    -0.259 OA
ENDROOT
BRANCH   1   3
HETATM    3  O   UNL     1     -42.509  55.850 -54.017  1.00  0.00    -0.311 OA
BRANCH   3   4
HETATM    4  C   UNL     1     -41.134  55.634 -53.659  1.00  0.00     0.239 C 
BRANCH   4   5
HETATM    5  C   UNL     1     -40.843  54.413 -52.819  1.00  0.00     0.076 A 
HETATM    6  C   UNL     1     -40.911  54.407 -51.428  1.00  0.00     0.073 A 
HETATM    7  C   UNL     1     -40.540  53.242 -50.722  1.00  0.00    -0.031 A 
HETATM    8  C   UNL     1     -40.524  53.221 -49.213  1.00  0.00     0.050 C 
HETATM    9  C   UNL     1     -40.189  52.078 -51.463  1.00  0.00    -0.000 A 
HETATM   10  C   UNL     1     -40.158  52.183 -52.870  1.00  0.00     0.068 A 
HETATM   11  C   UNL     1     -39.864  50.827 -50.882  1.00  0.00     0.014 A 
HETATM   12  N   UNL     1     -40.447  53.317 -53.521  1.00  0.00    -0.249 NA
HETATM   13  C   UNL     1     -39.807  51.077 -53.631  1.00  0.00     0.032 A 
HETATM   14  C   UNL     1     -39.484  49.852 -53.046  1.00  0.00     0.002 A 
HETATM   15  C   UNL     1     -39.514  49.726 -51.667  1.00  0.00     0.001 A 
BRANCH   6  16
HETATM   16  C   UNL     1     -41.312  55.643 -50.734  1.00  0.00     0.295 C 
HETATM   17  O   UNL     1     -40.550  56.558 -50.477  1.00  0.00    -0.259 OA
BRANCH  16  18
HETATM   18  O   UNL     1     -42.637  55.579 -50.458  1.00  0.00    -0.322 OA
HETATM   19  C   UNL     1     -43.346  56.782 -50.760  1.00  0.00     0.213 C 
ENDBRANCH  16  18
ENDBRANCH   6  16
ENDBRANCH   4   5
ENDBRANCH   3   4
ENDBRANCH   1   3
BRANCH   1  20
HETATM   20  C   UNL     1     -42.811  56.936 -56.070  1.00  0.00     0.039 A 
HETATM   21  C   UNL     1     -42.801  58.119 -56.822  1.00  0.00     0.018 A 
HETATM   22  C   UNL     1     -43.019  58.083 -58.203  1.00  0.00     0.010 A 
HETATM   23  C   UNL     1     -43.264  56.865 -58.850  1.00  0.00    -0.040 A 
HETATM   24  C   UNL     1     -43.203  55.676 -58.107  1.00  0.00     0.010 A 
HETATM   25  C   UNL     1     -42.980  55.710 -56.727  1.00  0.00     0.018 A 
BRANCH  23  26
HETATM   26  C   UNL     1     -43.636  56.839 -60.309  1.00  0.00     0.162 C 
BRANCH  26  27
HETATM   27  N   UNL     1     -44.449  57.968 -60.688  1.00  0.00    -0.339 N 
HETATM   28  C   UNL     1     -45.807  57.869 -60.507  1.00  0.00     0.316 C 
HETATM   29  N   UNL     1     -46.458  58.956 -61.030  1.00  0.00    -0.339 N 
HETATM   30  O   UNL     1     -46.351  56.922 -59.957  1.00  0.00    -0.247 OA
HETATM   31  H   UNL     1     -45.902  59.797 -61.056  1.00  0.00     0.164 HD
HETATM   32  H   UNL     1     -44.169  58.468 -61.518  1.00  0.00     0.164 HD
BRANCH  29  33
HETATM   33  C   UNL     1     -47.905  59.136 -60.954  1.00  0.00     0.078 C 
HETATM   34  C   UNL     1     -48.317  60.115 -59.854  1.00  0.00     0.032 C 
HETATM   35  C   UNL     1     -48.512  59.522 -62.302  1.00  0.00     0.032 C 
ENDBRANCH  29  33
ENDBRANCH  26  27
ENDBRANCH  23  26
ENDBRANCH   1  20
TORSDOF 9
ENDMDL
MODEL 6
REMARK VINA RESULT:      -7.6      4.570      7.511
REMARK  9 active torsions:
REMARK  status: ('A' for Active; 'I' for Inactive)
REMARK    1  A    between atoms: C_3  and  C_4 
REMARK    2  A    between atoms: C_4  and  O_5 
REMARK    3  A    between atoms: C_8  and  C_9 
REMARK    4  A    between atoms: C_9  and  O_10 
REMARK    5  A    between atoms: O_10  and  C_11 
REMARK    6  A    between atoms: C_11  and  C_12 
REMARK    7  A    between atoms: C_15  and  C_16 
REMARK    8  A    between atoms: C_16  and  N_17 
REMARK       I    between atoms: N_17  and  C_18 
REMARK       I    between atoms: C_18  and  N_19 
REMARK    9  A    between atoms: N_19  and  C_20 
ROOT
HETATM    1  C   UNL     1     -43.254  55.951 -55.643  1.00  0.00     0.293 C 
HETATM    2  O   UNL     1     -44.085  56.423 -54.886  1.00  0.00    -0.259 OA
ENDROOT
BRANCH   1   3
HETATM    3  O   UNL     1     -42.678  54.729 -55.534  1.00  0.00    -0.311 OA
BRANCH   3   4
HETATM    4  C   UNL     1     -41.306  54.737 -55.104  1.00  0.00     0.239 C 
BRANCH   4   5
HETATM    5  C   UNL     1     -40.967  53.849 -53.929  1.00  0.00     0.076 A 
HETATM    6  C   UNL     1     -41.054  54.266 -52.604  1.00  0.00     0.073 A 
HETATM    7  C   UNL     1     -40.635  53.394 -51.575  1.00  0.00    -0.031 A 
HETATM    8  C   UNL     1     -40.639  53.838 -50.133  1.00  0.00     0.050 C 
HETATM    9  C   UNL     1     -40.217  52.079 -51.924  1.00  0.00    -0.000 A 
HETATM   10  C   UNL     1     -40.173  51.749 -53.296  1.00  0.00     0.068 A 
HETATM   11  C   UNL     1     -39.839  51.085 -50.987  1.00  0.00     0.014 A 
HETATM   12  N   UNL     1     -40.507  52.612 -54.262  1.00  0.00    -0.249 NA
HETATM   13  C   UNL     1     -39.757  50.482 -53.681  1.00  0.00     0.032 A 
HETATM   14  C   UNL     1     -39.382  49.514 -52.749  1.00  0.00     0.002 A 
HETATM   15  C   UNL     1     -39.425  49.816 -51.397  1.00  0.00     0.001 A 
BRANCH   6  16
HETATM   16  C   UNL     1     -41.524  55.633 -52.322  1.00  0.00     0.295 C 
HETATM   17  O   UNL     1     -40.808  56.619 -52.340  1.00  0.00    -0.259 OA
BRANCH  16  18
HETATM   18  O   UNL     1     -42.854  55.593 -52.063  1.00  0.00    -0.322 OA
HETATM   19  C   UNL     1     -43.297  56.617 -51.171  1.00  0.00     0.213 C 
ENDBRANCH  16  18
ENDBRANCH   6  16
ENDBRANCH   4   5
ENDBRANCH   3   4
ENDBRANCH   1   3
BRANCH   1  20
HETATM   20  C   UNL     1     -42.843  56.617 -56.912  1.00  0.00     0.039 A 
HETATM   21  C   UNL     1     -42.367  57.933 -56.839  1.00  0.00     0.018 A 
HETATM   22  C   UNL     1     -42.142  58.671 -58.005  1.00  0.00     0.010 A 
HETATM   23  C   UNL     1     -42.404  58.108 -59.262  1.00  0.00    -0.040 A 
HETATM   24  C   UNL     1     -42.814  56.768 -59.334  1.00  0.00     0.010 A 
HETATM   25  C   UNL     1     -43.034  56.027 -58.168  1.00  0.00     0.018 A 
BRANCH  23  26
HETATM   26  C   UNL     1     -42.297  58.945 -60.508  1.00  0.00     0.162 C 
BRANCH  26  27
HETATM   27  N   UNL     1     -43.530  58.981 -61.254  1.00  0.00    -0.339 N 
HETATM   28  C   UNL     1     -44.444  59.955 -60.933  1.00  0.00     0.316 C 
HETATM   29  N   UNL     1     -45.614  59.785 -61.627  1.00  0.00    -0.339 N 
HETATM   30  O   UNL     1     -44.231  60.846 -60.124  1.00  0.00    -0.247 OA
HETATM   31  H   UNL     1     -45.505  59.314 -62.513  1.00  0.00     0.164 HD
HETATM   32  H   UNL     1     -43.932  58.091 -61.504  1.00  0.00     0.164 HD
BRANCH  29  33
HETATM   33  C   UNL     1     -46.753  60.692 -61.512  1.00  0.00     0.078 C 
HETATM   34  C   UNL     1     -47.455  60.925 -62.850  1.00  0.00     0.032 C 
HETATM   35  C   UNL     1     -47.738  60.249 -60.432  1.00  0.00     0.032 C 
ENDBRANCH  29  33
ENDBRANCH  26  27
ENDBRANCH  23  26
ENDBRANCH   1  20
TORSDOF 9
ENDMDL
MODEL 7
REMARK VINA RESULT:      -7.5      1.836      2.712
REMARK  9 active torsions:
REMARK  status: ('A' for Active; 'I' for Inactive)
REMARK    1  A    between atoms: C_3  and  C_4 
REMARK    2  A    between atoms: C_4  and  O_5 
REMARK    3  A    between atoms: C_8  and  C_9 
REMARK    4  A    between atoms: C_9  and  O_10 
REMARK    5  A    between atoms: O_10  and  C_11 
REMARK    6  A    between atoms: C_11  and  C_12 
REMARK    7  A    between atoms: C_15  and  C_16 
REMARK    8  A    between atoms: C_16  and  N_17 
REMARK       I    between atoms: N_17  and  C_18 
REMARK       I    between atoms: C_18  and  N_19 
REMARK    9  A    between atoms: N_19  and  C_20 
ROOT
HETATM    1  C   UNL     1     -43.083  55.885 -56.781  1.00  0.00     0.293 C 
HETATM    2  O   UNL     1     -43.173  55.747 -57.988  1.00  0.00    -0.259 OA
ENDROOT
BRANCH   1   3
HETATM    3  O   UNL     1     -42.748  54.919 -55.890  1.00  0.00    -0.311 OA
BRANCH   3   4
HETATM    4  C   UNL     1     -41.357  54.876 -55.531  1.00  0.00     0.239 C 
BRANCH   4   5
HETATM    5  C   UNL     1     -41.006  54.061 -54.307  1.00  0.00     0.076 A 
HETATM    6  C   UNL     1     -41.048  54.569 -53.012  1.00  0.00     0.073 A 
HETATM    7  C   UNL     1     -40.621  53.759 -51.937  1.00  0.00    -0.031 A 
HETATM    8  C   UNL     1     -40.576  54.299 -50.528  1.00  0.00     0.050 C 
HETATM    9  C   UNL     1     -40.241  52.414 -52.206  1.00  0.00    -0.000 A 
HETATM   10  C   UNL     1     -40.240  51.991 -53.552  1.00  0.00     0.068 A 
HETATM   11  C   UNL     1     -39.859  51.477 -51.213  1.00  0.00     0.014 A 
HETATM   12  N   UNL     1     -40.582  52.794 -54.567  1.00  0.00    -0.249 NA
HETATM   13  C   UNL     1     -39.863  50.691 -53.860  1.00  0.00     0.032 A 
HETATM   14  C   UNL     1     -39.484  49.780 -52.874  1.00  0.00     0.002 A 
HETATM   15  C   UNL     1     -39.484  50.173 -51.546  1.00  0.00     0.001 A 
BRANCH   6  16
HETATM   16  C   UNL     1     -41.481  55.963 -52.812  1.00  0.00     0.295 C 
HETATM   17  O   UNL     1     -40.734  56.924 -52.866  1.00  0.00    -0.259 OA
BRANCH  16  18
HETATM   18  O   UNL     1     -42.816  55.977 -52.579  1.00  0.00    -0.322 OA
HETATM   19  C   UNL     1     -43.187  56.692 -51.401  1.00  0.00     0.213 C 
ENDBRANCH  16  18
ENDBRANCH   6  16
ENDBRANCH   4   5
ENDBRANCH   3   4
ENDBRANCH   1   3
BRANCH   1  20
HETATM   20  C   UNL     1     -43.197  57.208 -56.105  1.00  0.00     0.039 A 
HETATM   21  C   UNL     1     -42.177  58.145 -56.317  1.00  0.00     0.018 A 
HETATM   22  C   UNL     1     -42.133  59.326 -55.570  1.00  0.00     0.010 A 
HETATM   23  C   UNL     1     -43.101  59.581 -54.589  1.00  0.00    -0.040 A 
HETATM   24  C   UNL     1     -44.159  58.675 -54.428  1.00  0.00     0.010 A 
HETATM   25  C   UNL     1     -44.207  57.495 -55.178  1.00  0.00     0.018 A 
BRANCH  23  26
HETATM   26  C   UNL     1     -42.975  60.782 -53.690  1.00  0.00     0.162 C 
BRANCH  26  27
HETATM   27  N   UNL     1     -43.238  60.464 -52.308  1.00  0.00    -0.339 N 
HETATM   28  C   UNL     1     -44.099  61.280 -51.616  1.00  0.00     0.316 C 
HETATM   29  N   UNL     1     -44.150  60.936 -50.291  1.00  0.00    -0.339 N 
HETATM   30  O   UNL     1     -44.726  62.196 -52.129  1.00  0.00    -0.247 OA
HETATM   31  H   UNL     1     -43.942  59.967 -50.106  1.00  0.00     0.164 HD
HETATM   32  H   UNL     1     -42.460  60.117 -51.769  1.00  0.00     0.164 HD
BRANCH  29  33
HETATM   33  C   UNL     1     -45.008  61.611 -49.320  1.00  0.00     0.078 C 
HETATM   34  C   UNL     1     -45.486  60.676 -48.209  1.00  0.00     0.032 C 
HETATM   35  C   UNL     1     -44.357  62.870 -48.750  1.00  0.00     0.032 C 
ENDBRANCH  29  33
ENDBRANCH  26  27
ENDBRANCH  23  26
ENDBRANCH   1  20
TORSDOF 9
ENDMDL
MODEL 8
REMARK VINA RESULT:      -7.5      4.091      8.308
REMARK  9 active torsions:
REMARK  status: ('A' for Active; 'I' for Inactive)
REMARK    1  A    between atoms: C_3  and  C_4 
REMARK    2  A    between atoms: C_4  and  O_5 
REMARK    3  A    between atoms: C_8  and  C_9 
REMARK    4  A    between atoms: C_9  and  O_10 
REMARK    5  A    between atoms: O_10  and  C_11 
REMARK    6  A    between atoms: C_11  and  C_12 
REMARK    7  A    between atoms: C_15  and  C_16 
REMARK    8  A    between atoms: C_16  and  N_17 
REMARK       I    between atoms: N_17  and  C_18 
REMARK       I    between atoms: C_18  and  N_19 
REMARK    9  A    between atoms: N_19  and  C_20 
ROOT
HETATM    1  C   UNL     1     -42.048  60.209 -53.276  1.00  0.00     0.293 C 
HETATM    2  O   UNL     1     -42.663  61.154 -52.811  1.00  0.00    -0.259 OA
ENDROOT
BRANCH   1   3
HETATM    3  O   UNL     1     -41.466  60.162 -54.499  1.00  0.00    -0.311 OA
BRANCH   3   4
HETATM    4  C   UNL     1     -42.281  60.643 -55.582  1.00  0.00     0.239 C 
BRANCH   4   5
HETATM    5  C   UNL     1     -42.313  59.787 -56.828  1.00  0.00     0.076 A 
HETATM    6  C   UNL     1     -42.020  60.275 -58.098  1.00  0.00     0.073 A 
HETATM    7  C   UNL     1     -42.159  59.422 -59.216  1.00  0.00    -0.031 A 
HETATM    8  C   UNL     1     -41.928  59.934 -60.616  1.00  0.00     0.050 C 
HETATM    9  C   UNL     1     -42.513  58.061 -58.994  1.00  0.00    -0.000 A 
HETATM   10  C   UNL     1     -42.781  57.662 -57.667  1.00  0.00     0.068 A 
HETATM   11  C   UNL     1     -42.618  57.086 -60.017  1.00  0.00     0.014 A 
HETATM   12  N   UNL     1     -42.712  58.502 -56.628  1.00  0.00    -0.249 NA
HETATM   13  C   UNL     1     -43.143  56.347 -57.409  1.00  0.00     0.032 A 
HETATM   14  C   UNL     1     -43.249  55.398 -58.426  1.00  0.00     0.002 A 
HETATM   15  C   UNL     1     -42.984  55.768 -59.735  1.00  0.00     0.001 A 
BRANCH   6  16
HETATM   16  C   UNL     1     -41.632  61.689 -58.242  1.00  0.00     0.295 C 
HETATM   17  O   UNL     1     -42.426  62.606 -58.347  1.00  0.00    -0.259 OA
BRANCH  16  18
HETATM   18  O   UNL     1     -40.280  61.775 -58.222  1.00  0.00    -0.322 OA
HETATM   19  C   UNL     1     -39.747  62.670 -59.199  1.00  0.00     0.213 C 
ENDBRANCH  16  18
ENDBRANCH   6  16
ENDBRANCH   4   5
ENDBRANCH   3   4
ENDBRANCH   1   3
BRANCH   1  20
HETATM   20  C   UNL     1     -41.722  58.987 -52.489  1.00  0.00     0.039 A 
HETATM   21  C   UNL     1     -42.625  57.916 -52.534  1.00  0.00     0.018 A 
HETATM   22  C   UNL     1     -42.470  56.822 -51.677  1.00  0.00     0.010 A 
HETATM   23  C   UNL     1     -41.417  56.789 -50.753  1.00  0.00    -0.040 A 
HETATM   24  C   UNL     1     -40.476  57.829 -50.758  1.00  0.00     0.010 A 
HETATM   25  C   UNL     1     -40.627  58.922 -51.618  1.00  0.00     0.018 A 
BRANCH  23  26
HETATM   26  C   UNL     1     -41.330  55.681 -49.737  1.00  0.00     0.162 C 
BRANCH  26  27
HETATM   27  N   UNL     1     -40.369  54.672 -50.107  1.00  0.00    -0.339 N 
HETATM   28  C   UNL     1     -40.822  53.582 -50.809  1.00  0.00     0.316 C 
HETATM   29  N   UNL     1     -39.830  52.651 -50.973  1.00  0.00    -0.339 N 
HETATM   30  O   UNL     1     -41.968  53.467 -51.219  1.00  0.00    -0.247 OA
HETATM   31  H   UNL     1     -38.898  53.035 -50.973  1.00  0.00     0.164 HD
HETATM   32  H   UNL     1     -39.646  54.470 -49.434  1.00  0.00     0.164 HD
BRANCH  29  33
HETATM   33  C   UNL     1     -40.016  51.403 -51.710  1.00  0.00     0.078 C 
HETATM   34  C   UNL     1     -39.414  51.456 -53.115  1.00  0.00     0.032 C 
HETATM   35  C   UNL     1     -39.512  50.191 -50.931  1.00  0.00     0.032 C 
ENDBRANCH  29  33
ENDBRANCH  26  27
ENDBRANCH  23  26
ENDBRANCH   1  20
TORSDOF 9
ENDMDL
MODEL 9
REMARK VINA RESULT:      -7.3      4.188      8.960
REMARK  9 active torsions:
REMARK  status: ('A' for Active; 'I' for Inactive)
REMARK    1  A    between atoms: C_3  and  C_4 
REMARK    2  A    between atoms: C_4  and  O_5 
REMARK    3  A    between atoms: C_8  and  C_9 
REMARK    4  A    between atoms: C_9  and  O_10 
REMARK    5  A    between atoms: O_10  and  C_11 
REMARK    6  A    between atoms: C_11  and  C_12 
REMARK    7  A    between atoms: C_15  and  C_16 
REMARK    8  A    between atoms: C_16  and  N_17 
REMARK       I    between atoms: N_17  and  C_18 
REMARK       I    between atoms: C_18  and  N_19 
REMARK    9  A    between atoms: N_19  and  C_20 
ROOT
HETATM    1  C   UNL     1     -41.858  59.641 -53.526  1.00  0.00     0.293 C 
HETATM    2  O   UNL     1     -42.004  60.844 -53.394  1.00  0.00    -0.259 OA
ENDROOT
BRANCH   1   3
HETATM    3  O   UNL     1     -41.563  58.996 -54.681  1.00  0.00    -0.311 OA
BRANCH   3   4
HETATM    4  C   UNL     1     -42.650  58.888 -55.616  1.00  0.00     0.239 C 
BRANCH   4   5
HETATM    5  C   UNL     1     -42.401  59.439 -57.001  1.00  0.00     0.076 A 
HETATM    6  C   UNL     1     -42.842  58.813 -58.163  1.00  0.00     0.073 A 
HETATM    7  C   UNL     1     -42.489  59.356 -59.418  1.00  0.00    -0.031 A 
HETATM    8  C   UNL     1     -42.881  58.665 -60.701  1.00  0.00     0.050 C 
HETATM    9  C   UNL     1     -41.762  60.580 -59.451  1.00  0.00    -0.000 A 
HETATM   10  C   UNL     1     -41.368  61.141 -58.217  1.00  0.00     0.068 A 
HETATM   11  C   UNL     1     -41.405  61.266 -60.639  1.00  0.00     0.014 A 
HETATM   12  N   UNL     1     -41.653  60.574 -57.038  1.00  0.00    -0.249 NA
HETATM   13  C   UNL     1     -40.646  62.325 -58.204  1.00  0.00     0.032 A 
HETATM   14  C   UNL     1     -40.296  62.988 -59.380  1.00  0.00     0.002 A 
HETATM   15  C   UNL     1     -40.678  62.458 -60.602  1.00  0.00     0.001 A 
BRANCH   6  16
HETATM   16  C   UNL     1     -43.616  57.565 -58.045  1.00  0.00     0.295 C 
HETATM   17  O   UNL     1     -44.825  57.522 -57.905  1.00  0.00    -0.259 OA
BRANCH  16  18
HETATM   18  O   UNL     1     -42.764  56.514 -58.132  1.00  0.00    -0.322 OA
HETATM   19  C   UNL     1     -42.977  55.517 -57.132  1.00  0.00     0.213 C 
ENDBRANCH  16  18
ENDBRANCH   6  16
ENDBRANCH   4   5
ENDBRANCH   3   4
ENDBRANCH   1   3
BRANCH   1  20
HETATM   20  C   UNL     1     -41.849  58.694 -52.376  1.00  0.00     0.039 A 
HETATM   21  C   UNL     1     -40.733  58.700 -51.529  1.00  0.00     0.018 A 
HETATM   22  C   UNL     1     -40.582  57.714 -50.549  1.00  0.00     0.010 A 
HETATM   23  C   UNL     1     -41.538  56.700 -50.410  1.00  0.00    -0.040 A 
HETATM   24  C   UNL     1     -42.689  56.737 -51.212  1.00  0.00     0.010 A 
HETATM   25  C   UNL     1     -42.843  57.725 -52.190  1.00  0.00     0.018 A 
BRANCH  23  26
HETATM   26  C   UNL     1     -41.308  55.562 -49.452  1.00  0.00     0.162 C 
BRANCH  26  27
HETATM   27  N   UNL     1     -41.441  54.274 -50.086  1.00  0.00    -0.339 N 
HETATM   28  C   UNL     1     -40.290  53.600 -50.417  1.00  0.00     0.316 C 
HETATM   29  N   UNL     1     -40.569  52.462 -51.127  1.00  0.00    -0.339 N 
HETATM   30  O   UNL     1     -39.170  53.985 -50.117  1.00  0.00    -0.247 OA
HETATM   31  H   UNL     1     -41.478  52.067 -50.936  1.00  0.00     0.164 HD
HETATM   32  H   UNL     1     -42.194  54.174 -50.749  1.00  0.00     0.164 HD
BRANCH  29  33
HETATM   33  C   UNL     1     -39.541  51.530 -51.583  1.00  0.00     0.078 C 
HETATM   34  C   UNL     1     -39.680  50.146 -50.950  1.00  0.00     0.032 C 
HETATM   35  C   UNL     1     -39.474  51.444 -53.106  1.00  0.00     0.032 C 
ENDBRANCH  29  33
ENDBRANCH  26  27
ENDBRANCH  23  26
ENDBRANCH   1  20
TORSDOF 9
ENDMDL
MODEL 10
REMARK VINA RESULT:      -7.3      4.722      6.164
REMARK  9 active torsions:
REMARK  status: ('A' for Active; 'I' for Inactive)
REMARK    1  A    between atoms: C_3  and  C_4 
REMARK    2  A    between atoms: C_4  and  O_5 
REMARK    3  A    between atoms: C_8  and  C_9 
REMARK    4  A    between atoms: C_9  and  O_10 
REMARK    5  A    between atoms: O_10  and  C_11 
REMARK    6  A    between atoms: C_11  and  C_12 
REMARK    7  A    between atoms: C_15  and  C_16 
REMARK    8  A    between atoms: C_16  and  N_17 
REMARK       I    between atoms: N_17  and  C_18 
REMARK       I    between atoms: C_18  and  N_19 
REMARK    9  A    between atoms: N_19  and  C_20 
ROOT
HETATM    1  C   UNL     1     -43.275  56.722 -57.015  1.00  0.00     0.293 C 
HETATM    2  O   UNL     1     -42.749  55.960 -57.809  1.00  0.00    -0.259 OA
ENDROOT
BRANCH   1   3
HETATM    3  O   UNL     1     -42.941  56.868 -55.710  1.00  0.00    -0.311 OA
BRANCH   3   4
HETATM    4  C   UNL     1     -43.562  55.931 -54.813  1.00  0.00     0.239 C 
BRANCH   4   5
HETATM    5  C   UNL     1     -42.635  55.162 -53.900  1.00  0.00     0.076 A 
HETATM    6  C   UNL     1     -42.299  55.586 -52.617  1.00  0.00     0.073 A 
HETATM    7  C   UNL     1     -41.358  54.847 -51.868  1.00  0.00    -0.031 A 
HETATM    8  C   UNL     1     -40.909  55.316 -50.506  1.00  0.00     0.050 C 
HETATM    9  C   UNL     1     -40.846  53.638 -52.419  1.00  0.00    -0.000 A 
HETATM   10  C   UNL     1     -41.255  53.290 -53.724  1.00  0.00     0.068 A 
HETATM   11  C   UNL     1     -39.952  52.769 -51.747  1.00  0.00     0.014 A 
HETATM   12  N   UNL     1     -42.095  54.040 -54.448  1.00  0.00    -0.249 NA
HETATM   13  C   UNL     1     -40.768  52.127 -54.305  1.00  0.00     0.032 A 
HETATM   14  C   UNL     1     -39.884  51.282 -53.635  1.00  0.00     0.002 A 
HETATM   15  C   UNL     1     -39.475  51.602 -52.350  1.00  0.00     0.001 A 
BRANCH   6  16
HETATM   16  C   UNL     1     -42.895  56.833 -52.106  1.00  0.00     0.295 C 
HETATM   17  O   UNL     1     -42.406  57.938 -52.265  1.00  0.00    -0.259 OA
BRANCH  16  18
HETATM   18  O   UNL     1     -44.049  56.534 -51.461  1.00  0.00    -0.322 OA
HETATM   19  C   UNL     1     -44.933  57.646 -51.320  1.00  0.00     0.213 C 
ENDBRANCH  16  18
ENDBRANCH   6  16
ENDBRANCH   4   5
ENDBRANCH   3   4
ENDBRANCH   1   3
BRANCH   1  20
HETATM   20  C   UNL     1     -44.298  57.729 -57.414  1.00  0.00     0.039 A 
HETATM   21  C   UNL     1     -44.304  58.960 -56.745  1.00  0.00     0.018 A 
HETATM   22  C   UNL     1     -45.348  59.869 -56.942  1.00  0.00     0.010 A 
HETATM   23  C   UNL     1     -46.409  59.554 -57.802  1.00  0.00    -0.040 A 
HETATM   24  C   UNL     1     -46.364  58.352 -58.524  1.00  0.00     0.010 A 
HETATM   25  C   UNL     1     -45.318  57.444 -58.331  1.00  0.00     0.018 A 
BRANCH  23  26
HETATM   26  C   UNL     1     -47.601  60.469 -57.908  1.00  0.00     0.162 C 
BRANCH  26  27
HETATM   27  N   UNL     1     -48.795  59.880 -57.356  1.00  0.00    -0.339 N 
HETATM   28  C   UNL     1     -49.897  60.687 -57.209  1.00  0.00     0.316 C 
HETATM   29  N   UNL     1     -50.907  60.032 -56.554  1.00  0.00    -0.339 N 
HETATM   30  O   UNL     1     -49.951  61.841 -57.608  1.00  0.00    -0.247 OA
HETATM   31  H   UNL     1     -50.892  59.030 -56.667  1.00  0.00     0.164 HD
HETATM   32  H   UNL     1     -48.666  59.204 -56.619  1.00  0.00     0.164 HD
BRANCH  29  33
HETATM   33  C   UNL     1     -52.211  60.633 -56.287  1.00  0.00     0.078 C 
HETATM   34  C   UNL     1     -53.370  59.754 -56.756  1.00  0.00     0.032 C 
HETATM   35  C   UNL     1     -52.373  61.037 -54.823  1.00  0.00     0.032 C 
ENDBRANCH  29  33
ENDBRANCH  26  27
ENDBRANCH  23  26
ENDBRANCH   1  20
TORSDOF 9
ENDMDL
