MODEL 1
REMARK VINA RESULT:      -7.2      0.000      0.000
REMARK  5 active torsions:
REMARK  status: ('A' for Active; 'I' for Inactive)
REMARK    1  A    between atoms: C_2  and  O_3 
REMARK    2  A    between atoms: O_3  and  C_4 
REMARK    3  A    between atoms: C_6  and  C_7 
REMARK    4  A    between atoms: C_7  and  N_8 
REMARK       I    between atoms: N_8  and  C_9 
REMARK       I    between atoms: C_9  and  N_10 
REMARK    5  A    between atoms: N_10  and  C_11 
ROOT
HETATM    1  N   UNL     1     -41.981  55.965 -53.817  1.00  0.00    -0.335 N 
HETATM    2  C   UNL     1     -42.538  57.060 -53.231  1.00  0.00     0.321 C 
HETATM    3  N   UNL     1     -43.895  57.050 -53.095  1.00  0.00    -0.307 N 
HETATM    4  O   UNL     1     -41.786  57.977 -52.912  1.00  0.00    -0.247 OA
HETATM    5  H   UNL     1     -40.974  56.068 -53.846  1.00  0.00     0.165 HD
HETATM    6  H   UNL     1     -44.384  56.381 -53.661  1.00  0.00     0.170 HD
ENDROOT
BRANCH   1   7
HETATM    7  C   UNL     1     -42.489  54.602 -53.933  1.00  0.00     0.115 C 
HETATM    8  C   UNL     1     -42.800  54.289 -55.397  1.00  0.00     0.037 C 
BRANCH   7   9
HETATM    9  C   UNL     1     -41.510  53.585 -53.372  1.00  0.00    -0.033 A 
HETATM   10  C   UNL     1     -41.146  53.579 -52.013  1.00  0.00     0.046 A 
HETATM   11  C   UNL     1     -40.214  52.665 -51.510  1.00  0.00     0.069 A 
HETATM   12  C   UNL     1     -39.622  51.748 -52.374  1.00  0.00     0.037 A 
HETATM   13  C   UNL     1     -39.966  51.742 -53.728  1.00  0.00     0.003 A 
HETATM   14  C   UNL     1     -40.902  52.652 -54.224  1.00  0.00     0.009 A 
BRANCH  11  15
HETATM   15  O   UNL     1     -39.971  52.784 -50.170  1.00  0.00    -0.352 OA
BRANCH  15  16
HETATM   16  C   UNL     1     -39.821  54.104 -49.650  1.00  0.00     0.171 C 
HETATM   17  C   UNL     1     -40.502  54.152 -48.294  1.00  0.00     0.034 C 
ENDBRANCH  15  16
ENDBRANCH  11  15
ENDBRANCH   7   9
ENDBRANCH   1   7
BRANCH   3  18
HETATM   18  C   UNL     1     -44.688  58.039 -52.461  1.00  0.00     0.059 A 
HETATM   19  C   UNL     1     -45.103  59.168 -53.193  1.00  0.00    -0.032 A 
HETATM   20  C   UNL     1     -44.726  59.384 -54.632  1.00  0.00     0.050 C 
HETATM   21  C   UNL     1     -45.890  60.136 -52.553  1.00  0.00     0.028 A 
HETATM   22  C   UNL     1     -46.243  59.952 -51.227  1.00  0.00     0.117 A 
HETATM   23  N   UNL     1     -45.873  58.881 -50.502  1.00  0.00    -0.271 NA
HETATM   24  C   UNL     1     -45.107  57.954 -51.132  1.00  0.00     0.146 A 
ENDBRANCH   3  18
TORSDOF 5
ENDMDL
MODEL 2
REMARK VINA RESULT:      -7.0      1.990      3.392
REMARK  5 active torsions:
REMARK  status: ('A' for Active; 'I' for Inactive)
REMARK    1  A    between atoms: C_2  and  O_3 
REMARK    2  A    between atoms: O_3  and  C_4 
REMARK    3  A    between atoms: C_6  and  C_7 
REMARK    4  A    between atoms: C_7  and  N_8 
REMARK       I    between atoms: N_8  and  C_9 
REMARK       I    between atoms: C_9  and  N_10 
REMARK    5  A    between atoms: N_10  and  C_11 
ROOT
HETATM    1  N   UNL     1     -42.659  55.514 -50.466  1.00  0.00    -0.335 N 
HETATM    2  C   UNL     1     -43.751  56.285 -50.721  1.00  0.00     0.321 C 
HETATM    3  N   UNL     1     -43.511  57.591 -51.034  1.00  0.00    -0.307 N 
HETATM    4  O   UNL     1     -44.855  55.759 -50.610  1.00  0.00    -0.247 OA
HETATM    5  H   UNL     1     -42.950  54.564 -50.269  1.00  0.00     0.165 HD
HETATM    6  H   UNL     1     -42.598  57.934 -50.796  1.00  0.00     0.170 HD
ENDROOT
BRANCH   1   7
HETATM    7  C   UNL     1     -41.271  55.684 -50.883  1.00  0.00     0.115 C 
HETATM    8  C   UNL     1     -40.338  55.084 -49.831  1.00  0.00     0.037 C 
BRANCH   7   9
HETATM    9  C   UNL     1     -41.008  55.059 -52.241  1.00  0.00    -0.033 A 
HETATM   10  C   UNL     1     -40.529  53.742 -52.369  1.00  0.00     0.046 A 
HETATM   11  C   UNL     1     -40.251  53.185 -53.622  1.00  0.00     0.069 A 
HETATM   12  C   UNL     1     -40.437  53.953 -54.769  1.00  0.00     0.037 A 
HETATM   13  C   UNL     1     -40.905  55.265 -54.661  1.00  0.00     0.003 A 
HETATM   14  C   UNL     1     -41.189  55.814 -53.409  1.00  0.00     0.009 A 
BRANCH  11  15
HETATM   15  O   UNL     1     -39.798  51.895 -53.580  1.00  0.00    -0.352 OA
BRANCH  15  16
HETATM   16  C   UNL     1     -40.513  50.929 -54.349  1.00  0.00     0.171 C 
HETATM   17  C   UNL     1     -39.636  49.696 -54.481  1.00  0.00     0.034 C 
ENDBRANCH  15  16
ENDBRANCH  11  15
ENDBRANCH   7   9
ENDBRANCH   1   7
BRANCH   3  18
HETATM   18  C   UNL     1     -44.474  58.563 -51.400  1.00  0.00     0.059 A 
HETATM   19  C   UNL     1     -44.577  58.963 -52.747  1.00  0.00    -0.032 A 
HETATM   20  C   UNL     1     -43.689  58.410 -53.826  1.00  0.00     0.050 C 
HETATM   21  C   UNL     1     -45.538  59.924 -53.094  1.00  0.00     0.028 A 
HETATM   22  C   UNL     1     -46.361  60.445 -52.110  1.00  0.00     0.117 A 
HETATM   23  N   UNL     1     -46.296  60.078 -50.818  1.00  0.00    -0.271 NA
HETATM   24  C   UNL     1     -45.359  59.151 -50.493  1.00  0.00     0.146 A 
ENDBRANCH   3  18
TORSDOF 5
ENDMDL
MODEL 3
REMARK VINA RESULT:      -7.0      3.493      4.788
REMARK  5 active torsions:
REMARK  status: ('A' for Active; 'I' for Inactive)
REMARK    1  A    between atoms: C_2  and  O_3 
REMARK    2  A    between atoms: O_3  and  C_4 
REMARK    3  A    between atoms: C_6  and  C_7 
REMARK    4  A    between atoms: C_7  and  N_8 
REMARK       I    between atoms: N_8  and  C_9 
REMARK       I    between atoms: C_9  and  N_10 
REMARK    5  A    between atoms: N_10  and  C_11 
ROOT
HETATM    1  N   UNL     1     -42.275  54.542 -55.097  1.00  0.00    -0.335 N 
HETATM    2  C   UNL     1     -42.752  54.992 -56.290  1.00  0.00     0.321 C 
HETATM    3  N   UNL     1     -42.193  56.140 -56.772  1.00  0.00    -0.307 N 
HETATM    4  O   UNL     1     -43.665  54.359 -56.811  1.00  0.00    -0.247 OA
HETATM    5  H   UNL     1     -42.741  53.678 -54.847  1.00  0.00     0.165 HD
HETATM    6  H   UNL     1     -41.683  56.689 -56.103  1.00  0.00     0.170 HD
ENDROOT
BRANCH   1   7
HETATM    7  C   UNL     1     -40.994  54.791 -54.443  1.00  0.00     0.115 C 
HETATM    8  C   UNL     1     -41.096  56.038 -53.564  1.00  0.00     0.037 C 
BRANCH   7   9
HETATM    9  C   UNL     1     -40.539  53.599 -53.619  1.00  0.00    -0.033 A 
HETATM   10  C   UNL     1     -40.557  53.621 -52.213  1.00  0.00     0.046 A 
HETATM   11  C   UNL     1     -40.099  52.535 -51.460  1.00  0.00     0.069 A 
HETATM   12  C   UNL     1     -39.600  51.411 -52.114  1.00  0.00     0.037 A 
HETATM   13  C   UNL     1     -39.567  51.374 -53.510  1.00  0.00     0.003 A 
HETATM   14  C   UNL     1     -40.033  52.458 -54.257  1.00  0.00     0.009 A 
BRANCH  11  15
HETATM   15  O   UNL     1     -40.188  52.707 -50.106  1.00  0.00    -0.352 OA
BRANCH  15  16
HETATM   16  C   UNL     1     -40.429  54.031 -49.632  1.00  0.00     0.171 C 
HETATM   17  C   UNL     1     -40.286  54.020 -48.121  1.00  0.00     0.034 C 
ENDBRANCH  15  16
ENDBRANCH  11  15
ENDBRANCH   7   9
ENDBRANCH   1   7
BRANCH   3  18
HETATM   18  C   UNL     1     -42.475  56.760 -58.013  1.00  0.00     0.059 A 
HETATM   19  C   UNL     1     -42.522  58.166 -58.090  1.00  0.00    -0.032 A 
HETATM   20  C   UNL     1     -42.299  59.051 -56.896  1.00  0.00     0.050 C 
HETATM   21  C   UNL     1     -42.800  58.765 -59.328  1.00  0.00     0.028 A 
HETATM   22  C   UNL     1     -43.010  57.963 -60.437  1.00  0.00     0.117 A 
HETATM   23  N   UNL     1     -42.962  56.619 -60.400  1.00  0.00    -0.271 NA
HETATM   24  C   UNL     1     -42.698  56.050 -59.195  1.00  0.00     0.146 A 
ENDBRANCH   3  18
TORSDOF 5
ENDMDL
MODEL 4
REMARK VINA RESULT:      -6.9      2.396      3.863
REMARK  5 active torsions:
REMARK  status: ('A' for Active; 'I' for Inactive)
REMARK    1  A    between atoms: C_2  and  O_3 
REMARK    2  A    between atoms: O_3  and  C_4 
REMARK    3  A    between atoms: C_6  and  C_7 
REMARK    4  A    between atoms: C_7  and  N_8 
REMARK       I    between atoms: N_8  and  C_9 
REMARK       I    between atoms: C_9  and  N_10 
REMARK    5  A    between atoms: N_10  and  C_11 
ROOT
HETATM    1  N   UNL     1     -42.288  55.337 -50.272  1.00  0.00    -0.335 N 
HETATM    2  C   UNL     1     -42.849  56.456 -50.808  1.00  0.00     0.321 C 
HETATM    3  N   UNL     1     -42.035  57.544 -50.931  1.00  0.00    -0.307 N 
HETATM    4  O   UNL     1     -44.042  56.410 -51.097  1.00  0.00    -0.247 OA
HETATM    5  H   UNL     1     -42.972  54.590 -50.249  1.00  0.00     0.165 HD
HETATM    6  H   UNL     1     -41.191  57.518 -50.388  1.00  0.00     0.170 HD
ENDROOT
BRANCH   1   7
HETATM    7  C   UNL     1     -40.889  54.928 -50.207  1.00  0.00     0.115 C 
HETATM    8  C   UNL     1     -40.591  54.324 -48.835  1.00  0.00     0.037 C 
BRANCH   7   9
HETATM    9  C   UNL     1     -40.537  53.940 -51.306  1.00  0.00    -0.033 A 
HETATM   10  C   UNL     1     -40.785  54.223 -52.662  1.00  0.00     0.046 A 
HETATM   11  C   UNL     1     -40.496  53.293 -53.667  1.00  0.00     0.069 A 
HETATM   12  C   UNL     1     -39.963  52.054 -53.319  1.00  0.00     0.037 A 
HETATM   13  C   UNL     1     -39.716  51.753 -51.977  1.00  0.00     0.003 A 
HETATM   14  C   UNL     1     -40.000  52.688 -50.979  1.00  0.00     0.009 A 
BRANCH  11  15
HETATM   15  O   UNL     1     -40.788  53.718 -54.933  1.00  0.00    -0.352 OA
BRANCH  15  16
HETATM   16  C   UNL     1     -41.615  54.874 -55.057  1.00  0.00     0.171 C 
HETATM   17  C   UNL     1     -42.929  54.444 -55.684  1.00  0.00     0.034 C 
ENDBRANCH  15  16
ENDBRANCH  11  15
ENDBRANCH   7   9
ENDBRANCH   1   7
BRANCH   3  18
HETATM   18  C   UNL     1     -42.370  58.789 -51.516  1.00  0.00     0.059 A 
HETATM   19  C   UNL     1     -41.824  59.137 -52.766  1.00  0.00    -0.032 A 
HETATM   20  C   UNL     1     -40.877  58.241 -53.514  1.00  0.00     0.050 C 
HETATM   21  C   UNL     1     -42.169  60.372 -53.334  1.00  0.00     0.028 A 
HETATM   22  C   UNL     1     -43.039  61.209 -52.656  1.00  0.00     0.117 A 
HETATM   23  N   UNL     1     -43.586  60.904 -51.466  1.00  0.00    -0.271 NA
HETATM   24  C   UNL     1     -43.241  59.708 -50.925  1.00  0.00     0.146 A 
ENDBRANCH   3  18
TORSDOF 5
ENDMDL
MODEL 5
REMARK VINA RESULT:      -6.9      1.894      2.343
REMARK  5 active torsions:
REMARK  status: ('A' for Active; 'I' for Inactive)
REMARK    1  A    between atoms: C_2  and  O_3 
REMARK    2  A    between atoms: O_3  and  C_4 
REMARK    3  A    between atoms: C_6  and  C_7 
REMARK    4  A    between atoms: C_7  and  N_8 
REMARK       I    between atoms: N_8  and  C_9 
REMARK       I    between atoms: C_9  and  N_10 
REMARK    5  A    between atoms: N_10  and  C_11 
ROOT
HETATM    1  N   UNL     1     -41.882  56.030 -54.364  1.00  0.00    -0.335 N 
HETATM    2  C   UNL     1     -41.712  57.252 -53.789  1.00  0.00     0.321 C 
HETATM    3  N   UNL     1     -42.624  57.605 -52.838  1.00  0.00    -0.307 N 
HETATM    4  O   UNL     1     -40.786  57.947 -54.196  1.00  0.00    -0.247 OA
HETATM    5  H   UNL     1     -41.141  55.862 -55.034  1.00  0.00     0.165 HD
HETATM    6  H   UNL     1     -43.474  57.070 -52.830  1.00  0.00     0.170 HD
ENDROOT
BRANCH   1   7
HETATM    7  C   UNL     1     -42.575  54.846 -53.867  1.00  0.00     0.115 C 
HETATM    8  C   UNL     1     -43.466  54.269 -54.968  1.00  0.00     0.037 C 
BRANCH   7   9
HETATM    9  C   UNL     1     -41.604  53.791 -53.366  1.00  0.00    -0.033 A 
HETATM   10  C   UNL     1     -41.184  53.750 -52.025  1.00  0.00     0.046 A 
HETATM   11  C   UNL     1     -40.259  52.800 -51.578  1.00  0.00     0.069 A 
HETATM   12  C   UNL     1     -39.730  51.882 -52.482  1.00  0.00     0.037 A 
HETATM   13  C   UNL     1     -40.131  51.912 -53.820  1.00  0.00     0.003 A 
HETATM   14  C   UNL     1     -41.060  52.857 -54.259  1.00  0.00     0.009 A 
BRANCH  11  15
HETATM   15  O   UNL     1     -39.956  52.887 -50.247  1.00  0.00    -0.352 OA
BRANCH  15  16
HETATM   16  C   UNL     1     -39.814  54.194 -49.695  1.00  0.00     0.171 C 
HETATM   17  C   UNL     1     -40.531  54.217 -48.357  1.00  0.00     0.034 C 
ENDBRANCH  15  16
ENDBRANCH  11  15
ENDBRANCH   7   9
ENDBRANCH   1   7
BRANCH   3  18
HETATM   18  C   UNL     1     -42.617  58.788 -52.058  1.00  0.00     0.059 A 
HETATM   19  C   UNL     1     -41.778  58.869 -50.930  1.00  0.00    -0.032 A 
HETATM   20  C   UNL     1     -40.887  57.737 -50.501  1.00  0.00     0.050 C 
HETATM   21  C   UNL     1     -41.779  60.048 -50.170  1.00  0.00     0.028 A 
HETATM   22  C   UNL     1     -42.596  61.098 -50.553  1.00  0.00     0.117 A 
HETATM   23  N   UNL     1     -43.402  61.058 -51.629  1.00  0.00    -0.271 NA
HETATM   24  C   UNL     1     -43.395  59.909 -52.354  1.00  0.00     0.146 A 
ENDBRANCH   3  18
TORSDOF 5
ENDMDL
MODEL 6
REMARK VINA RESULT:      -6.8      3.294      5.367
REMARK  5 active torsions:
REMARK  status: ('A' for Active; 'I' for Inactive)
REMARK    1  A    between atoms: C_2  and  O_3 
REMARK    2  A    between atoms: O_3  and  C_4 
REMARK    3  A    between atoms: C_6  and  C_7 
REMARK    4  A    between atoms: C_7  and  N_8 
REMARK       I    between atoms: N_8  and  C_9 
REMARK       I    between atoms: C_9  and  N_10 
REMARK    5  A    between atoms: N_10  and  C_11 
ROOT
HETATM    1  N   UNL     1     -42.519  57.455 -54.220  1.00  0.00    -0.335 N 
HETATM    2  C   UNL     1     -43.180  57.276 -55.396  1.00  0.00     0.321 C 
HETATM    3  N   UNL     1     -42.409  57.205 -56.520  1.00  0.00    -0.307 N 
HETATM    4  O   UNL     1     -44.406  57.233 -55.357  1.00  0.00    -0.247 OA
HETATM    5  H   UNL     1     -43.182  57.471 -53.454  1.00  0.00     0.165 HD
HETATM    6  H   UNL     1     -41.470  57.548 -56.425  1.00  0.00     0.170 HD
ENDROOT
BRANCH   1   7
HETATM    7  C   UNL     1     -41.137  57.151 -53.863  1.00  0.00     0.115 C 
HETATM    8  C   UNL     1     -40.593  58.236 -52.933  1.00  0.00     0.037 C 
BRANCH   7   9
HETATM    9  C   UNL     1     -41.008  55.785 -53.214  1.00  0.00    -0.033 A 
HETATM   10  C   UNL     1     -40.618  54.650 -53.949  1.00  0.00     0.046 A 
HETATM   11  C   UNL     1     -40.540  53.386 -53.354  1.00  0.00     0.069 A 
HETATM   12  C   UNL     1     -40.868  53.243 -52.008  1.00  0.00     0.037 A 
HETATM   13  C   UNL     1     -41.263  54.357 -51.264  1.00  0.00     0.003 A 
HETATM   14  C   UNL     1     -41.333  55.617 -51.861  1.00  0.00     0.009 A 
BRANCH  11  15
HETATM   15  O   UNL     1     -40.141  52.387 -54.198  1.00  0.00    -0.352 OA
BRANCH  15  16
HETATM   16  C   UNL     1     -39.491  51.260 -53.613  1.00  0.00     0.171 C 
HETATM   17  C   UNL     1     -39.844  50.036 -54.439  1.00  0.00     0.034 C 
ENDBRANCH  15  16
ENDBRANCH  11  15
ENDBRANCH   7   9
ENDBRANCH   1   7
BRANCH   3  18
HETATM   18  C   UNL     1     -42.860  56.957 -57.840  1.00  0.00     0.059 A 
HETATM   19  C   UNL     1     -42.829  57.997 -58.789  1.00  0.00    -0.032 A 
HETATM   20  C   UNL     1     -42.346  59.381 -58.458  1.00  0.00     0.050 C 
HETATM   21  C   UNL     1     -43.276  57.734 -60.093  1.00  0.00     0.028 A 
HETATM   22  C   UNL     1     -43.725  56.464 -60.411  1.00  0.00     0.117 A 
HETATM   23  N   UNL     1     -43.759  55.447 -59.532  1.00  0.00    -0.271 NA
HETATM   24  C   UNL     1     -43.328  55.714 -58.272  1.00  0.00     0.146 A 
ENDBRANCH   3  18
TORSDOF 5
ENDMDL
MODEL 7
REMARK VINA RESULT:      -6.7      2.175      3.314
REMARK  5 active torsions:
REMARK  status: ('A' for Active; 'I' for Inactive)
REMARK    1  A    between atoms: C_2  and  O_3 
REMARK    2  A    between atoms: O_3  and  C_4 
REMARK    3  A    between atoms: C_6  and  C_7 
REMARK    4  A    between atoms: C_7  and  N_8 
REMARK       I    between atoms: N_8  and  C_9 
REMARK       I    between atoms: C_9  and  N_10 
REMARK    5  A    between atoms: N_10  and  C_11 
ROOT
HETATM    1  N   UNL     1     -42.334  56.237 -54.601  1.00  0.00    -0.335 N 
HETATM    2  C   UNL     1     -42.100  57.434 -53.997  1.00  0.00     0.321 C 
HETATM    3  N   UNL     1     -42.857  57.715 -52.897  1.00  0.00    -0.307 N 
HETATM    4  O   UNL     1     -41.266  58.175 -54.509  1.00  0.00    -0.247 OA
HETATM    5  H   UNL     1     -41.706  56.123 -55.388  1.00  0.00     0.165 HD
HETATM    6  H   UNL     1     -43.682  57.156 -52.782  1.00  0.00     0.170 HD
ENDROOT
BRANCH   1   7
HETATM    7  C   UNL     1     -42.915  55.011 -54.064  1.00  0.00     0.115 C 
HETATM    8  C   UNL     1     -43.440  54.143 -55.207  1.00  0.00     0.037 C 
BRANCH   7   9
HETATM    9  C   UNL     1     -41.915  54.233 -53.225  1.00  0.00    -0.033 A 
HETATM   10  C   UNL     1     -41.027  53.308 -53.802  1.00  0.00     0.046 A 
HETATM   11  C   UNL     1     -40.136  52.565 -53.020  1.00  0.00     0.069 A 
HETATM   12  C   UNL     1     -40.136  52.732 -51.638  1.00  0.00     0.037 A 
HETATM   13  C   UNL     1     -41.017  53.641 -51.046  1.00  0.00     0.003 A 
HETATM   14  C   UNL     1     -41.899  54.386 -51.832  1.00  0.00     0.009 A 
BRANCH  11  15
HETATM   15  O   UNL     1     -39.334  51.713 -53.729  1.00  0.00    -0.352 OA
BRANCH  15  16
HETATM   16  C   UNL     1     -39.912  50.483 -54.162  1.00  0.00     0.171 C 
HETATM   17  C   UNL     1     -39.612  49.430 -53.111  1.00  0.00     0.034 C 
ENDBRANCH  15  16
ENDBRANCH  11  15
ENDBRANCH   7   9
ENDBRANCH   1   7
BRANCH   3  18
HETATM   18  C   UNL     1     -42.750  58.859 -52.068  1.00  0.00     0.059 A 
HETATM   19  C   UNL     1     -41.788  58.881 -51.039  1.00  0.00    -0.032 A 
HETATM   20  C   UNL     1     -40.866  57.726 -50.767  1.00  0.00     0.050 C 
HETATM   21  C   UNL     1     -41.692  60.022 -50.229  1.00  0.00     0.028 A 
HETATM   22  C   UNL     1     -42.537  61.093 -50.466  1.00  0.00     0.117 A 
HETATM   23  N   UNL     1     -43.459  61.109 -51.445  1.00  0.00    -0.271 NA
HETATM   24  C   UNL     1     -43.545  59.997 -52.220  1.00  0.00     0.146 A 
ENDBRANCH   3  18
TORSDOF 5
ENDMDL
MODEL 8
REMARK VINA RESULT:      -6.6      2.427      4.927
REMARK  5 active torsions:
REMARK  status: ('A' for Active; 'I' for Inactive)
REMARK    1  A    between atoms: C_2  and  O_3 
REMARK    2  A    between atoms: O_3  and  C_4 
REMARK    3  A    between atoms: C_6  and  C_7 
REMARK    4  A    between atoms: C_7  and  N_8 
REMARK       I    between atoms: N_8  and  C_9 
REMARK       I    between atoms: C_9  and  N_10 
REMARK    5  A    between atoms: N_10  and  C_11 
ROOT
HETATM    1  N   UNL     1     -42.949  57.402 -52.568  1.00  0.00    -0.335 N 
HETATM    2  C   UNL     1     -43.486  57.213 -53.804  1.00  0.00     0.321 C 
HETATM    3  N   UNL     1     -42.646  57.398 -54.864  1.00  0.00    -0.307 N 
HETATM    4  O   UNL     1     -44.680  56.936 -53.869  1.00  0.00    -0.247 OA
HETATM    5  H   UNL     1     -43.651  57.218 -51.860  1.00  0.00     0.165 HD
HETATM    6  H   UNL     1     -41.800  57.902 -54.665  1.00  0.00     0.170 HD
ENDROOT
BRANCH   1   7
HETATM    7  C   UNL     1     -41.560  57.332 -52.126  1.00  0.00     0.115 C 
HETATM    8  C   UNL     1     -41.224  58.564 -51.284  1.00  0.00     0.037 C 
BRANCH   7   9
HETATM    9  C   UNL     1     -41.280  56.063 -51.341  1.00  0.00    -0.033 A 
HETATM   10  C   UNL     1     -41.026  54.837 -51.982  1.00  0.00     0.046 A 
HETATM   11  C   UNL     1     -40.807  53.663 -51.253  1.00  0.00     0.069 A 
HETATM   12  C   UNL     1     -40.855  53.703 -49.862  1.00  0.00     0.037 A 
HETATM   13  C   UNL     1     -41.113  54.910 -49.208  1.00  0.00     0.003 A 
HETATM   14  C   UNL     1     -41.323  56.080 -49.940  1.00  0.00     0.009 A 
BRANCH  11  15
HETATM   15  O   UNL     1     -40.568  52.556 -52.021  1.00  0.00    -0.352 OA
BRANCH  15  16
HETATM   16  C   UNL     1     -40.570  52.733 -53.436  1.00  0.00     0.171 C 
HETATM   17  C   UNL     1     -39.973  51.486 -54.063  1.00  0.00     0.034 C 
ENDBRANCH  15  16
ENDBRANCH  11  15
ENDBRANCH   7   9
ENDBRANCH   1   7
BRANCH   3  18
HETATM   18  C   UNL     1     -42.954  57.196 -56.232  1.00  0.00     0.059 A 
HETATM   19  C   UNL     1     -42.887  55.898 -56.772  1.00  0.00    -0.032 A 
HETATM   20  C   UNL     1     -42.485  54.700 -55.958  1.00  0.00     0.050 C 
HETATM   21  C   UNL     1     -43.198  55.714 -58.128  1.00  0.00     0.028 A 
HETATM   22  C   UNL     1     -43.568  56.808 -58.891  1.00  0.00     0.117 A 
HETATM   23  N   UNL     1     -43.651  58.059 -58.405  1.00  0.00    -0.271 NA
HETATM   24  C   UNL     1     -43.343  58.224 -57.093  1.00  0.00     0.146 A 
ENDBRANCH   3  18
TORSDOF 5
ENDMDL
MODEL 9
REMARK VINA RESULT:      -6.6      2.356      4.014
REMARK  5 active torsions:
REMARK  status: ('A' for Active; 'I' for Inactive)
REMARK    1  A    between atoms: C_2  and  O_3 
REMARK    2  A    between atoms: O_3  and  C_4 
REMARK    3  A    between atoms: C_6  and  C_7 
REMARK    4  A    between atoms: C_7  and  N_8 
REMARK       I    between atoms: N_8  and  C_9 
REMARK       I    between atoms: C_9  and  N_10 
REMARK    5  A    between atoms: N_10  and  C_11 
ROOT
HETATM    1  N   UNL     1     -41.305  55.795 -49.930  1.00  0.00    -0.335 N 
HETATM    2  C   UNL     1     -41.362  56.942 -50.661  1.00  0.00     0.321 C 
HETATM    3  N   UNL     1     -41.710  56.807 -51.974  1.00  0.00    -0.307 N 
HETATM    4  O   UNL     1     -41.059  57.990 -50.098  1.00  0.00    -0.247 OA
HETATM    5  H   UNL     1     -41.061  56.013 -48.971  1.00  0.00     0.165 HD
HETATM    6  H   UNL     1     -41.636  55.879 -52.350  1.00  0.00     0.170 HD
ENDROOT
BRANCH   1   7
HETATM    7  C   UNL     1     -41.960  54.509 -50.147  1.00  0.00     0.115 C 
HETATM    8  C   UNL     1     -43.445  54.728 -50.436  1.00  0.00     0.037 C 
BRANCH   7   9
HETATM    9  C   UNL     1     -41.312  53.728 -51.277  1.00  0.00    -0.033 A 
HETATM   10  C   UNL     1     -41.780  53.814 -52.600  1.00  0.00     0.046 A 
HETATM   11  C   UNL     1     -41.204  53.062 -53.630  1.00  0.00     0.069 A 
HETATM   12  C   UNL     1     -40.152  52.197 -53.338  1.00  0.00     0.037 A 
HETATM   13  C   UNL     1     -39.678  52.093 -52.028  1.00  0.00     0.003 A 
HETATM   14  C   UNL     1     -40.252  52.852 -51.006  1.00  0.00     0.009 A 
BRANCH  11  15
HETATM   15  O   UNL     1     -41.767  53.261 -54.860  1.00  0.00    -0.352 OA
BRANCH  15  16
HETATM   16  C   UNL     1     -42.857  54.179 -54.936  1.00  0.00     0.171 C 
HETATM   17  C   UNL     1     -42.667  55.027 -56.181  1.00  0.00     0.034 C 
ENDBRANCH  15  16
ENDBRANCH  11  15
ENDBRANCH   7   9
ENDBRANCH   1   7
BRANCH   3  18
HETATM   18  C   UNL     1     -41.900  57.853 -52.910  1.00  0.00     0.059 A 
HETATM   19  C   UNL     1     -43.169  58.041 -53.490  1.00  0.00    -0.032 A 
HETATM   20  C   UNL     1     -44.345  57.163 -53.169  1.00  0.00     0.050 C 
HETATM   21  C   UNL     1     -43.342  59.084 -54.413  1.00  0.00     0.028 A 
HETATM   22  C   UNL     1     -42.266  59.900 -54.720  1.00  0.00     0.117 A 
HETATM   23  N   UNL     1     -41.045  59.754 -54.177  1.00  0.00    -0.271 NA
HETATM   24  C   UNL     1     -40.889  58.739 -53.289  1.00  0.00     0.146 A 
ENDBRANCH   3  18
TORSDOF 5
ENDMDL
MODEL 10
REMARK VINA RESULT:      -6.6     15.479     17.997
REMARK  5 active torsions:
REMARK  status: ('A' for Active; 'I' for Inactive)
REMARK    1  A    between atoms: C_2  and  O_3 
REMARK    2  A    between atoms: O_3  and  C_4 
REMARK    3  A    between atoms: C_6  and  C_7 
REMARK    4  A    between atoms: C_7  and  N_8 
REMARK       I    between atoms: N_8  and  C_9 
REMARK       I    between atoms: C_9  and  N_10 
REMARK    5  A    between atoms: N_10  and  C_11 
ROOT
HETATM    1  N   UNL     1     -37.214  42.107 -54.758  1.00  0.00    -0.335 N 
HETATM    2  C   UNL     1     -36.004  42.080 -54.134  1.00  0.00     0.321 C 
HETATM    3  N   UNL     1     -35.596  40.869 -53.656  1.00  0.00    -0.307 N 
HETATM    4  O   UNL     1     -35.402  43.143 -54.017  1.00  0.00    -0.247 OA
HETATM    5  H   UNL     1     -37.405  43.045 -55.091  1.00  0.00     0.165 HD
HETATM    6  H   UNL     1     -36.314  40.173 -53.566  1.00  0.00     0.170 HD
ENDROOT
BRANCH   1   7
HETATM    7  C   UNL     1     -37.963  41.034 -55.403  1.00  0.00     0.115 C 
HETATM    8  C   UNL     1     -39.450  41.173 -55.078  1.00  0.00     0.037 C 
BRANCH   7   9
HETATM    9  C   UNL     1     -37.750  41.020 -56.907  1.00  0.00    -0.033 A 
HETATM   10  C   UNL     1     -37.956  39.859 -57.673  1.00  0.00     0.046 A 
HETATM   11  C   UNL     1     -37.720  39.843 -59.052  1.00  0.00     0.069 A 
HETATM   12  C   UNL     1     -37.257  40.996 -59.680  1.00  0.00     0.037 A 
HETATM   13  C   UNL     1     -37.039  42.157 -58.934  1.00  0.00     0.003 A 
HETATM   14  C   UNL     1     -37.284  42.170 -57.559  1.00  0.00     0.009 A 
BRANCH  11  15
HETATM   15  O   UNL     1     -37.973  38.641 -59.655  1.00  0.00    -0.352 OA
BRANCH  15  16
HETATM   16  C   UNL     1     -39.340  38.305 -59.889  1.00  0.00     0.171 C 
HETATM   17  C   UNL     1     -39.518  38.087 -61.381  1.00  0.00     0.034 C 
ENDBRANCH  15  16
ENDBRANCH  11  15
ENDBRANCH   7   9
ENDBRANCH   1   7
BRANCH   3  18
HETATM   18  C   UNL     1     -34.356  40.580 -53.035  1.00  0.00     0.059 A 
HETATM   19  C   UNL     1     -34.263  40.604 -51.630  1.00  0.00    -0.032 A 
HETATM   20  C   UNL     1     -35.431  40.941 -50.746  1.00  0.00     0.050 C 
HETATM   21  C   UNL     1     -33.029  40.312 -51.030  1.00  0.00     0.028 A 
HETATM   22  C   UNL     1     -31.944  40.002 -51.832  1.00  0.00     0.117 A 
HETATM   23  N   UNL     1     -32.001  39.960 -53.175  1.00  0.00    -0.271 NA
HETATM   24  C   UNL     1     -33.199  40.249 -53.744  1.00  0.00     0.146 A 
ENDBRANCH   3  18
TORSDOF 5
ENDMDL
