MODEL 1
REMARK VINA RESULT:      -8.2      0.000      0.000
REMARK  10 active torsions:
REMARK  status: ('A' for Active; 'I' for Inactive)
REMARK    1  A    between atoms: C_3  and  C_4 
REMARK    2  A    between atoms: C_4  and  C_5 
REMARK       I    between atoms: C_5  and  N_6 
REMARK    3  A    between atoms: N_6  and  C_7 
REMARK    4  A    between atoms: C_7  and  C_8 
REMARK    5  A    between atoms: C_8  and  O_9 
REMARK    6  A    between atoms: C_15  and  N_16 
REMARK       I    between atoms: N_16  and  C_17 
REMARK    7  A    between atoms: C_17  and  C_18 
REMARK    8  A    between atoms: C_26  and  C_27 
REMARK    9  A    between atoms: C_27  and  O_28 
REMARK   10  A    between atoms: C_30  and  O_31 
ROOT
HETATM    1  C   UNL     1     -43.904  56.072 -50.646  1.00  0.00     0.016 C 
HETATM    2  C   UNL     1     -42.697  56.720 -51.414  1.00  0.00    -0.030 C 
HETATM    3  C   UNL     1     -42.460  55.753 -52.686  1.00  0.00     0.056 C 
HETATM    4  C   UNL     1     -43.190  56.271 -53.908  1.00  0.00     0.056 A 
HETATM    5  C   UNL     1     -44.010  57.378 -53.927  1.00  0.00     0.012 A 
HETATM    6  S   UNL     1     -44.676  57.606 -55.479  1.00  0.00    -0.055 SA
HETATM    7  C   UNL     1     -43.760  56.277 -56.032  1.00  0.00     0.173 A 
HETATM    8  N   UNL     1     -43.032  55.657 -55.138  1.00  0.00    -0.227 NA
HETATM    9  C   UNL     1     -44.290  58.272 -52.783  1.00  0.00     0.055 C 
HETATM   10  C   UNL     1     -43.130  58.220 -51.755  1.00  0.00     0.012 C 
HETATM   11  C   UNL     1     -41.947  59.234 -52.043  1.00  0.00     0.008 C 
HETATM   12  C   UNL     1     -42.497  60.689 -52.067  1.00  0.00     0.020 C 
HETATM   13  C   UNL     1     -40.912  59.141 -50.884  1.00  0.00     0.128 C 
HETATM   14  C   UNL     1     -40.404  57.720 -50.669  1.00  0.00     0.033 C 
HETATM   15  C   UNL     1     -41.537  56.734 -50.381  1.00  0.00     0.013 C 
ENDROOT
BRANCH   3  16
HETATM   16  C   UNL     1     -41.013  55.352 -53.040  1.00  0.00     0.114 C 
BRANCH  16  17
HETATM   17  C   UNL     1     -40.672  53.927 -52.629  1.00  0.00     0.218 C 
HETATM   18  N   UNL     1     -40.227  53.110 -53.632  1.00  0.00    -0.359 N 
HETATM   19  H   UNL     1     -40.237  53.441 -54.601  1.00  0.00     0.162 HD
HETATM   20  O   UNL     1     -40.757  53.566 -51.456  1.00  0.00    -0.274 OA
BRANCH  18  21
HETATM   21  C   UNL     1     -39.703  51.781 -53.378  1.00  0.00     0.148 C 
BRANCH  21  22
HETATM   22  C   UNL     1     -40.161  50.726 -54.390  1.00  0.00     0.186 C 
BRANCH  22  23
HETATM   23  O   UNL     1     -39.828  49.415 -53.919  1.00  0.00    -0.394 OA
HETATM   24  C   UNL     1     -39.618  49.411 -52.514  1.00  0.00     0.201 C 
ENDBRANCH  22  23
ENDBRANCH  21  22
ENDBRANCH  18  21
ENDBRANCH  16  17
ENDBRANCH   3  16
BRANCH  11  25
HETATM   25  C   UNL     1     -41.241  58.997 -53.399  1.00  0.00     0.176 C 
BRANCH  25  26
HETATM   26  O   UNL     1     -41.339  60.151 -54.230  1.00  0.00    -0.400 OA
HETATM   27  H   UNL     1     -40.601  60.739 -53.989  1.00  0.00     0.209 HD
ENDBRANCH  25  26
ENDBRANCH  11  25
BRANCH   7  28
HETATM   28  N   UNL     1     -43.887  56.035 -57.369  1.00  0.00    -0.305 N 
HETATM   29  C   UNL     1     -43.090  56.646 -58.312  1.00  0.00     0.227 C 
HETATM   30  O   UNL     1     -42.205  57.466 -58.060  1.00  0.00    -0.273 OA
HETATM   31  H   UNL     1     -44.633  55.415 -57.644  1.00  0.00     0.171 HD
BRANCH  29  32
HETATM   32  C   UNL     1     -43.452  56.212 -59.763  1.00  0.00     0.078 C 
HETATM   33  C   UNL     1     -44.082  54.803 -59.942  1.00  0.00     0.014 C 
HETATM   34  C   UNL     1     -44.949  55.404 -61.064  1.00  0.00     0.002 C 
HETATM   35  C   UNL     1     -44.764  56.772 -60.378  1.00  0.00     0.014 C 
ENDBRANCH  29  32
ENDBRANCH   7  28
BRANCH  13  36
HETATM   36  O   UNL     1     -41.496  59.576 -49.651  1.00  0.00    -0.395 OA
HETATM   37  H   UNL     1     -42.043  58.842 -49.319  1.00  0.00     0.210 HD
ENDBRANCH  13  36
TORSDOF 10
ENDMDL
MODEL 2
REMARK VINA RESULT:      -7.3      1.813      2.372
REMARK  10 active torsions:
REMARK  status: ('A' for Active; 'I' for Inactive)
REMARK    1  A    between atoms: C_3  and  C_4 
REMARK    2  A    between atoms: C_4  and  C_5 
REMARK       I    between atoms: C_5  and  N_6 
REMARK    3  A    between atoms: N_6  and  C_7 
REMARK    4  A    between atoms: C_7  and  C_8 
REMARK    5  A    between atoms: C_8  and  O_9 
REMARK    6  A    between atoms: C_15  and  N_16 
REMARK       I    between atoms: N_16  and  C_17 
REMARK    7  A    between atoms: C_17  and  C_18 
REMARK    8  A    between atoms: C_26  and  C_27 
REMARK    9  A    between atoms: C_27  and  O_28 
REMARK   10  A    between atoms: C_30  and  O_31 
ROOT
HETATM    1  C   UNL     1     -43.952  53.932 -51.706  1.00  0.00     0.016 C 
HETATM    2  C   UNL     1     -42.550  54.605 -51.926  1.00  0.00    -0.030 C 
HETATM    3  C   UNL     1     -42.188  54.292 -53.468  1.00  0.00     0.056 C 
HETATM    4  C   UNL     1     -42.599  55.439 -54.368  1.00  0.00     0.056 A 
HETATM    5  C   UNL     1     -43.261  56.573 -53.950  1.00  0.00     0.012 A 
HETATM    6  S   UNL     1     -43.581  57.603 -55.269  1.00  0.00    -0.055 SA
HETATM    7  C   UNL     1     -42.740  56.516 -56.281  1.00  0.00     0.173 A 
HETATM    8  N   UNL     1     -42.280  55.430 -55.714  1.00  0.00    -0.227 NA
HETATM    9  C   UNL     1     -43.650  56.888 -52.559  1.00  0.00     0.055 C 
HETATM   10  C   UNL     1     -42.727  56.150 -51.555  1.00  0.00     0.012 C 
HETATM   11  C   UNL     1     -41.398  56.929 -51.184  1.00  0.00     0.008 C 
HETATM   12  C   UNL     1     -41.755  58.314 -50.572  1.00  0.00     0.020 C 
HETATM   13  C   UNL     1     -40.627  56.121 -50.100  1.00  0.00     0.128 C 
HETATM   14  C   UNL     1     -40.344  54.687 -50.535  1.00  0.00     0.033 C 
HETATM   15  C   UNL     1     -41.620  53.922 -50.886  1.00  0.00     0.013 C 
ENDROOT
BRANCH   3  16
HETATM   16  C   UNL     1     -40.758  53.818 -53.802  1.00  0.00     0.114 C 
BRANCH  16  17
HETATM   17  C   UNL     1     -40.691  52.346 -54.182  1.00  0.00     0.218 C 
HETATM   18  N   UNL     1     -39.504  51.719 -53.920  1.00  0.00    -0.359 N 
HETATM   19  H   UNL     1     -38.702  52.263 -53.588  1.00  0.00     0.162 HD
HETATM   20  O   UNL     1     -41.668  51.766 -54.654  1.00  0.00    -0.274 OA
BRANCH  18  21
HETATM   21  C   UNL     1     -39.332  50.286 -54.066  1.00  0.00     0.148 C 
BRANCH  21  22
HETATM   22  C   UNL     1     -39.589  49.493 -52.781  1.00  0.00     0.186 C 
BRANCH  22  23
HETATM   23  O   UNL     1     -39.403  50.334 -51.637  1.00  0.00    -0.394 OA
HETATM   24  C   UNL     1     -39.863  49.700 -50.452  1.00  0.00     0.201 C 
ENDBRANCH  22  23
ENDBRANCH  21  22
ENDBRANCH  18  21
ENDBRANCH  16  17
ENDBRANCH   3  16
BRANCH  11  25
HETATM   25  C   UNL     1     -40.475  57.197 -52.397  1.00  0.00     0.176 C 
BRANCH  25  26
HETATM   26  O   UNL     1     -40.517  58.572 -52.771  1.00  0.00    -0.400 OA
HETATM   27  H   UNL     1     -39.617  58.818 -53.050  1.00  0.00     0.209 HD
ENDBRANCH  25  26
ENDBRANCH  11  25
BRANCH   7  28
HETATM   28  N   UNL     1     -42.633  56.935 -57.575  1.00  0.00    -0.305 N 
HETATM   29  C   UNL     1     -43.163  56.225 -58.630  1.00  0.00     0.227 C 
HETATM   30  O   UNL     1     -43.767  55.155 -58.525  1.00  0.00    -0.273 OA
HETATM   31  H   UNL     1     -42.100  57.776 -57.732  1.00  0.00     0.171 HD
BRANCH  29  32
HETATM   32  C   UNL     1     -42.886  56.908 -60.002  1.00  0.00     0.078 C 
HETATM   33  C   UNL     1     -43.679  58.208 -60.315  1.00  0.00     0.014 C 
HETATM   34  C   UNL     1     -42.416  58.729 -61.026  1.00  0.00     0.002 C 
HETATM   35  C   UNL     1     -41.602  57.773 -60.131  1.00  0.00     0.014 C 
ENDBRANCH  29  32
ENDBRANCH   7  28
BRANCH  13  36
HETATM   36  O   UNL     1     -41.384  56.057 -48.886  1.00  0.00    -0.395 OA
HETATM   37  H   UNL     1     -41.059  55.287 -48.387  1.00  0.00     0.210 HD
ENDBRANCH  13  36
TORSDOF 10
ENDMDL
MODEL 3
REMARK VINA RESULT:      -7.2      2.369      6.141
REMARK  10 active torsions:
REMARK  status: ('A' for Active; 'I' for Inactive)
REMARK    1  A    between atoms: C_3  and  C_4 
REMARK    2  A    between atoms: C_4  and  C_5 
REMARK       I    between atoms: C_5  and  N_6 
REMARK    3  A    between atoms: N_6  and  C_7 
REMARK    4  A    between atoms: C_7  and  C_8 
REMARK    5  A    between atoms: C_8  and  O_9 
REMARK    6  A    between atoms: C_15  and  N_16 
REMARK       I    between atoms: N_16  and  C_17 
REMARK    7  A    between atoms: C_17  and  C_18 
REMARK    8  A    between atoms: C_26  and  C_27 
REMARK    9  A    between atoms: C_27  and  O_28 
REMARK   10  A    between atoms: C_30  and  O_31 
ROOT
HETATM    1  C   UNL     1     -45.106  59.239 -54.276  1.00  0.00     0.016 C 
HETATM    2  C   UNL     1     -43.806  59.414 -55.139  1.00  0.00    -0.030 C 
HETATM    3  C   UNL     1     -42.673  58.586 -54.341  1.00  0.00     0.056 C 
HETATM    4  C   UNL     1     -42.542  57.179 -54.885  1.00  0.00     0.056 A 
HETATM    5  C   UNL     1     -43.328  56.640 -55.880  1.00  0.00     0.012 A 
HETATM    6  S   UNL     1     -42.895  55.019 -56.178  1.00  0.00    -0.055 SA
HETATM    7  C   UNL     1     -41.640  55.178 -55.033  1.00  0.00     0.173 A 
HETATM    8  N   UNL     1     -41.551  56.332 -54.421  1.00  0.00    -0.227 NA
HETATM    9  C   UNL     1     -44.403  57.343 -56.614  1.00  0.00     0.055 C 
HETATM   10  C   UNL     1     -44.158  58.874 -56.602  1.00  0.00     0.012 C 
HETATM   11  C   UNL     1     -43.237  59.406 -57.776  1.00  0.00     0.008 C 
HETATM   12  C   UNL     1     -43.870  59.035 -59.149  1.00  0.00     0.020 C 
HETATM   13  C   UNL     1     -43.164  60.958 -57.696  1.00  0.00     0.128 C 
HETATM   14  C   UNL     1     -42.688  61.448 -56.333  1.00  0.00     0.033 C 
HETATM   15  C   UNL     1     -43.576  60.950 -55.192  1.00  0.00     0.013 C 
ENDROOT
BRANCH   3  16
HETATM   16  C   UNL     1     -41.286  59.235 -54.157  1.00  0.00     0.114 C 
BRANCH  16  17
HETATM   17  C   UNL     1     -40.659  58.929 -52.804  1.00  0.00     0.218 C 
HETATM   18  N   UNL     1     -41.452  58.245 -51.925  1.00  0.00    -0.359 N 
HETATM   19  H   UNL     1     -42.432  58.060 -52.158  1.00  0.00     0.162 HD
HETATM   20  O   UNL     1     -39.498  59.250 -52.553  1.00  0.00    -0.274 OA
BRANCH  18  21
HETATM   21  C   UNL     1     -40.952  57.731 -50.663  1.00  0.00     0.148 C 
BRANCH  21  22
HETATM   22  C   UNL     1     -41.507  56.354 -50.286  1.00  0.00     0.186 C 
BRANCH  22  23
HETATM   23  O   UNL     1     -40.438  55.479 -49.908  1.00  0.00    -0.394 OA
HETATM   24  C   UNL     1     -40.899  54.445 -49.049  1.00  0.00     0.201 C 
ENDBRANCH  22  23
ENDBRANCH  21  22
ENDBRANCH  18  21
ENDBRANCH  16  17
ENDBRANCH   3  16
BRANCH  11  25
HETATM   25  C   UNL     1     -41.809  58.810 -57.765  1.00  0.00     0.176 C 
BRANCH  25  26
HETATM   26  O   UNL     1     -41.663  57.824 -58.784  1.00  0.00    -0.400 OA
HETATM   27  H   UNL     1     -40.707  57.678 -58.903  1.00  0.00     0.209 HD
ENDBRANCH  25  26
ENDBRANCH  11  25
BRANCH   7  28
HETATM   28  N   UNL     1     -40.857  54.067 -54.912  1.00  0.00    -0.305 N 
HETATM   29  C   UNL     1     -40.921  53.232 -53.818  1.00  0.00     0.227 C 
HETATM   30  O   UNL     1     -41.664  53.398 -52.848  1.00  0.00    -0.273 OA
HETATM   31  H   UNL     1     -40.187  53.907 -55.648  1.00  0.00     0.171 HD
BRANCH  29  32
HETATM   32  C   UNL     1     -39.913  52.049 -53.918  1.00  0.00     0.078 C 
HETATM   33  C   UNL     1     -39.588  51.286 -52.603  1.00  0.00     0.014 C 
HETATM   34  C   UNL     1     -39.514  49.999 -53.446  1.00  0.00     0.002 C 
HETATM   35  C   UNL     1     -40.443  50.694 -54.461  1.00  0.00     0.014 C 
ENDBRANCH  29  32
ENDBRANCH   7  28
BRANCH  13  36
HETATM   36  O   UNL     1     -44.453  61.536 -57.931  1.00  0.00    -0.395 OA
HETATM   37  H   UNL     1     -44.830  61.088 -58.709  1.00  0.00     0.210 HD
ENDBRANCH  13  36
TORSDOF 10
ENDMDL
MODEL 4
REMARK VINA RESULT:      -7.2      2.715      6.344
REMARK  10 active torsions:
REMARK  status: ('A' for Active; 'I' for Inactive)
REMARK    1  A    between atoms: C_3  and  C_4 
REMARK    2  A    between atoms: C_4  and  C_5 
REMARK       I    between atoms: C_5  and  N_6 
REMARK    3  A    between atoms: N_6  and  C_7 
REMARK    4  A    between atoms: C_7  and  C_8 
REMARK    5  A    between atoms: C_8  and  O_9 
REMARK    6  A    between atoms: C_15  and  N_16 
REMARK       I    between atoms: N_16  and  C_17 
REMARK    7  A    between atoms: C_17  and  C_18 
REMARK    8  A    between atoms: C_26  and  C_27 
REMARK    9  A    between atoms: C_27  and  O_28 
REMARK   10  A    between atoms: C_30  and  O_31 
ROOT
HETATM    1  C   UNL     1     -42.747  61.679 -53.749  1.00  0.00     0.016 C 
HETATM    2  C   UNL     1     -43.955  60.886 -53.132  1.00  0.00    -0.030 C 
HETATM    3  C   UNL     1     -43.838  59.407 -53.769  1.00  0.00     0.056 C 
HETATM    4  C   UNL     1     -43.080  58.475 -52.846  1.00  0.00     0.056 A 
HETATM    5  C   UNL     1     -42.500  58.844 -51.653  1.00  0.00     0.012 A 
HETATM    6  S   UNL     1     -41.707  57.519 -50.933  1.00  0.00    -0.055 SA
HETATM    7  C   UNL     1     -42.266  56.533 -52.209  1.00  0.00     0.173 A 
HETATM    8  N   UNL     1     -42.961  57.129 -53.145  1.00  0.00    -0.227 NA
HETATM    9  C   UNL     1     -42.545  60.193 -51.045  1.00  0.00     0.055 C 
HETATM   10  C   UNL     1     -43.789  60.972 -51.545  1.00  0.00     0.012 C 
HETATM   11  C   UNL     1     -45.106  60.728 -50.697  1.00  0.00     0.008 C 
HETATM   12  C   UNL     1     -44.856  61.128 -49.214  1.00  0.00     0.020 C 
HETATM   13  C   UNL     1     -46.236  61.646 -51.247  1.00  0.00     0.128 C 
HETATM   14  C   UNL     1     -46.475  61.444 -52.740  1.00  0.00     0.033 C 
HETATM   15  C   UNL     1     -45.213  61.686 -53.569  1.00  0.00     0.013 C 
ENDROOT
BRANCH   3  16
HETATM   16  C   UNL     1     -45.121  58.733 -54.297  1.00  0.00     0.114 C 
BRANCH  16  17
HETATM   17  C   UNL     1     -45.029  58.341 -55.764  1.00  0.00     0.218 C 
HETATM   18  N   UNL     1     -43.763  58.208 -56.264  1.00  0.00    -0.359 N 
HETATM   19  H   UNL     1     -42.957  58.466 -55.686  1.00  0.00     0.162 HD
HETATM   20  O   UNL     1     -46.040  58.122 -56.429  1.00  0.00    -0.274 OA
BRANCH  18  21
HETATM   21  C   UNL     1     -43.501  57.679 -57.589  1.00  0.00     0.148 C 
BRANCH  21  22
HETATM   22  C   UNL     1     -43.220  56.174 -57.617  1.00  0.00     0.186 C 
BRANCH  22  23
HETATM   23  O   UNL     1     -42.564  55.773 -56.408  1.00  0.00    -0.394 OA
HETATM   24  C   UNL     1     -43.066  54.530 -55.938  1.00  0.00     0.201 C 
ENDBRANCH  22  23
ENDBRANCH  21  22
ENDBRANCH  18  21
ENDBRANCH  16  17
ENDBRANCH   3  16
BRANCH  11  25
HETATM   25  C   UNL     1     -45.578  59.255 -50.692  1.00  0.00     0.176 C 
BRANCH  25  26
HETATM   26  O   UNL     1     -45.835  58.809 -49.363  1.00  0.00    -0.400 OA
HETATM   27  H   UNL     1     -46.145  57.887 -49.427  1.00  0.00     0.209 HD
ENDBRANCH  25  26
ENDBRANCH  11  25
BRANCH   7  28
HETATM   28  N   UNL     1     -41.930  55.217 -52.079  1.00  0.00    -0.305 N 
HETATM   29  C   UNL     1     -41.014  54.602 -52.904  1.00  0.00     0.227 C 
HETATM   30  O   UNL     1     -40.420  55.155 -53.832  1.00  0.00    -0.273 OA
HETATM   31  H   UNL     1     -42.424  54.695 -51.373  1.00  0.00     0.171 HD
BRANCH  29  32
HETATM   32  C   UNL     1     -40.824  53.095 -52.558  1.00  0.00     0.078 C 
HETATM   33  C   UNL     1     -39.949  52.253 -53.526  1.00  0.00     0.014 C 
HETATM   34  C   UNL     1     -39.438  51.485 -52.293  1.00  0.00     0.002 C 
HETATM   35  C   UNL     1     -39.789  52.732 -51.458  1.00  0.00     0.014 C 
ENDBRANCH  29  32
ENDBRANCH   7  28
BRANCH  13  36
HETATM   36  O   UNL     1     -45.905  63.025 -51.051  1.00  0.00    -0.395 OA
HETATM   37  H   UNL     1     -45.181  63.057 -50.401  1.00  0.00     0.210 HD
ENDBRANCH  13  36
TORSDOF 10
ENDMDL
MODEL 5
REMARK VINA RESULT:      -7.1      2.873      6.148
REMARK  10 active torsions:
REMARK  status: ('A' for Active; 'I' for Inactive)
REMARK    1  A    between atoms: C_3  and  C_4 
REMARK    2  A    between atoms: C_4  and  C_5 
REMARK       I    between atoms: C_5  and  N_6 
REMARK    3  A    between atoms: N_6  and  C_7 
REMARK    4  A    between atoms: C_7  and  C_8 
REMARK    5  A    between atoms: C_8  and  O_9 
REMARK    6  A    between atoms: C_15  and  N_16 
REMARK       I    between atoms: N_16  and  C_17 
REMARK    7  A    between atoms: C_17  and  C_18 
REMARK    8  A    between atoms: C_26  and  C_27 
REMARK    9  A    between atoms: C_27  and  O_28 
REMARK   10  A    between atoms: C_30  and  O_31 
ROOT
HETATM    1  C   UNL     1     -40.714  58.353 -51.698  1.00  0.00     0.016 C 
HETATM    2  C   UNL     1     -41.676  57.111 -51.676  1.00  0.00    -0.030 C 
HETATM    3  C   UNL     1     -43.098  57.691 -52.177  1.00  0.00     0.056 C 
HETATM    4  C   UNL     1     -43.276  57.486 -53.666  1.00  0.00     0.056 A 
HETATM    5  C   UNL     1     -42.328  56.945 -54.508  1.00  0.00     0.012 A 
HETATM    6  S   UNL     1     -42.894  56.923 -56.116  1.00  0.00    -0.055 SA
HETATM    7  C   UNL     1     -44.384  57.547 -55.566  1.00  0.00     0.173 A 
HETATM    8  N   UNL     1     -44.471  57.807 -54.286  1.00  0.00    -0.227 NA
HETATM    9  C   UNL     1     -40.998  56.437 -54.107  1.00  0.00     0.055 C 
HETATM   10  C   UNL     1     -41.008  56.005 -52.617  1.00  0.00     0.012 C 
HETATM   11  C   UNL     1     -41.471  54.511 -52.365  1.00  0.00     0.008 C 
HETATM   12  C   UNL     1     -40.537  53.535 -53.138  1.00  0.00     0.020 C 
HETATM   13  C   UNL     1     -41.334  54.191 -50.848  1.00  0.00     0.128 C 
HETATM   14  C   UNL     1     -42.099  55.178 -49.974  1.00  0.00     0.033 C 
HETATM   15  C   UNL     1     -41.653  56.624 -50.202  1.00  0.00     0.013 C 
ENDROOT
BRANCH   3  16
HETATM   16  C   UNL     1     -44.369  57.272 -51.409  1.00  0.00     0.114 C 
BRANCH  16  17
HETATM   17  C   UNL     1     -45.101  58.449 -50.782  1.00  0.00     0.218 C 
HETATM   18  N   UNL     1     -44.344  59.566 -50.554  1.00  0.00    -0.359 N 
HETATM   19  H   UNL     1     -43.332  59.537 -50.712  1.00  0.00     0.162 HD
HETATM   20  O   UNL     1     -46.306  58.395 -50.541  1.00  0.00    -0.274 OA
BRANCH  18  21
HETATM   21  C   UNL     1     -44.923  60.824 -50.120  1.00  0.00     0.148 C 
BRANCH  21  22
HETATM   22  C   UNL     1     -44.859  61.052 -48.607  1.00  0.00     0.186 C 
BRANCH  22  23
HETATM   23  O   UNL     1     -46.106  60.692 -48.002  1.00  0.00    -0.394 OA
HETATM   24  C   UNL     1     -46.065  60.873 -46.593  1.00  0.00     0.201 C 
ENDBRANCH  22  23
ENDBRANCH  21  22
ENDBRANCH  18  21
ENDBRANCH  16  17
ENDBRANCH   3  16
BRANCH  11  25
HETATM   25  C   UNL     1     -42.915  54.220 -52.837  1.00  0.00     0.176 C 
BRANCH  25  26
HETATM   26  O   UNL     1     -42.915  53.623 -54.132  1.00  0.00    -0.400 OA
HETATM   27  H   UNL     1     -42.746  52.672 -54.007  1.00  0.00     0.209 HD
ENDBRANCH  25  26
ENDBRANCH  11  25
BRANCH   7  28
HETATM   28  N   UNL     1     -45.323  57.681 -56.546  1.00  0.00    -0.305 N 
HETATM   29  C   UNL     1     -45.368  58.772 -57.386  1.00  0.00     0.227 C 
HETATM   30  O   UNL     1     -44.592  59.729 -57.338  1.00  0.00    -0.273 OA
HETATM   31  H   UNL     1     -46.023  56.957 -56.600  1.00  0.00     0.171 HD
BRANCH  29  32
HETATM   32  C   UNL     1     -46.546  58.689 -58.402  1.00  0.00     0.078 C 
HETATM   33  C   UNL     1     -46.318  59.329 -59.800  1.00  0.00     0.014 C 
HETATM   34  C   UNL     1     -47.154  58.179 -60.390  1.00  0.00     0.002 C 
HETATM   35  C   UNL     1     -46.754  57.347 -59.156  1.00  0.00     0.014 C 
ENDBRANCH  29  32
ENDBRANCH   7  28
BRANCH  13  36
HETATM   36  O   UNL     1     -39.961  54.239 -50.445  1.00  0.00    -0.395 OA
HETATM   37  H   UNL     1     -39.950  54.334 -49.477  1.00  0.00     0.210 HD
ENDBRANCH  13  36
TORSDOF 10
ENDMDL
MODEL 6
REMARK VINA RESULT:      -7.0      2.669      6.852
REMARK  10 active torsions:
REMARK  status: ('A' for Active; 'I' for Inactive)
REMARK    1  A    between atoms: C_3  and  C_4 
REMARK    2  A    between atoms: C_4  and  C_5 
REMARK       I    between atoms: C_5  and  N_6 
REMARK    3  A    between atoms: N_6  and  C_7 
REMARK    4  A    between atoms: C_7  and  C_8 
REMARK    5  A    between atoms: C_8  and  O_9 
REMARK    6  A    between atoms: C_15  and  N_16 
REMARK       I    between atoms: N_16  and  C_17 
REMARK    7  A    between atoms: C_17  and  C_18 
REMARK    8  A    between atoms: C_26  and  C_27 
REMARK    9  A    between atoms: C_27  and  O_28 
REMARK   10  A    between atoms: C_30  and  O_31 
ROOT
HETATM    1  C   UNL     1     -45.720  59.381 -56.082  1.00  0.00     0.016 C 
HETATM    2  C   UNL     1     -44.301  59.599 -56.719  1.00  0.00    -0.030 C 
HETATM    3  C   UNL     1     -43.270  59.004 -55.628  1.00  0.00     0.056 C 
HETATM    4  C   UNL     1     -42.913  57.566 -55.943  1.00  0.00     0.056 A 
HETATM    5  C   UNL     1     -43.446  56.828 -56.978  1.00  0.00     0.012 A 
HETATM    6  S   UNL     1     -42.821  55.243 -56.970  1.00  0.00    -0.055 SA
HETATM    7  C   UNL     1     -41.824  55.677 -55.655  1.00  0.00     0.173 A 
HETATM    8  N   UNL     1     -41.957  56.897 -55.200  1.00  0.00    -0.227 NA
HETATM    9  C   UNL     1     -44.421  57.313 -57.979  1.00  0.00     0.055 C 
HETATM   10  C   UNL     1     -44.321  58.853 -58.133  1.00  0.00     0.012 C 
HETATM   11  C   UNL     1     -43.245  59.343 -59.189  1.00  0.00     0.008 C 
HETATM   12  C   UNL     1     -43.571  58.743 -60.587  1.00  0.00     0.020 C 
HETATM   13  C   UNL     1     -43.327  60.892 -59.310  1.00  0.00     0.128 C 
HETATM   14  C   UNL     1     -43.163  61.591 -57.965  1.00  0.00     0.033 C 
HETATM   15  C   UNL     1     -44.203  61.133 -56.941  1.00  0.00     0.013 C 
ENDROOT
BRANCH   3  16
HETATM   16  C   UNL     1     -42.006  59.823 -55.293  1.00  0.00     0.114 C 
BRANCH  16  17
HETATM   17  C   UNL     1     -41.730  59.908 -53.800  1.00  0.00     0.218 C 
HETATM   18  N   UNL     1     -40.815  59.015 -53.313  1.00  0.00    -0.359 N 
HETATM   19  H   UNL     1     -40.441  58.284 -53.925  1.00  0.00     0.162 HD
HETATM   20  O   UNL     1     -42.274  60.761 -53.100  1.00  0.00    -0.274 OA
BRANCH  18  21
HETATM   21  C   UNL     1     -40.317  59.075 -51.952  1.00  0.00     0.148 C 
BRANCH  21  22
HETATM   22  C   UNL     1     -40.896  58.000 -51.027  1.00  0.00     0.186 C 
BRANCH  22  23
HETATM   23  O   UNL     1     -41.309  56.862 -51.793  1.00  0.00    -0.394 OA
HETATM   24  C   UNL     1     -42.608  56.430 -51.412  1.00  0.00     0.201 C 
ENDBRANCH  22  23
ENDBRANCH  21  22
ENDBRANCH  18  21
ENDBRANCH  16  17
ENDBRANCH   3  16
BRANCH  11  25
HETATM   25  C   UNL     1     -41.798  58.917 -58.844  1.00  0.00     0.176 C 
BRANCH  25  26
HETATM   26  O   UNL     1     -41.427  57.747 -59.568  1.00  0.00    -0.400 OA
HETATM   27  H   UNL     1     -40.785  58.023 -60.247  1.00  0.00     0.209 HD
ENDBRANCH  25  26
ENDBRANCH  11  25
BRANCH   7  28
HETATM   28  N   UNL     1     -40.983  54.683 -55.247  1.00  0.00    -0.305 N 
HETATM   29  C   UNL     1     -41.322  53.783 -54.260  1.00  0.00     0.227 C 
HETATM   30  O   UNL     1     -42.391  53.783 -53.645  1.00  0.00    -0.273 OA
HETATM   31  H   UNL     1     -40.070  54.664 -55.673  1.00  0.00     0.171 HD
BRANCH  29  32
HETATM   32  C   UNL     1     -40.180  52.764 -53.971  1.00  0.00     0.078 C 
HETATM   33  C   UNL     1     -40.032  52.268 -52.505  1.00  0.00     0.014 C 
HETATM   34  C   UNL     1     -39.641  50.893 -53.080  1.00  0.00     0.002 C 
HETATM   35  C   UNL     1     -40.427  51.278 -54.349  1.00  0.00     0.014 C 
ENDBRANCH  29  32
ENDBRANCH   7  28
BRANCH  13  36
HETATM   36  O   UNL     1     -44.595  61.288 -59.845  1.00  0.00    -0.395 OA
HETATM   37  H   UNL     1     -44.427  61.684 -60.718  1.00  0.00     0.210 HD
ENDBRANCH  13  36
TORSDOF 10
ENDMDL
MODEL 7
REMARK VINA RESULT:      -6.9      3.877      6.919
REMARK  10 active torsions:
REMARK  status: ('A' for Active; 'I' for Inactive)
REMARK    1  A    between atoms: C_3  and  C_4 
REMARK    2  A    between atoms: C_4  and  C_5 
REMARK       I    between atoms: C_5  and  N_6 
REMARK    3  A    between atoms: N_6  and  C_7 
REMARK    4  A    between atoms: C_7  and  C_8 
REMARK    5  A    between atoms: C_8  and  O_9 
REMARK    6  A    between atoms: C_15  and  N_16 
REMARK       I    between atoms: N_16  and  C_17 
REMARK    7  A    between atoms: C_17  and  C_18 
REMARK    8  A    between atoms: C_26  and  C_27 
REMARK    9  A    between atoms: C_27  and  O_28 
REMARK   10  A    between atoms: C_30  and  O_31 
ROOT
HETATM    1  C   UNL     1     -40.956  57.516 -50.600  1.00  0.00     0.016 C 
HETATM    2  C   UNL     1     -42.124  56.848 -51.411  1.00  0.00    -0.030 C 
HETATM    3  C   UNL     1     -43.205  58.031 -51.616  1.00  0.00     0.056 C 
HETATM    4  C   UNL     1     -43.011  58.722 -52.949  1.00  0.00     0.056 A 
HETATM    5  C   UNL     1     -42.005  58.438 -53.847  1.00  0.00     0.012 A 
HETATM    6  S   UNL     1     -42.105  59.461 -55.206  1.00  0.00    -0.055 SA
HETATM    7  C   UNL     1     -43.525  60.142 -54.548  1.00  0.00     0.173 A 
HETATM    8  N   UNL     1     -43.900  59.692 -53.378  1.00  0.00    -0.227 NA
HETATM    9  C   UNL     1     -40.969  57.394 -53.690  1.00  0.00     0.055 C 
HETATM   10  C   UNL     1     -41.471  56.268 -52.750  1.00  0.00     0.012 C 
HETATM   11  C   UNL     1     -42.284  55.117 -53.474  1.00  0.00     0.008 C 
HETATM   12  C   UNL     1     -41.400  54.461 -54.574  1.00  0.00     0.020 C 
HETATM   13  C   UNL     1     -42.633  54.014 -52.432  1.00  0.00     0.128 C 
HETATM   14  C   UNL     1     -43.383  54.570 -51.226  1.00  0.00     0.033 C 
HETATM   15  C   UNL     1     -42.603  55.675 -50.513  1.00  0.00     0.013 C 
ENDROOT
BRANCH   3  16
HETATM   16  C   UNL     1     -44.695  57.710 -51.375  1.00  0.00     0.114 C 
BRANCH  16  17
HETATM   17  C   UNL     1     -45.426  58.807 -50.616  1.00  0.00     0.218 C 
HETATM   18  N   UNL     1     -44.645  59.831 -50.154  1.00  0.00    -0.359 N 
HETATM   19  H   UNL     1     -43.626  59.774 -50.242  1.00  0.00     0.162 HD
HETATM   20  O   UNL     1     -46.647  58.777 -50.474  1.00  0.00    -0.274 OA
BRANCH  18  21
HETATM   21  C   UNL     1     -45.205  61.031 -49.562  1.00  0.00     0.148 C 
BRANCH  21  22
HETATM   22  C   UNL     1     -45.155  61.053 -48.031  1.00  0.00     0.186 C 
BRANCH  22  23
HETATM   23  O   UNL     1     -46.160  60.186 -47.493  1.00  0.00    -0.394 OA
HETATM   24  C   UNL     1     -46.101  60.152 -46.073  1.00  0.00     0.201 C 
ENDBRANCH  22  23
ENDBRANCH  21  22
ENDBRANCH  18  21
ENDBRANCH  16  17
ENDBRANCH   3  16
BRANCH  11  25
HETATM   25  C   UNL     1     -43.574  55.611 -54.170  1.00  0.00     0.176 C 
BRANCH  25  26
HETATM   26  O   UNL     1     -44.418  54.514 -54.512  1.00  0.00    -0.400 OA
HETATM   27  H   UNL     1     -45.310  54.728 -54.183  1.00  0.00     0.209 HD
ENDBRANCH  25  26
ENDBRANCH  11  25
BRANCH   7  28
HETATM   28  N   UNL     1     -44.115  61.074 -55.351  1.00  0.00    -0.305 N 
HETATM   29  C   UNL     1     -45.140  60.764 -56.218  1.00  0.00     0.227 C 
HETATM   30  O   UNL     1     -45.618  59.637 -56.367  1.00  0.00    -0.273 OA
HETATM   31  H   UNL     1     -43.730  62.005 -55.317  1.00  0.00     0.171 HD
BRANCH  29  32
HETATM   32  C   UNL     1     -45.622  62.002 -57.031  1.00  0.00     0.078 C 
HETATM   33  C   UNL     1     -47.001  62.606 -56.646  1.00  0.00     0.014 C 
HETATM   34  C   UNL     1     -46.407  63.992 -56.954  1.00  0.00     0.002 C 
HETATM   35  C   UNL     1     -45.020  63.385 -56.663  1.00  0.00     0.014 C 
ENDBRANCH  29  32
ENDBRANCH   7  28
BRANCH  13  36
HETATM   36  O   UNL     1     -41.441  53.390 -51.941  1.00  0.00    -0.395 OA
HETATM   37  H   UNL     1     -40.780  54.093 -51.817  1.00  0.00     0.210 HD
ENDBRANCH  13  36
TORSDOF 10
ENDMDL
MODEL 8
REMARK VINA RESULT:      -6.8      2.817      7.458
REMARK  10 active torsions:
REMARK  status: ('A' for Active; 'I' for Inactive)
REMARK    1  A    between atoms: C_3  and  C_4 
REMARK    2  A    between atoms: C_4  and  C_5 
REMARK       I    between atoms: C_5  and  N_6 
REMARK    3  A    between atoms: N_6  and  C_7 
REMARK    4  A    between atoms: C_7  and  C_8 
REMARK    5  A    between atoms: C_8  and  O_9 
REMARK    6  A    between atoms: C_15  and  N_16 
REMARK       I    between atoms: N_16  and  C_17 
REMARK    7  A    between atoms: C_17  and  C_18 
REMARK    8  A    between atoms: C_26  and  C_27 
REMARK    9  A    between atoms: C_27  and  O_28 
REMARK   10  A    between atoms: C_30  and  O_31 
ROOT
HETATM    1  C   UNL     1     -43.949  54.005 -55.059  1.00  0.00     0.016 C 
HETATM    2  C   UNL     1     -42.616  54.594 -54.474  1.00  0.00    -0.030 C 
HETATM    3  C   UNL     1     -42.871  56.187 -54.406  1.00  0.00     0.056 C 
HETATM    4  C   UNL     1     -43.361  56.602 -53.034  1.00  0.00     0.056 A 
HETATM    5  C   UNL     1     -43.627  55.736 -51.995  1.00  0.00     0.012 A 
HETATM    6  S   UNL     1     -44.197  56.588 -50.634  1.00  0.00    -0.055 SA
HETATM    7  C   UNL     1     -43.965  58.046 -51.489  1.00  0.00     0.173 A 
HETATM    8  N   UNL     1     -43.535  57.938 -52.721  1.00  0.00    -0.227 NA
HETATM    9  C   UNL     1     -43.447  54.268 -52.020  1.00  0.00     0.055 C 
HETATM   10  C   UNL     1     -42.378  53.869 -53.070  1.00  0.00     0.012 C 
HETATM   11  C   UNL     1     -40.888  53.875 -52.531  1.00  0.00     0.008 C 
HETATM   12  C   UNL     1     -40.762  52.898 -51.326  1.00  0.00     0.020 C 
HETATM   13  C   UNL     1     -39.944  53.360 -53.655  1.00  0.00     0.128 C 
HETATM   14  C   UNL     1     -40.085  54.160 -54.946  1.00  0.00     0.033 C 
HETATM   15  C   UNL     1     -41.518  54.152 -55.481  1.00  0.00     0.013 C 
ENDROOT
BRANCH   3  16
HETATM   16  C   UNL     1     -41.753  57.129 -54.898  1.00  0.00     0.114 C 
BRANCH  16  17
HETATM   17  C   UNL     1     -42.104  57.845 -56.194  1.00  0.00     0.218 C 
HETATM   18  N   UNL     1     -42.254  57.043 -57.293  1.00  0.00    -0.359 N 
HETATM   19  H   UNL     1     -42.033  56.045 -57.229  1.00  0.00     0.162 HD
HETATM   20  O   UNL     1     -42.278  59.062 -56.222  1.00  0.00    -0.274 OA
BRANCH  18  21
HETATM   21  C   UNL     1     -42.749  57.545 -58.560  1.00  0.00     0.148 C 
BRANCH  21  22
HETATM   22  C   UNL     1     -42.322  56.712 -59.772  1.00  0.00     0.186 C 
BRANCH  22  23
HETATM   23  O   UNL     1     -43.460  56.412 -60.589  1.00  0.00    -0.394 OA
HETATM   24  C   UNL     1     -44.167  55.284 -60.092  1.00  0.00     0.201 C 
ENDBRANCH  22  23
ENDBRANCH  21  22
ENDBRANCH  18  21
ENDBRANCH  16  17
ENDBRANCH   3  16
BRANCH  11  25
HETATM   25  C   UNL     1     -40.412  55.262 -52.037  1.00  0.00     0.176 C 
BRANCH  25  26
HETATM   26  O   UNL     1     -40.486  55.347 -50.616  1.00  0.00    -0.400 OA
HETATM   27  H   UNL     1     -40.350  56.283 -50.380  1.00  0.00     0.209 HD
ENDBRANCH  25  26
ENDBRANCH  11  25
BRANCH   7  28
HETATM   28  N   UNL     1     -44.241  59.166 -50.759  1.00  0.00    -0.305 N 
HETATM   29  C   UNL     1     -45.523  59.511 -50.390  1.00  0.00     0.227 C 
HETATM   30  O   UNL     1     -46.535  58.870 -50.679  1.00  0.00    -0.273 OA
HETATM   31  H   UNL     1     -43.460  59.763 -50.539  1.00  0.00     0.171 HD
BRANCH  29  32
HETATM   32  C   UNL     1     -45.567  60.841 -49.580  1.00  0.00     0.078 C 
HETATM   33  C   UNL     1     -45.616  60.722 -48.031  1.00  0.00     0.014 C 
HETATM   34  C   UNL     1     -44.728  61.980 -47.972  1.00  0.00     0.002 C 
HETATM   35  C   UNL     1     -44.232  61.610 -49.384  1.00  0.00     0.014 C 
ENDBRANCH  29  32
ENDBRANCH   7  28
BRANCH  13  36
HETATM   36  O   UNL     1     -40.232  51.993 -53.968  1.00  0.00    -0.395 OA
HETATM   37  H   UNL     1     -39.831  51.449 -53.267  1.00  0.00     0.210 HD
ENDBRANCH  13  36
TORSDOF 10
ENDMDL
MODEL 9
REMARK VINA RESULT:      -6.7      2.752      7.620
REMARK  10 active torsions:
REMARK  status: ('A' for Active; 'I' for Inactive)
REMARK    1  A    between atoms: C_3  and  C_4 
REMARK    2  A    between atoms: C_4  and  C_5 
REMARK       I    between atoms: C_5  and  N_6 
REMARK    3  A    between atoms: N_6  and  C_7 
REMARK    4  A    between atoms: C_7  and  C_8 
REMARK    5  A    between atoms: C_8  and  O_9 
REMARK    6  A    between atoms: C_15  and  N_16 
REMARK       I    between atoms: N_16  and  C_17 
REMARK    7  A    between atoms: C_17  and  C_18 
REMARK    8  A    between atoms: C_26  and  C_27 
REMARK    9  A    between atoms: C_27  and  O_28 
REMARK   10  A    between atoms: C_30  and  O_31 
ROOT
HETATM    1  C   UNL     1     -41.985  56.679 -60.187  1.00  0.00     0.016 C 
HETATM    2  C   UNL     1     -43.353  56.379 -59.476  1.00  0.00    -0.030 C 
HETATM    3  C   UNL     1     -43.006  56.405 -57.899  1.00  0.00     0.056 C 
HETATM    4  C   UNL     1     -43.282  57.769 -57.302  1.00  0.00     0.056 A 
HETATM    5  C   UNL     1     -43.705  58.871 -58.013  1.00  0.00     0.012 A 
HETATM    6  S   UNL     1     -43.862  60.224 -56.988  1.00  0.00    -0.055 SA
HETATM    7  C   UNL     1     -43.446  59.229 -55.665  1.00  0.00     0.173 A 
HETATM    8  N   UNL     1     -43.161  57.981 -55.940  1.00  0.00    -0.227 NA
HETATM    9  C   UNL     1     -43.999  58.910 -59.462  1.00  0.00     0.055 C 
HETATM   10  C   UNL     1     -44.379  57.498 -59.978  1.00  0.00     0.012 C 
HETATM   11  C   UNL     1     -45.916  57.137 -59.845  1.00  0.00     0.008 C 
HETATM   12  C   UNL     1     -46.769  58.176 -60.629  1.00  0.00     0.020 C 
HETATM   13  C   UNL     1     -46.164  55.743 -60.490  1.00  0.00     0.128 C 
HETATM   14  C   UNL     1     -45.271  54.659 -59.895  1.00  0.00     0.033 C 
HETATM   15  C   UNL     1     -43.784  54.992 -60.027  1.00  0.00     0.013 C 
ENDROOT
BRANCH   3  16
HETATM   16  C   UNL     1     -43.581  55.287 -57.005  1.00  0.00     0.114 C 
BRANCH  16  17
HETATM   17  C   UNL     1     -42.653  54.899 -55.864  1.00  0.00     0.218 C 
HETATM   18  N   UNL     1     -41.422  55.495 -55.872  1.00  0.00    -0.359 N 
HETATM   19  H   UNL     1     -41.142  56.077 -56.667  1.00  0.00     0.162 HD
HETATM   20  O   UNL     1     -43.021  54.129 -54.978  1.00  0.00    -0.274 OA
BRANCH  18  21
HETATM   21  C   UNL     1     -40.486  55.364 -54.770  1.00  0.00     0.148 C 
BRANCH  21  22
HETATM   22  C   UNL     1     -40.666  56.414 -53.670  1.00  0.00     0.186 C 
BRANCH  22  23
HETATM   23  O   UNL     1     -41.475  55.886 -52.612  1.00  0.00    -0.394 OA
HETATM   24  C   UNL     1     -42.603  56.713 -52.365  1.00  0.00     0.201 C 
ENDBRANCH  22  23
ENDBRANCH  21  22
ENDBRANCH  18  21
ENDBRANCH  16  17
ENDBRANCH   3  16
BRANCH  11  25
HETATM   25  C   UNL     1     -46.432  57.142 -58.386  1.00  0.00     0.176 C 
BRANCH  25  26
HETATM   26  O   UNL     1     -47.248  58.284 -58.141  1.00  0.00    -0.400 OA
HETATM   27  H   UNL     1     -47.917  58.314 -58.849  1.00  0.00     0.209 HD
ENDBRANCH  25  26
ENDBRANCH  11  25
BRANCH   7  28
HETATM   28  N   UNL     1     -43.484  59.867 -54.460  1.00  0.00    -0.305 N 
HETATM   29  C   UNL     1     -42.346  60.155 -53.738  1.00  0.00     0.227 C 
HETATM   30  O   UNL     1     -41.200  59.865 -54.086  1.00  0.00    -0.273 OA
HETATM   31  H   UNL     1     -44.398  60.080 -54.093  1.00  0.00     0.171 HD
BRANCH  29  32
HETATM   32  C   UNL     1     -42.665  60.869 -52.391  1.00  0.00     0.078 C 
HETATM   33  C   UNL     1     -44.002  60.494 -51.693  1.00  0.00     0.014 C 
HETATM   34  C   UNL     1     -43.265  60.642 -50.348  1.00  0.00     0.002 C 
HETATM   35  C   UNL     1     -41.959  60.344 -51.111  1.00  0.00     0.014 C 
ENDBRANCH  29  32
ENDBRANCH   7  28
BRANCH  13  36
HETATM   36  O   UNL     1     -45.901  55.785 -61.898  1.00  0.00    -0.395 OA
HETATM   37  H   UNL     1     -46.501  56.449 -62.281  1.00  0.00     0.210 HD
ENDBRANCH  13  36
TORSDOF 10
ENDMDL
MODEL 10
REMARK VINA RESULT:      -6.6      2.563      6.095
REMARK  10 active torsions:
REMARK  status: ('A' for Active; 'I' for Inactive)
REMARK    1  A    between atoms: C_3  and  C_4 
REMARK    2  A    between atoms: C_4  and  C_5 
REMARK       I    between atoms: C_5  and  N_6 
REMARK    3  A    between atoms: N_6  and  C_7 
REMARK    4  A    between atoms: C_7  and  C_8 
REMARK    5  A    between atoms: C_8  and  O_9 
REMARK    6  A    between atoms: C_15  and  N_16 
REMARK       I    between atoms: N_16  and  C_17 
REMARK    7  A    between atoms: C_17  and  C_18 
REMARK    8  A    between atoms: C_26  and  C_27 
REMARK    9  A    between atoms: C_27  and  O_28 
REMARK   10  A    between atoms: C_30  and  O_31 
ROOT
HETATM    1  C   UNL     1     -40.182  58.208 -52.726  1.00  0.00     0.016 C 
HETATM    2  C   UNL     1     -41.377  57.230 -52.438  1.00  0.00    -0.030 C 
HETATM    3  C   UNL     1     -42.618  57.851 -53.265  1.00  0.00     0.056 C 
HETATM    4  C   UNL     1     -42.745  57.201 -54.627  1.00  0.00     0.056 A 
HETATM    5  C   UNL     1     -41.879  56.256 -55.135  1.00  0.00     0.012 A 
HETATM    6  S   UNL     1     -42.340  55.805 -56.712  1.00  0.00    -0.055 SA
HETATM    7  C   UNL     1     -43.701  56.825 -56.572  1.00  0.00     0.173 A 
HETATM    8  N   UNL     1     -43.809  57.503 -55.457  1.00  0.00    -0.227 NA
HETATM    9  C   UNL     1     -40.708  55.685 -54.435  1.00  0.00     0.055 C 
HETATM   10  C   UNL     1     -40.895  55.778 -52.898  1.00  0.00     0.012 C 
HETATM   11  C   UNL     1     -41.668  54.555 -52.252  1.00  0.00     0.008 C 
HETATM   12  C   UNL     1     -40.910  53.232 -52.561  1.00  0.00     0.020 C 
HETATM   13  C   UNL     1     -41.691  54.733 -50.706  1.00  0.00     0.128 C 
HETATM   14  C   UNL     1     -42.288  56.071 -50.284  1.00  0.00     0.033 C 
HETATM   15  C   UNL     1     -41.543  57.260 -50.894  1.00  0.00     0.013 C 
ENDROOT
BRANCH   3  16
HETATM   16  C   UNL     1     -43.992  57.937 -52.568  1.00  0.00     0.114 C 
BRANCH  16  17
HETATM   17  C   UNL     1     -44.427  59.367 -52.284  1.00  0.00     0.218 C 
HETATM   18  N   UNL     1     -43.435  60.222 -51.889  1.00  0.00    -0.359 N 
HETATM   19  H   UNL     1     -42.494  59.861 -51.707  1.00  0.00     0.162 HD
HETATM   20  O   UNL     1     -45.595  59.721 -52.445  1.00  0.00    -0.274 OA
BRANCH  18  21
HETATM   21  C   UNL     1     -43.650  61.649 -51.742  1.00  0.00     0.148 C 
BRANCH  21  22
HETATM   22  C   UNL     1     -43.406  62.452 -53.023  1.00  0.00     0.186 C 
BRANCH  22  23
HETATM   23  O   UNL     1     -44.619  63.085 -53.447  1.00  0.00    -0.394 OA
HETATM   24  C   UNL     1     -44.414  63.852 -54.626  1.00  0.00     0.201 C 
ENDBRANCH  22  23
ENDBRANCH  21  22
ENDBRANCH  18  21
ENDBRANCH  16  17
ENDBRANCH   3  16
BRANCH  11  25
HETATM   25  C   UNL     1     -43.111  54.380 -52.783  1.00  0.00     0.176 C 
BRANCH  25  26
HETATM   26  O   UNL     1     -43.977  53.909 -51.754  1.00  0.00    -0.400 OA
HETATM   27  H   UNL     1     -43.806  54.456 -50.966  1.00  0.00     0.209 HD
ENDBRANCH  25  26
ENDBRANCH  11  25
BRANCH   7  28
HETATM   28  N   UNL     1     -44.532  56.789 -57.653  1.00  0.00    -0.305 N 
HETATM   29  C   UNL     1     -44.423  57.677 -58.701  1.00  0.00     0.227 C 
HETATM   30  O   UNL     1     -43.592  58.584 -58.771  1.00  0.00    -0.273 OA
HETATM   31  H   UNL     1     -45.272  56.105 -57.629  1.00  0.00     0.171 HD
BRANCH  29  32
HETATM   32  C   UNL     1     -45.503  57.433 -59.797  1.00  0.00     0.078 C 
HETATM   33  C   UNL     1     -45.628  55.988 -60.356  1.00  0.00     0.014 C 
HETATM   34  C   UNL     1     -47.148  56.225 -60.445  1.00  0.00     0.002 C 
HETATM   35  C   UNL     1     -46.978  57.281 -59.335  1.00  0.00     0.014 C 
ENDBRANCH  29  32
ENDBRANCH   7  28
BRANCH  13  36
HETATM   36  O   UNL     1     -40.364  54.671 -50.172  1.00  0.00    -0.395 OA
HETATM   37  H   UNL     1     -40.221  55.489 -49.664  1.00  0.00     0.210 HD
ENDBRANCH  13  36
TORSDOF 10
ENDMDL
