MODEL 1
REMARK VINA RESULT:      -8.1      0.000      0.000
REMARK  7 active torsions:
REMARK  status: ('A' for Active; 'I' for Inactive)
REMARK    1  A    between atoms: C_7  and  C_8 
REMARK    2  A    between atoms: C_8  and  C_9 
REMARK    3  A    between atoms: C_9  and  C_10 
REMARK    4  A    between atoms: C_10  and  O_11 
REMARK    5  A    between atoms: C_13  and  C_14 
REMARK    6  A    between atoms: C_21  and  C_22 
REMARK       I    between atoms: C_22  and  N_23 
REMARK    7  A    between atoms: N_23  and  C_24 
ROOT
HETATM    1  C   UNL     1     -43.801  57.199 -53.374  1.00  0.00     0.070 C 
HETATM    2  C   UNL     1     -43.360  57.550 -54.775  1.00  0.00     0.037 C 
HETATM    3  N   UNL     1     -43.442  58.905 -55.108  1.00  0.00    -0.192 N 
HETATM    4  C   UNL     1     -42.817  59.416 -56.188  1.00  0.00     0.726 A 
HETATM    5  N   UNL     1     -42.346  58.563 -57.144  1.00  0.00    -0.083 N 
HETATM    6  N   UNL     1     -41.646  59.214 -58.095  1.00  0.00    -0.140 NA
HETATM    7  C   UNL     1     -41.762  60.478 -57.662  1.00  0.00     0.166 A 
HETATM    8  N   UNL     1     -42.486  60.642 -56.502  1.00  0.00    -0.046 NA
HETATM    9  C   UNL     1     -42.505  57.110 -57.087  1.00  0.00     0.202 C 
HETATM   10  C   UNL     1     -42.889  56.653 -55.682  1.00  0.00     0.062 C 
HETATM   11  H   UNL     1     -43.650  59.545 -54.345  1.00  0.00     0.184 HD
ENDROOT
BRANCH  10  12
HETATM   12  C   UNL     1     -42.507  55.265 -55.267  1.00  0.00     0.256 C 
HETATM   13  N   UNL     1     -41.321  55.171 -54.568  1.00  0.00    -0.323 N 
HETATM   14  H   UNL     1     -40.738  55.992 -54.497  1.00  0.00     0.169 HD
HETATM   15  O   UNL     1     -43.274  54.337 -55.501  1.00  0.00    -0.267 OA
BRANCH  13  16
HETATM   16  C   UNL     1     -40.812  54.033 -53.902  1.00  0.00     0.035 A 
HETATM   17  C   UNL     1     -40.257  52.926 -54.549  1.00  0.00     0.031 A 
HETATM   18  C   UNL     1     -39.803  51.825 -53.813  1.00  0.00     0.026 A 
HETATM   19  C   UNL     1     -39.909  51.825 -52.426  1.00  0.00     0.034 A 
HETATM   20 CL   UNL     1     -39.364  50.466 -51.524  1.00  0.00    -0.084 Cl
HETATM   21  C   UNL     1     -40.457  52.921 -51.766  1.00  0.00     0.026 A 
HETATM   22  C   UNL     1     -40.901  54.023 -52.502  1.00  0.00     0.031 A 
ENDBRANCH  13  16
ENDBRANCH  10  12
BRANCH   9  23
HETATM   23  C   UNL     1     -43.505  56.684 -58.166  1.00  0.00    -0.028 A 
HETATM   24  C   UNL     1     -43.223  55.564 -58.972  1.00  0.00     0.012 A 
HETATM   25  C   UNL     1     -44.119  55.159 -59.963  1.00  0.00     0.043 A 
HETATM   26  C   UNL     1     -45.296  55.870 -60.160  1.00  0.00     0.116 A 
HETATM   27  F   UNL     1     -46.155  55.478 -61.110  1.00  0.00    -0.206 F 
HETATM   28  C   UNL     1     -45.593  56.987 -59.389  1.00  0.00     0.043 A 
HETATM   29  C   UNL     1     -44.697  57.398 -58.399  1.00  0.00     0.012 A 
ENDBRANCH   9  23
BRANCH   7  30
HETATM   30  C   UNL     1     -41.103  61.615 -58.354  1.00  0.00     0.085 C 
BRANCH  30  31
HETATM   31  C   UNL     1     -41.904  62.135 -59.548  1.00  0.00     0.034 C 
BRANCH  31  32
HETATM   32  C   UNL     1     -41.375  61.641 -60.891  1.00  0.00     0.164 C 
BRANCH  32  33
HETATM   33  O   UNL     1     -41.758  60.285 -61.087  1.00  0.00    -0.401 OA
HETATM   34  H   UNL     1     -42.117  59.956 -60.245  1.00  0.00     0.209 HD
ENDBRANCH  32  33
ENDBRANCH  31  32
ENDBRANCH  30  31
ENDBRANCH   7  30
TORSDOF 7
ENDMDL
MODEL 2
REMARK VINA RESULT:      -8.1      4.165      6.257
REMARK  7 active torsions:
REMARK  status: ('A' for Active; 'I' for Inactive)
REMARK    1  A    between atoms: C_7  and  C_8 
REMARK    2  A    between atoms: C_8  and  C_9 
REMARK    3  A    between atoms: C_9  and  C_10 
REMARK    4  A    between atoms: C_10  and  O_11 
REMARK    5  A    between atoms: C_13  and  C_14 
REMARK    6  A    between atoms: C_21  and  C_22 
REMARK       I    between atoms: C_22  and  N_23 
REMARK    7  A    between atoms: N_23  and  C_24 
ROOT
HETATM    1  C   UNL     1     -42.746  55.924 -56.552  1.00  0.00     0.070 C 
HETATM    2  C   UNL     1     -43.033  56.823 -55.374  1.00  0.00     0.037 C 
HETATM    3  N   UNL     1     -43.564  58.076 -55.691  1.00  0.00    -0.192 N 
HETATM    4  C   UNL     1     -44.146  58.863 -54.764  1.00  0.00     0.726 A 
HETATM    5  N   UNL     1     -43.952  58.582 -53.442  1.00  0.00    -0.083 N 
HETATM    6  N   UNL     1     -44.691  59.380 -52.646  1.00  0.00    -0.140 NA
HETATM    7  C   UNL     1     -45.291  60.153 -53.564  1.00  0.00     0.166 A 
HETATM    8  N   UNL     1     -44.969  59.874 -54.873  1.00  0.00    -0.046 NA
HETATM    9  C   UNL     1     -43.117  57.483 -52.959  1.00  0.00     0.202 C 
HETATM   10  C   UNL     1     -42.827  56.481 -54.074  1.00  0.00     0.062 C 
HETATM   11  H   UNL     1     -43.842  58.216 -56.660  1.00  0.00     0.184 HD
ENDROOT
BRANCH  10  12
HETATM   12  C   UNL     1     -42.550  55.060 -53.686  1.00  0.00     0.256 C 
HETATM   13  N   UNL     1     -41.217  54.749 -53.524  1.00  0.00    -0.323 N 
HETATM   14  H   UNL     1     -40.526  55.434 -53.794  1.00  0.00     0.169 HD
HETATM   15  O   UNL     1     -43.492  54.302 -53.475  1.00  0.00    -0.267 OA
BRANCH  13  16
HETATM   16  C   UNL     1     -40.678  53.556 -52.990  1.00  0.00     0.035 A 
HETATM   17  C   UNL     1     -40.241  52.477 -53.762  1.00  0.00     0.031 A 
HETATM   18  C   UNL     1     -39.747  51.318 -53.151  1.00  0.00     0.026 A 
HETATM   19  C   UNL     1     -39.696  51.231 -51.764  1.00  0.00     0.034 A 
HETATM   20 CL   UNL     1     -39.104  49.801 -51.014  1.00  0.00    -0.084 Cl
HETATM   21  C   UNL     1     -40.126  52.298 -50.980  1.00  0.00     0.026 A 
HETATM   22  C   UNL     1     -40.609  53.459 -51.593  1.00  0.00     0.031 A 
ENDBRANCH  13  16
ENDBRANCH  10  12
BRANCH   9  23
HETATM   23  C   UNL     1     -41.855  58.071 -52.320  1.00  0.00    -0.028 A 
HETATM   24  C   UNL     1     -41.785  58.209 -50.920  1.00  0.00     0.012 A 
HETATM   25  C   UNL     1     -40.646  58.745 -50.315  1.00  0.00     0.043 A 
HETATM   26  C   UNL     1     -39.576  59.152 -51.101  1.00  0.00     0.116 A 
HETATM   27  F   UNL     1     -38.485  59.664 -50.518  1.00  0.00    -0.206 F 
HETATM   28  C   UNL     1     -39.624  59.040 -52.485  1.00  0.00     0.043 A 
HETATM   29  C   UNL     1     -40.763  58.508 -53.094  1.00  0.00     0.012 A 
ENDBRANCH   9  23
BRANCH   7  30
HETATM   30  C   UNL     1     -46.280  61.198 -53.194  1.00  0.00     0.085 C 
BRANCH  30  31
HETATM   31  C   UNL     1     -45.752  62.178 -52.146  1.00  0.00     0.034 C 
BRANCH  31  32
HETATM   32  C   UNL     1     -46.456  62.055 -50.797  1.00  0.00     0.164 C 
BRANCH  32  33
HETATM   33  O   UNL     1     -46.197  60.772 -50.238  1.00  0.00    -0.401 OA
HETATM   34  H   UNL     1     -45.373  60.439 -50.633  1.00  0.00     0.209 HD
ENDBRANCH  32  33
ENDBRANCH  31  32
ENDBRANCH  30  31
ENDBRANCH   7  30
TORSDOF 7
ENDMDL
MODEL 3
REMARK VINA RESULT:      -8.0      1.159      1.279
REMARK  7 active torsions:
REMARK  status: ('A' for Active; 'I' for Inactive)
REMARK    1  A    between atoms: C_7  and  C_8 
REMARK    2  A    between atoms: C_8  and  C_9 
REMARK    3  A    between atoms: C_9  and  C_10 
REMARK    4  A    between atoms: C_10  and  O_11 
REMARK    5  A    between atoms: C_13  and  C_14 
REMARK    6  A    between atoms: C_21  and  C_22 
REMARK       I    between atoms: C_22  and  N_23 
REMARK    7  A    between atoms: N_23  and  C_24 
ROOT
HETATM    1  C   UNL     1     -43.456  57.627 -53.727  1.00  0.00     0.070 C 
HETATM    2  C   UNL     1     -43.168  57.839 -55.193  1.00  0.00     0.037 C 
HETATM    3  N   UNL     1     -43.225  59.166 -55.630  1.00  0.00    -0.192 N 
HETATM    4  C   UNL     1     -42.708  59.553 -56.814  1.00  0.00     0.726 A 
HETATM    5  N   UNL     1     -42.395  58.601 -57.741  1.00  0.00    -0.083 N 
HETATM    6  N   UNL     1     -41.782  59.133 -58.817  1.00  0.00    -0.140 NA
HETATM    7  C   UNL     1     -41.786  60.433 -58.484  1.00  0.00     0.166 A 
HETATM    8  N   UNL     1     -42.360  60.729 -57.268  1.00  0.00    -0.046 NA
HETATM    9  C   UNL     1     -42.614  57.169 -57.542  1.00  0.00     0.202 C 
HETATM   10  C   UNL     1     -42.851  56.848 -56.068  1.00  0.00     0.062 C 
HETATM   11  H   UNL     1     -43.311  59.876 -54.906  1.00  0.00     0.184 HD
ENDROOT
BRANCH  10  12
HETATM   12  C   UNL     1     -42.488  55.478 -55.582  1.00  0.00     0.256 C 
HETATM   13  N   UNL     1     -41.312  55.406 -54.865  1.00  0.00    -0.323 N 
HETATM   14  H   UNL     1     -40.721  56.224 -54.826  1.00  0.00     0.169 HD
HETATM   15  O   UNL     1     -43.262  54.547 -55.780  1.00  0.00    -0.267 OA
BRANCH  13  16
HETATM   16  C   UNL     1     -40.823  54.296 -54.139  1.00  0.00     0.035 A 
HETATM   17  C   UNL     1     -40.302  53.140 -54.725  1.00  0.00     0.031 A 
HETATM   18  C   UNL     1     -39.866  52.073 -53.930  1.00  0.00     0.026 A 
HETATM   19  C   UNL     1     -39.955  52.157 -52.545  1.00  0.00     0.034 A 
HETATM   20 CL   UNL     1     -39.433  50.840 -51.570  1.00  0.00    -0.084 Cl
HETATM   21  C   UNL     1     -40.469  53.303 -51.945  1.00  0.00     0.026 A 
HETATM   22  C   UNL     1     -40.895  54.371 -52.740  1.00  0.00     0.031 A 
ENDBRANCH  13  16
ENDBRANCH  10  12
BRANCH   9  23
HETATM   23  C   UNL     1     -43.755  56.716 -58.459  1.00  0.00    -0.028 A 
HETATM   24  C   UNL     1     -43.588  55.569 -59.260  1.00  0.00     0.012 A 
HETATM   25  C   UNL     1     -44.613  55.140 -60.106  1.00  0.00     0.043 A 
HETATM   26  C   UNL     1     -45.804  55.852 -60.162  1.00  0.00     0.116 A 
HETATM   27  F   UNL     1     -46.785  55.436 -60.972  1.00  0.00    -0.206 F 
HETATM   28  C   UNL     1     -45.989  56.994 -59.393  1.00  0.00     0.043 A 
HETATM   29  C   UNL     1     -44.965  57.430 -58.549  1.00  0.00     0.012 A 
ENDBRANCH   9  23
BRANCH   7  30
HETATM   30  C   UNL     1     -41.161  61.471 -59.342  1.00  0.00     0.085 C 
BRANCH  30  31
HETATM   31  C   UNL     1     -40.209  62.389 -58.575  1.00  0.00     0.034 C 
BRANCH  31  32
HETATM   32  C   UNL     1     -40.778  63.784 -58.336  1.00  0.00     0.164 C 
BRANCH  32  33
HETATM   33  O   UNL     1     -41.622  63.767 -57.190  1.00  0.00    -0.401 OA
HETATM   34  H   UNL     1     -42.543  63.732 -57.503  1.00  0.00     0.209 HD
ENDBRANCH  32  33
ENDBRANCH  31  32
ENDBRANCH  30  31
ENDBRANCH   7  30
TORSDOF 7
ENDMDL
MODEL 4
REMARK VINA RESULT:      -7.6      3.908      5.674
REMARK  7 active torsions:
REMARK  status: ('A' for Active; 'I' for Inactive)
REMARK    1  A    between atoms: C_7  and  C_8 
REMARK    2  A    between atoms: C_8  and  C_9 
REMARK    3  A    between atoms: C_9  and  C_10 
REMARK    4  A    between atoms: C_10  and  O_11 
REMARK    5  A    between atoms: C_13  and  C_14 
REMARK    6  A    between atoms: C_21  and  C_22 
REMARK       I    between atoms: C_22  and  N_23 
REMARK    7  A    between atoms: N_23  and  C_24 
ROOT
HETATM    1  C   UNL     1     -45.517  60.036 -53.479  1.00  0.00     0.070 C 
HETATM    2  C   UNL     1     -45.001  59.149 -54.586  1.00  0.00     0.037 C 
HETATM    3  N   UNL     1     -45.963  58.712 -55.501  1.00  0.00    -0.192 N 
HETATM    4  C   UNL     1     -45.627  58.176 -56.692  1.00  0.00     0.726 A 
HETATM    5  N   UNL     1     -44.339  57.769 -56.894  1.00  0.00    -0.083 N 
HETATM    6  N   UNL     1     -44.134  57.368 -58.164  1.00  0.00    -0.140 NA
HETATM    7  C   UNL     1     -45.364  57.531 -58.674  1.00  0.00     0.166 A 
HETATM    8  N   UNL     1     -46.309  58.011 -57.796  1.00  0.00    -0.046 NA
HETATM    9  C   UNL     1     -43.292  57.850 -55.876  1.00  0.00     0.202 C 
HETATM   10  C   UNL     1     -43.700  58.785 -54.740  1.00  0.00     0.062 C 
HETATM   11  H   UNL     1     -46.883  59.140 -55.427  1.00  0.00     0.184 HD
ENDROOT
BRANCH  10  12
HETATM   12  C   UNL     1     -42.612  59.469 -53.969  1.00  0.00     0.256 C 
HETATM   13  N   UNL     1     -42.118  58.753 -52.899  1.00  0.00    -0.323 N 
HETATM   14  H   UNL     1     -42.590  57.902 -52.629  1.00  0.00     0.169 HD
HETATM   15  O   UNL     1     -42.192  60.553 -54.359  1.00  0.00    -0.267 OA
BRANCH  13  16
HETATM   16  C   UNL     1     -40.982  59.064 -52.117  1.00  0.00     0.035 A 
HETATM   17  C   UNL     1     -39.663  58.882 -52.539  1.00  0.00     0.031 A 
HETATM   18  C   UNL     1     -38.594  59.188 -51.688  1.00  0.00     0.026 A 
HETATM   19  C   UNL     1     -38.842  59.671 -50.407  1.00  0.00     0.034 A 
HETATM   20 CL   UNL     1     -37.528  60.032 -49.358  1.00  0.00    -0.084 Cl
HETATM   21  C   UNL     1     -40.150  59.860 -49.972  1.00  0.00     0.026 A 
HETATM   22  C   UNL     1     -41.216  59.563 -50.827  1.00  0.00     0.031 A 
ENDBRANCH  13  16
ENDBRANCH  10  12
BRANCH   9  23
HETATM   23  C   UNL     1     -42.949  56.432 -55.411  1.00  0.00    -0.028 A 
HETATM   24  C   UNL     1     -41.733  55.845 -55.809  1.00  0.00     0.012 A 
HETATM   25  C   UNL     1     -41.401  54.552 -55.399  1.00  0.00     0.043 A 
HETATM   26  C   UNL     1     -42.281  53.836 -54.597  1.00  0.00     0.116 A 
HETATM   27  F   UNL     1     -41.959  52.597 -54.205  1.00  0.00    -0.206 F 
HETATM   28  C   UNL     1     -43.494  54.386 -54.202  1.00  0.00     0.043 A 
HETATM   29  C   UNL     1     -43.832  55.677 -54.613  1.00  0.00     0.012 A 
ENDBRANCH   9  23
BRANCH   7  30
HETATM   30  C   UNL     1     -45.669  57.268 -60.104  1.00  0.00     0.085 C 
BRANCH  30  31
HETATM   31  C   UNL     1     -46.107  55.827 -60.368  1.00  0.00     0.034 C 
BRANCH  31  32
HETATM   32  C   UNL     1     -44.940  54.846 -60.436  1.00  0.00     0.164 C 
BRANCH  32  33
HETATM   33  O   UNL     1     -45.201  53.733 -59.588  1.00  0.00    -0.401 OA
HETATM   34  H   UNL     1     -45.427  54.079 -58.708  1.00  0.00     0.209 HD
ENDBRANCH  32  33
ENDBRANCH  31  32
ENDBRANCH  30  31
ENDBRANCH   7  30
TORSDOF 7
ENDMDL
MODEL 5
REMARK VINA RESULT:      -7.3      4.205      7.766
REMARK  7 active torsions:
REMARK  status: ('A' for Active; 'I' for Inactive)
REMARK    1  A    between atoms: C_7  and  C_8 
REMARK    2  A    between atoms: C_8  and  C_9 
REMARK    3  A    between atoms: C_9  and  C_10 
REMARK    4  A    between atoms: C_10  and  O_11 
REMARK    5  A    between atoms: C_13  and  C_14 
REMARK    6  A    between atoms: C_21  and  C_22 
REMARK       I    between atoms: C_22  and  N_23 
REMARK    7  A    between atoms: N_23  and  C_24 
ROOT
HETATM    1  C   UNL     1     -42.033  59.514 -57.999  1.00  0.00     0.070 C 
HETATM    2  C   UNL     1     -42.385  58.796 -56.718  1.00  0.00     0.037 C 
HETATM    3  N   UNL     1     -41.985  59.437 -55.542  1.00  0.00    -0.192 N 
HETATM    4  C   UNL     1     -42.476  59.091 -54.335  1.00  0.00     0.726 A 
HETATM    5  N   UNL     1     -43.140  57.905 -54.208  1.00  0.00    -0.083 N 
HETATM    6  N   UNL     1     -43.671  57.758 -52.977  1.00  0.00    -0.140 NA
HETATM    7  C   UNL     1     -43.256  58.893 -52.395  1.00  0.00     0.166 A 
HETATM    8  N   UNL     1     -42.508  59.728 -53.194  1.00  0.00    -0.046 NA
HETATM    9  C   UNL     1     -43.331  56.957 -55.305  1.00  0.00     0.202 C 
HETATM   10  C   UNL     1     -43.059  57.617 -56.655  1.00  0.00     0.062 C 
HETATM   11  H   UNL     1     -41.627  60.385 -55.645  1.00  0.00     0.184 HD
ENDROOT
BRANCH  10  12
HETATM   12  C   UNL     1     -43.758  57.063 -57.860  1.00  0.00     0.256 C 
HETATM   13  N   UNL     1     -45.065  57.475 -58.017  1.00  0.00    -0.323 N 
HETATM   14  H   UNL     1     -45.498  57.998 -57.269  1.00  0.00     0.169 HD
HETATM   15  O   UNL     1     -43.131  56.359 -58.645  1.00  0.00    -0.267 OA
BRANCH  13  16
HETATM   16  C   UNL     1     -45.896  57.264 -59.140  1.00  0.00     0.035 A 
HETATM   17  C   UNL     1     -45.981  56.058 -59.840  1.00  0.00     0.031 A 
HETATM   18  C   UNL     1     -46.810  55.943 -60.962  1.00  0.00     0.026 A 
HETATM   19  C   UNL     1     -47.552  57.038 -61.394  1.00  0.00     0.034 A 
HETATM   20 CL   UNL     1     -48.558  56.901 -62.782  1.00  0.00    -0.084 Cl
HETATM   21  C   UNL     1     -47.480  58.246 -60.706  1.00  0.00     0.026 A 
HETATM   22  C   UNL     1     -46.660  58.356 -59.579  1.00  0.00     0.031 A 
ENDBRANCH  13  16
ENDBRANCH  10  12
BRANCH   9  23
HETATM   23  C   UNL     1     -42.465  55.721 -55.041  1.00  0.00    -0.028 A 
HETATM   24  C   UNL     1     -41.061  55.843 -55.048  1.00  0.00     0.012 A 
HETATM   25  C   UNL     1     -40.252  54.730 -54.812  1.00  0.00     0.043 A 
HETATM   26  C   UNL     1     -40.835  53.491 -54.575  1.00  0.00     0.116 A 
HETATM   27  F   UNL     1     -40.056  52.426 -54.348  1.00  0.00    -0.206 F 
HETATM   28  C   UNL     1     -42.216  53.341 -54.577  1.00  0.00     0.043 A 
HETATM   29  C   UNL     1     -43.030  54.451 -54.817  1.00  0.00     0.012 A 
ENDBRANCH   9  23
BRANCH   7  30
HETATM   30  C   UNL     1     -43.629  59.249 -51.002  1.00  0.00     0.085 C 
BRANCH  30  31
HETATM   31  C   UNL     1     -44.643  60.391 -50.927  1.00  0.00     0.034 C 
BRANCH  31  32
HETATM   32  C   UNL     1     -45.399  60.439 -49.602  1.00  0.00     0.164 C 
BRANCH  32  33
HETATM   33  O   UNL     1     -45.858  59.135 -49.264  1.00  0.00    -0.401 OA
HETATM   34  H   UNL     1     -46.439  58.832 -49.983  1.00  0.00     0.209 HD
ENDBRANCH  32  33
ENDBRANCH  31  32
ENDBRANCH  30  31
ENDBRANCH   7  30
TORSDOF 7
ENDMDL
MODEL 6
REMARK VINA RESULT:      -7.1      4.477      8.841
REMARK  7 active torsions:
REMARK  status: ('A' for Active; 'I' for Inactive)
REMARK    1  A    between atoms: C_7  and  C_8 
REMARK    2  A    between atoms: C_8  and  C_9 
REMARK    3  A    between atoms: C_9  and  C_10 
REMARK    4  A    between atoms: C_10  and  O_11 
REMARK    5  A    between atoms: C_13  and  C_14 
REMARK    6  A    between atoms: C_21  and  C_22 
REMARK       I    between atoms: C_22  and  N_23 
REMARK    7  A    between atoms: N_23  and  C_24 
ROOT
HETATM    1  C   UNL     1     -44.984  58.095 -56.575  1.00  0.00     0.070 C 
HETATM    2  C   UNL     1     -43.826  57.469 -55.836  1.00  0.00     0.037 C 
HETATM    3  N   UNL     1     -44.021  56.147 -55.426  1.00  0.00    -0.192 N 
HETATM    4  C   UNL     1     -42.999  55.360 -55.032  1.00  0.00     0.726 A 
HETATM    5  N   UNL     1     -41.797  55.938 -54.736  1.00  0.00    -0.083 N 
HETATM    6  N   UNL     1     -40.849  55.016 -54.476  1.00  0.00    -0.140 NA
HETATM    7  C   UNL     1     -41.564  53.888 -54.603  1.00  0.00     0.166 A 
HETATM    8  N   UNL     1     -42.890  54.061 -54.930  1.00  0.00    -0.046 NA
HETATM    9  C   UNL     1     -41.552  57.379 -54.790  1.00  0.00     0.202 C 
HETATM   10  C   UNL     1     -42.646  58.094 -55.579  1.00  0.00     0.062 C 
HETATM   11  H   UNL     1     -44.855  55.683 -55.781  1.00  0.00     0.184 HD
ENDROOT
BRANCH  10  12
HETATM   12  C   UNL     1     -42.294  59.383 -56.258  1.00  0.00     0.256 C 
HETATM   13  N   UNL     1     -41.835  59.254 -57.552  1.00  0.00    -0.323 N 
HETATM   14  H   UNL     1     -41.645  58.327 -57.906  1.00  0.00     0.169 HD
HETATM   15  O   UNL     1     -42.491  60.442 -55.672  1.00  0.00    -0.267 OA
BRANCH  13  16
HETATM   16  C   UNL     1     -41.606  60.292 -58.483  1.00  0.00     0.035 A 
HETATM   17  C   UNL     1     -40.881  61.453 -58.204  1.00  0.00     0.031 A 
HETATM   18  C   UNL     1     -40.727  62.448 -59.177  1.00  0.00     0.026 A 
HETATM   19  C   UNL     1     -41.305  62.288 -60.432  1.00  0.00     0.034 A 
HETATM   20 CL   UNL     1     -41.128  63.517 -61.621  1.00  0.00    -0.084 Cl
HETATM   21  C   UNL     1     -42.029  61.137 -60.727  1.00  0.00     0.026 A 
HETATM   22  C   UNL     1     -42.173  60.140 -59.757  1.00  0.00     0.031 A 
ENDBRANCH  13  16
ENDBRANCH  10  12
BRANCH   9  23
HETATM   23  C   UNL     1     -41.387  57.901 -53.359  1.00  0.00    -0.028 A 
HETATM   24  C   UNL     1     -40.229  58.625 -53.014  1.00  0.00     0.012 A 
HETATM   25  C   UNL     1     -40.056  59.109 -51.716  1.00  0.00     0.043 A 
HETATM   26  C   UNL     1     -41.030  58.869 -50.755  1.00  0.00     0.116 A 
HETATM   27  F   UNL     1     -40.861  59.335 -49.511  1.00  0.00    -0.206 F 
HETATM   28  C   UNL     1     -42.175  58.145 -51.065  1.00  0.00     0.043 A 
HETATM   29  C   UNL     1     -42.350  57.656 -52.362  1.00  0.00     0.012 A 
ENDBRANCH   9  23
BRANCH   7  30
HETATM   30  C   UNL     1     -40.950  52.543 -54.460  1.00  0.00     0.085 C 
BRANCH  30  31
HETATM   31  C   UNL     1     -40.173  52.374 -53.154  1.00  0.00     0.034 C 
BRANCH  31  32
HETATM   32  C   UNL     1     -39.545  50.991 -53.001  1.00  0.00     0.164 C 
BRANCH  32  33
HETATM   33  O   UNL     1     -39.620  50.292 -54.238  1.00  0.00    -0.401 OA
HETATM   34  H   UNL     1     -40.099  50.858 -54.868  1.00  0.00     0.209 HD
ENDBRANCH  32  33
ENDBRANCH  31  32
ENDBRANCH  30  31
ENDBRANCH   7  30
TORSDOF 7
ENDMDL
MODEL 7
REMARK VINA RESULT:      -7.0      3.709      5.322
REMARK  7 active torsions:
REMARK  status: ('A' for Active; 'I' for Inactive)
REMARK    1  A    between atoms: C_7  and  C_8 
REMARK    2  A    between atoms: C_8  and  C_9 
REMARK    3  A    between atoms: C_9  and  C_10 
REMARK    4  A    between atoms: C_10  and  O_11 
REMARK    5  A    between atoms: C_13  and  C_14 
REMARK    6  A    between atoms: C_21  and  C_22 
REMARK       I    between atoms: C_22  and  N_23 
REMARK    7  A    between atoms: N_23  and  C_24 
ROOT
HETATM    1  C   UNL     1     -40.950  54.884 -55.804  1.00  0.00     0.070 C 
HETATM    2  C   UNL     1     -42.115  55.842 -55.735  1.00  0.00     0.037 C 
HETATM    3  N   UNL     1     -42.480  56.430 -56.949  1.00  0.00    -0.192 N 
HETATM    4  C   UNL     1     -43.662  57.060 -57.114  1.00  0.00     0.726 A 
HETATM    5  N   UNL     1     -44.388  57.399 -56.009  1.00  0.00    -0.083 N 
HETATM    6  N   UNL     1     -45.591  57.910 -56.339  1.00  0.00    -0.140 NA
HETATM    7  C   UNL     1     -45.511  57.880 -57.678  1.00  0.00     0.166 A 
HETATM    8  N   UNL     1     -44.335  57.378 -58.188  1.00  0.00    -0.046 NA
HETATM    9  C   UNL     1     -43.949  57.147 -54.637  1.00  0.00     0.202 C 
HETATM   10  C   UNL     1     -42.808  56.133 -54.602  1.00  0.00     0.062 C 
HETATM   11  H   UNL     1     -42.031  56.059 -57.784  1.00  0.00     0.184 HD
ENDROOT
BRANCH  10  12
HETATM   12  C   UNL     1     -42.643  55.305 -53.364  1.00  0.00     0.256 C 
HETATM   13  N   UNL     1     -41.460  55.504 -52.683  1.00  0.00    -0.323 N 
HETATM   14  H   UNL     1     -40.747  56.075 -53.114  1.00  0.00     0.169 HD
HETATM   15  O   UNL     1     -43.562  54.578 -53.002  1.00  0.00    -0.267 OA
BRANCH  13  16
HETATM   16  C   UNL     1     -41.117  55.006 -51.406  1.00  0.00     0.035 A 
HETATM   17  C   UNL     1     -40.436  53.806 -51.187  1.00  0.00     0.031 A 
HETATM   18  C   UNL     1     -40.162  53.371 -49.884  1.00  0.00     0.026 A 
HETATM   19  C   UNL     1     -40.576  54.131 -48.796  1.00  0.00     0.034 A 
HETATM   20 CL   UNL     1     -40.252  53.588 -47.196  1.00  0.00    -0.084 Cl
HETATM   21  C   UNL     1     -41.254  55.330 -48.997  1.00  0.00     0.026 A 
HETATM   22  C   UNL     1     -41.518  55.768 -50.298  1.00  0.00     0.031 A 
ENDBRANCH  13  16
ENDBRANCH  10  12
BRANCH   9  23
HETATM   23  C   UNL     1     -43.598  58.487 -53.982  1.00  0.00    -0.028 A 
HETATM   24  C   UNL     1     -44.370  58.954 -52.900  1.00  0.00     0.012 A 
HETATM   25  C   UNL     1     -44.071  60.173 -52.289  1.00  0.00     0.043 A 
HETATM   26  C   UNL     1     -43.007  60.935 -52.755  1.00  0.00     0.116 A 
HETATM   27  F   UNL     1     -42.722  62.103 -52.165  1.00  0.00    -0.206 F 
HETATM   28  C   UNL     1     -42.238  60.504 -53.829  1.00  0.00     0.043 A 
HETATM   29  C   UNL     1     -42.537  59.287 -54.446  1.00  0.00     0.012 A 
ENDBRANCH   9  23
BRANCH   7  30
HETATM   30  C   UNL     1     -46.638  58.305 -58.547  1.00  0.00     0.085 C 
BRANCH  30  31
HETATM   31  C   UNL     1     -46.474  57.859 -60.001  1.00  0.00     0.034 C 
BRANCH  31  32
HETATM   32  C   UNL     1     -47.091  56.492 -60.285  1.00  0.00     0.164 C 
BRANCH  32  33
HETATM   33  O   UNL     1     -46.233  55.469 -59.794  1.00  0.00    -0.401 OA
HETATM   34  H   UNL     1     -45.823  55.796 -58.975  1.00  0.00     0.209 HD
ENDBRANCH  32  33
ENDBRANCH  31  32
ENDBRANCH  30  31
ENDBRANCH   7  30
TORSDOF 7
ENDMDL
MODEL 8
REMARK VINA RESULT:      -6.9      3.958      8.445
REMARK  7 active torsions:
REMARK  status: ('A' for Active; 'I' for Inactive)
REMARK    1  A    between atoms: C_7  and  C_8 
REMARK    2  A    between atoms: C_8  and  C_9 
REMARK    3  A    between atoms: C_9  and  C_10 
REMARK    4  A    between atoms: C_10  and  O_11 
REMARK    5  A    between atoms: C_13  and  C_14 
REMARK    6  A    between atoms: C_21  and  C_22 
REMARK       I    between atoms: C_22  and  N_23 
REMARK    7  A    between atoms: N_23  and  C_24 
ROOT
HETATM    1  C   UNL     1     -43.987  55.993 -59.460  1.00  0.00     0.070 C 
HETATM    2  C   UNL     1     -43.344  56.153 -58.104  1.00  0.00     0.037 C 
HETATM    3  N   UNL     1     -43.580  55.111 -57.202  1.00  0.00    -0.192 N 
HETATM    4  C   UNL     1     -42.848  54.955 -56.080  1.00  0.00     0.726 A 
HETATM    5  N   UNL     1     -42.066  55.989 -55.652  1.00  0.00    -0.083 N 
HETATM    6  N   UNL     1     -41.309  55.640 -54.593  1.00  0.00    -0.140 NA
HETATM    7  C   UNL     1     -41.714  54.374 -54.410  1.00  0.00     0.166 A 
HETATM    8  N   UNL     1     -42.668  53.925 -55.295  1.00  0.00    -0.046 NA
HETATM    9  C   UNL     1     -41.992  57.286 -56.326  1.00  0.00     0.202 C 
HETATM   10  C   UNL     1     -42.564  57.205 -57.739  1.00  0.00     0.062 C 
HETATM   11  H   UNL     1     -44.036  54.283 -57.578  1.00  0.00     0.184 HD
ENDROOT
BRANCH  10  12
HETATM   12  C   UNL     1     -42.048  58.172 -58.761  1.00  0.00     0.256 C 
HETATM   13  N   UNL     1     -42.258  59.502 -58.464  1.00  0.00    -0.323 N 
HETATM   14  H   UNL     1     -42.841  59.732 -57.671  1.00  0.00     0.169 HD
HETATM   15  O   UNL     1     -41.431  57.746 -59.732  1.00  0.00    -0.267 OA
BRANCH  13  16
HETATM   16  C   UNL     1     -41.726  60.622 -59.142  1.00  0.00     0.035 A 
HETATM   17  C   UNL     1     -41.995  60.933 -60.477  1.00  0.00     0.031 A 
HETATM   18  C   UNL     1     -41.401  62.047 -61.082  1.00  0.00     0.026 A 
HETATM   19  C   UNL     1     -40.530  62.852 -60.354  1.00  0.00     0.034 A 
HETATM   20 CL   UNL     1     -39.790  64.212 -61.102  1.00  0.00    -0.084 Cl
HETATM   21  C   UNL     1     -40.254  62.557 -59.022  1.00  0.00     0.026 A 
HETATM   22  C   UNL     1     -40.856  61.450 -58.417  1.00  0.00     0.031 A 
ENDBRANCH  13  16
ENDBRANCH  10  12
BRANCH   9  23
HETATM   23  C   UNL     1     -42.678  58.335 -55.445  1.00  0.00    -0.028 A 
HETATM   24  C   UNL     1     -41.898  59.296 -54.774  1.00  0.00     0.012 A 
HETATM   25  C   UNL     1     -42.501  60.260 -53.964  1.00  0.00     0.043 A 
HETATM   26  C   UNL     1     -43.882  60.267 -53.814  1.00  0.00     0.116 A 
HETATM   27  F   UNL     1     -44.458  61.194 -53.038  1.00  0.00    -0.206 F 
HETATM   28  C   UNL     1     -44.674  59.322 -54.453  1.00  0.00     0.043 A 
HETATM   29  C   UNL     1     -44.074  58.353 -55.261  1.00  0.00     0.012 A 
ENDBRANCH   9  23
BRANCH   7  30
HETATM   30  C   UNL     1     -41.128  53.500 -53.362  1.00  0.00     0.085 C 
BRANCH  30  31
HETATM   31  C   UNL     1     -40.171  52.449 -53.924  1.00  0.00     0.034 C 
BRANCH  31  32
HETATM   32  C   UNL     1     -39.643  51.486 -52.864  1.00  0.00     0.164 C 
BRANCH  32  33
HETATM   33  O   UNL     1     -39.450  52.182 -51.638  1.00  0.00    -0.401 OA
HETATM   34  H   UNL     1     -40.217  51.996 -51.070  1.00  0.00     0.209 HD
ENDBRANCH  32  33
ENDBRANCH  31  32
ENDBRANCH  30  31
ENDBRANCH   7  30
TORSDOF 7
ENDMDL
MODEL 9
REMARK VINA RESULT:      -6.9      4.814      8.125
REMARK  7 active torsions:
REMARK  status: ('A' for Active; 'I' for Inactive)
REMARK    1  A    between atoms: C_7  and  C_8 
REMARK    2  A    between atoms: C_8  and  C_9 
REMARK    3  A    between atoms: C_9  and  C_10 
REMARK    4  A    between atoms: C_10  and  O_11 
REMARK    5  A    between atoms: C_13  and  C_14 
REMARK    6  A    between atoms: C_21  and  C_22 
REMARK       I    between atoms: C_22  and  N_23 
REMARK    7  A    between atoms: N_23  and  C_24 
ROOT
HETATM    1  C   UNL     1     -41.231  58.349 -50.588  1.00  0.00     0.070 C 
HETATM    2  C   UNL     1     -41.782  57.432 -51.653  1.00  0.00     0.037 C 
HETATM    3  N   UNL     1     -40.868  56.521 -52.190  1.00  0.00    -0.192 N 
HETATM    4  C   UNL     1     -41.262  55.453 -52.915  1.00  0.00     0.726 A 
HETATM    5  N   UNL     1     -42.540  55.415 -53.393  1.00  0.00    -0.083 N 
HETATM    6  N   UNL     1     -42.816  54.239 -53.991  1.00  0.00    -0.140 NA
HETATM    7  C   UNL     1     -41.634  53.617 -53.865  1.00  0.00     0.166 A 
HETATM    8  N   UNL     1     -40.652  54.338 -53.222  1.00  0.00    -0.046 NA
HETATM    9  C   UNL     1     -43.515  56.487 -53.194  1.00  0.00     0.202 C 
HETATM   10  C   UNL     1     -43.072  57.435 -52.082  1.00  0.00     0.062 C 
HETATM   11  H   UNL     1     -39.965  56.458 -51.723  1.00  0.00     0.184 HD
ENDROOT
BRANCH  10  12
HETATM   12  C   UNL     1     -44.133  58.176 -51.327  1.00  0.00     0.256 C 
HETATM   13  N   UNL     1     -44.014  59.550 -51.351  1.00  0.00    -0.323 N 
HETATM   14  H   UNL     1     -43.178  59.954 -51.748  1.00  0.00     0.169 HD
HETATM   15  O   UNL     1     -45.051  57.547 -50.810  1.00  0.00    -0.267 OA
BRANCH  13  16
HETATM   16  C   UNL     1     -44.957  60.496 -50.889  1.00  0.00     0.035 A 
HETATM   17  C   UNL     1     -45.954  61.065 -51.685  1.00  0.00     0.031 A 
HETATM   18  C   UNL     1     -46.830  62.019 -51.154  1.00  0.00     0.026 A 
HETATM   19  C   UNL     1     -46.707  62.414 -49.826  1.00  0.00     0.034 A 
HETATM   20 CL   UNL     1     -47.774  63.597 -49.179  1.00  0.00    -0.084 Cl
HETATM   21  C   UNL     1     -45.720  61.854 -49.019  1.00  0.00     0.026 A 
HETATM   22  C   UNL     1     -44.853  60.894 -49.548  1.00  0.00     0.031 A 
ENDBRANCH  13  16
ENDBRANCH  10  12
BRANCH   9  23
HETATM   23  C   UNL     1     -43.757  57.185 -54.536  1.00  0.00    -0.028 A 
HETATM   24  C   UNL     1     -45.064  57.567 -54.895  1.00  0.00     0.012 A 
HETATM   25  C   UNL     1     -45.308  58.202 -56.114  1.00  0.00     0.043 A 
HETATM   26  C   UNL     1     -44.254  58.455 -56.983  1.00  0.00     0.116 A 
HETATM   27  F   UNL     1     -44.491  59.066 -58.150  1.00  0.00    -0.206 F 
HETATM   28  C   UNL     1     -42.957  58.077 -56.659  1.00  0.00     0.043 A 
HETATM   29  C   UNL     1     -42.708  57.437 -55.442  1.00  0.00     0.012 A 
ENDBRANCH   9  23
BRANCH   7  30
HETATM   30  C   UNL     1     -41.419  52.224 -54.333  1.00  0.00     0.085 C 
BRANCH  30  31
HETATM   31  C   UNL     1     -39.981  51.742 -54.141  1.00  0.00     0.034 C 
BRANCH  31  32
HETATM   32  C   UNL     1     -39.888  50.284 -53.702  1.00  0.00     0.164 C 
BRANCH  32  33
HETATM   33  O   UNL     1     -39.955  49.435 -54.842  1.00  0.00    -0.401 OA
HETATM   34  H   UNL     1     -39.467  48.620 -54.632  1.00  0.00     0.209 HD
ENDBRANCH  32  33
ENDBRANCH  31  32
ENDBRANCH  30  31
ENDBRANCH   7  30
TORSDOF 7
ENDMDL
MODEL 10
REMARK VINA RESULT:      -6.7      2.063      2.714
REMARK  7 active torsions:
REMARK  status: ('A' for Active; 'I' for Inactive)
REMARK    1  A    between atoms: C_7  and  C_8 
REMARK    2  A    between atoms: C_8  and  C_9 
REMARK    3  A    between atoms: C_9  and  C_10 
REMARK    4  A    between atoms: C_10  and  O_11 
REMARK    5  A    between atoms: C_13  and  C_14 
REMARK    6  A    between atoms: C_21  and  C_22 
REMARK       I    between atoms: C_22  and  N_23 
REMARK    7  A    between atoms: N_23  and  C_24 
ROOT
HETATM    1  C   UNL     1     -43.046  60.237 -53.228  1.00  0.00     0.070 C 
HETATM    2  C   UNL     1     -42.707  60.112 -54.694  1.00  0.00     0.037 C 
HETATM    3  N   UNL     1     -42.951  61.251 -55.466  1.00  0.00    -0.192 N 
HETATM    4  C   UNL     1     -42.433  61.404 -56.701  1.00  0.00     0.726 A 
HETATM    5  N   UNL     1     -41.914  60.314 -57.339  1.00  0.00    -0.083 N 
HETATM    6  N   UNL     1     -41.330  60.649 -58.507  1.00  0.00    -0.140 NA
HETATM    7  C   UNL     1     -41.565  61.969 -58.529  1.00  0.00     0.166 A 
HETATM    8  N   UNL     1     -42.252  62.465 -57.443  1.00  0.00    -0.046 NA
HETATM    9  C   UNL     1     -41.910  58.966 -56.773  1.00  0.00     0.202 C 
HETATM   10  C   UNL     1     -42.181  58.999 -55.271  1.00  0.00     0.062 C 
HETATM   11  H   UNL     1     -43.195  62.097 -54.956  1.00  0.00     0.184 HD
ENDROOT
BRANCH  10  12
HETATM   12  C   UNL     1     -41.632  57.883 -54.434  1.00  0.00     0.256 C 
HETATM   13  N   UNL     1     -42.097  56.626 -54.760  1.00  0.00    -0.323 N 
HETATM   14  H   UNL     1     -42.850  56.550 -55.429  1.00  0.00     0.169 HD
HETATM   15  O   UNL     1     -40.781  58.133 -53.586  1.00  0.00    -0.267 OA
BRANCH  13  16
HETATM   16  C   UNL     1     -41.622  55.388 -54.271  1.00  0.00     0.035 A 
HETATM   17  C   UNL     1     -41.923  54.875 -53.007  1.00  0.00     0.031 A 
HETATM   18  C   UNL     1     -41.385  53.651 -52.590  1.00  0.00     0.026 A 
HETATM   19  C   UNL     1     -40.537  52.940 -53.433  1.00  0.00     0.034 A 
HETATM   20 CL   UNL     1     -39.865  51.445 -52.914  1.00  0.00    -0.084 Cl
HETATM   21  C   UNL     1     -40.230  53.437 -54.697  1.00  0.00     0.026 A 
HETATM   22  C   UNL     1     -40.776  54.654 -55.116  1.00  0.00     0.031 A 
ENDBRANCH  13  16
ENDBRANCH  10  12
BRANCH   9  23
HETATM   23  C   UNL     1     -42.904  58.103 -57.557  1.00  0.00    -0.028 A 
HETATM   24  C   UNL     1     -44.275  58.425 -57.530  1.00  0.00     0.012 A 
HETATM   25  C   UNL     1     -45.199  57.651 -58.235  1.00  0.00     0.043 A 
HETATM   26  C   UNL     1     -44.764  56.551 -58.964  1.00  0.00     0.116 A 
HETATM   27  F   UNL     1     -45.653  55.813 -59.640  1.00  0.00    -0.206 F 
HETATM   28  C   UNL     1     -43.420  56.204 -58.996  1.00  0.00     0.043 A 
HETATM   29  C   UNL     1     -42.492  56.972 -58.289  1.00  0.00     0.012 A 
ENDBRANCH   9  23
BRANCH   7  30
HETATM   30  C   UNL     1     -41.065  62.844 -59.620  1.00  0.00     0.085 C 
BRANCH  30  31
HETATM   31  C   UNL     1     -39.611  63.274 -59.425  1.00  0.00     0.034 C 
BRANCH  31  32
HETATM   32  C   UNL     1     -39.470  64.656 -58.791  1.00  0.00     0.164 C 
BRANCH  32  33
HETATM   33  O   UNL     1     -39.873  64.600 -57.428  1.00  0.00    -0.401 OA
HETATM   34  H   UNL     1     -40.830  64.423 -57.410  1.00  0.00     0.209 HD
ENDBRANCH  32  33
ENDBRANCH  31  32
ENDBRANCH  30  31
ENDBRANCH   7  30
TORSDOF 7
ENDMDL
