MODEL 1
REMARK VINA RESULT:      -8.6      0.000      0.000
REMARK  6 active torsions:
REMARK  status: ('A' for Active; 'I' for Inactive)
REMARK    1  A    between atoms: C_2  and  C_3 
REMARK    2  A    between atoms: C_3  and  C_4 
REMARK    3  A    between atoms: C_7  and  C_8 
REMARK    4  A    between atoms: C_14  and  C_15 
REMARK    5  A    between atoms: C_18  and  N_19 
REMARK       I    between atoms: N_19  and  C_20 
REMARK    6  A    between atoms: C_28  and  N_29 
ROOT
HETATM    1  C   UNL     1     -43.143  54.846 -51.387  1.00  0.00     0.099 A 
HETATM    2  N   UNL     1     -44.082  54.270 -50.607  1.00  0.00    -0.172 NA
HETATM    3  N   UNL     1     -44.903  55.272 -50.253  1.00  0.00    -0.256 N 
HETATM    4  H   UNL     1     -45.689  55.071 -49.645  1.00  0.00     0.191 HD
HETATM    5  C   UNL     1     -44.530  56.463 -50.774  1.00  0.00     0.175 A 
HETATM    6  C   UNL     1     -43.411  56.237 -51.538  1.00  0.00     0.040 A 
HETATM    7  C   UNL     1     -42.787  57.376 -52.277  1.00  0.00     0.105 C 
HETATM    8  C   UNL     1     -43.418  58.697 -51.830  1.00  0.00     0.067 C 
HETATM    9  C   UNL     1     -42.672  59.979 -52.159  1.00  0.00     0.020 C 
HETATM   10  N   UNL     1     -42.053  61.043 -52.431  1.00  0.00    -0.096 N 
HETATM   11  C   UNL     1     -44.518  58.767 -51.032  1.00  0.00     0.139 C 
HETATM   12  O   UNL     1     -45.157  57.612 -50.552  1.00  0.00    -0.279 OA
ENDROOT
BRANCH   7  13
HETATM   13  C   UNL     1     -43.016  57.076 -53.753  1.00  0.00    -0.044 A 
HETATM   14  C   UNL     1     -44.299  57.094 -54.329  1.00  0.00     0.010 A 
HETATM   15  C   UNL     1     -44.495  56.762 -55.674  1.00  0.00     0.030 A 
HETATM   16  C   UNL     1     -43.415  56.409 -56.481  1.00  0.00     0.034 A 
HETATM   17  C   UNL     1     -42.132  56.412 -55.923  1.00  0.00     0.030 A 
HETATM   18  C   UNL     1     -41.932  56.745 -54.578  1.00  0.00     0.010 A 
BRANCH  16  19
HETATM   19  N   UNL     1     -43.534  56.027 -57.832  1.00  0.00    -0.328 N 
HETATM   20  C   UNL     1     -43.822  56.839 -58.915  1.00  0.00     0.218 C 
HETATM   21  C   UNL     1     -43.920  56.057 -60.202  1.00  0.00     0.117 C 
HETATM   22  O   UNL     1     -43.968  58.056 -58.910  1.00  0.00    -0.274 OA
HETATM   23  H   UNL     1     -43.401  55.042 -58.026  1.00  0.00     0.169 HD
ENDBRANCH  16  19
ENDBRANCH   7  13
BRANCH  11  24
HETATM   24  N   UNL     1     -45.111  59.927 -50.586  1.00  0.00    -0.282 NA
HETATM   25  H   UNL     1     -46.080  60.061 -50.867  1.00  0.00     0.126 HD
HETATM   26  H   UNL     1     -44.966  60.070 -49.590  1.00  0.00     0.126 HD
ENDBRANCH  11  24
BRANCH   1  27
HETATM   27  C   UNL     1     -42.062  54.033 -51.948  1.00  0.00    -0.005 A 
HETATM   28  C   UNL     1     -42.111  53.649 -53.295  1.00  0.00     0.014 A 
HETATM   29  C   UNL     1     -41.110  52.848 -53.850  1.00  0.00     0.008 A 
HETATM   30  C   UNL     1     -40.034  52.416 -53.067  1.00  0.00    -0.058 A 
HETATM   31  C   UNL     1     -39.981  52.797 -51.722  1.00  0.00     0.008 A 
HETATM   32  C   UNL     1     -40.992  53.589 -51.163  1.00  0.00     0.014 A 
BRANCH  30  33
HETATM   33  C   UNL     1     -38.955  51.544 -53.665  1.00  0.00     0.042 C 
BRANCH  33  34
HETATM   34  C   UNL     1     -39.345  50.057 -53.770  1.00  0.00    -0.019 C 
HETATM   35  C   UNL     1     -40.585  49.844 -54.643  1.00  0.00     0.010 C 
HETATM   36  C   UNL     1     -39.602  49.491 -52.371  1.00  0.00     0.010 C 
ENDBRANCH  33  34
ENDBRANCH  30  33
ENDBRANCH   1  27
TORSDOF 6
ENDMDL
MODEL 2
REMARK VINA RESULT:      -8.0      2.259      3.003
REMARK  6 active torsions:
REMARK  status: ('A' for Active; 'I' for Inactive)
REMARK    1  A    between atoms: C_2  and  C_3 
REMARK    2  A    between atoms: C_3  and  C_4 
REMARK    3  A    between atoms: C_7  and  C_8 
REMARK    4  A    between atoms: C_14  and  C_15 
REMARK    5  A    between atoms: C_18  and  N_19 
REMARK       I    between atoms: N_19  and  C_20 
REMARK    6  A    between atoms: C_28  and  N_29 
ROOT
HETATM    1  C   UNL     1     -43.828  57.383 -52.987  1.00  0.00     0.099 A 
HETATM    2  N   UNL     1     -44.648  57.194 -51.931  1.00  0.00    -0.172 NA
HETATM    3  N   UNL     1     -45.364  58.327 -51.839  1.00  0.00    -0.256 N 
HETATM    4  H   UNL     1     -46.047  58.417 -51.096  1.00  0.00     0.191 HD
HETATM    5  C   UNL     1     -45.037  59.231 -52.792  1.00  0.00     0.175 A 
HETATM    6  C   UNL     1     -44.066  58.658 -53.576  1.00  0.00     0.040 A 
HETATM    7  C   UNL     1     -43.530  59.416 -54.747  1.00  0.00     0.105 C 
HETATM    8  C   UNL     1     -44.030  60.861 -54.707  1.00  0.00     0.067 C 
HETATM    9  C   UNL     1     -43.301  61.882 -55.565  1.00  0.00     0.020 C 
HETATM   10  N   UNL     1     -42.696  62.729 -56.276  1.00  0.00    -0.096 N 
HETATM   11  C   UNL     1     -44.983  61.299 -53.839  1.00  0.00     0.139 C 
HETATM   12  O   UNL     1     -45.578  60.438 -52.901  1.00  0.00    -0.279 OA
ENDROOT
BRANCH   7  13
HETATM   13  C   UNL     1     -44.006  58.653 -55.976  1.00  0.00    -0.044 A 
HETATM   14  C   UNL     1     -45.297  58.823 -56.507  1.00  0.00     0.010 A 
HETATM   15  C   UNL     1     -45.734  58.073 -57.605  1.00  0.00     0.030 A 
HETATM   16  C   UNL     1     -44.893  57.139 -58.205  1.00  0.00     0.034 A 
HETATM   17  C   UNL     1     -43.598  56.981 -57.699  1.00  0.00     0.030 A 
HETATM   18  C   UNL     1     -43.157  57.730 -56.602  1.00  0.00     0.010 A 
BRANCH  16  19
HETATM   19  N   UNL     1     -45.270  56.320 -59.288  1.00  0.00    -0.328 N 
HETATM   20  C   UNL     1     -44.537  56.042 -60.428  1.00  0.00     0.218 C 
HETATM   21  C   UNL     1     -45.297  55.164 -61.393  1.00  0.00     0.117 C 
HETATM   22  O   UNL     1     -43.396  56.407 -60.682  1.00  0.00    -0.274 OA
HETATM   23  H   UNL     1     -46.188  55.897 -59.223  1.00  0.00     0.169 HD
ENDBRANCH  16  19
ENDBRANCH   7  13
BRANCH  11  24
HETATM   24  N   UNL     1     -45.453  62.589 -53.749  1.00  0.00    -0.282 NA
HETATM   25  H   UNL     1     -44.907  63.291 -54.244  1.00  0.00     0.126 HD
HETATM   26  H   UNL     1     -46.447  62.648 -53.955  1.00  0.00     0.126 HD
ENDBRANCH  11  24
BRANCH   1  27
HETATM   27  C   UNL     1     -42.884  56.333 -53.372  1.00  0.00    -0.005 A 
HETATM   28  C   UNL     1     -43.363  55.139 -53.927  1.00  0.00     0.014 A 
HETATM   29  C   UNL     1     -42.488  54.107 -54.277  1.00  0.00     0.008 A 
HETATM   30  C   UNL     1     -41.110  54.251 -54.080  1.00  0.00    -0.058 A 
HETATM   31  C   UNL     1     -40.627  55.442 -53.526  1.00  0.00     0.008 A 
HETATM   32  C   UNL     1     -41.506  56.470 -53.164  1.00  0.00     0.014 A 
BRANCH  30  33
HETATM   33  C   UNL     1     -40.164  53.133 -54.451  1.00  0.00     0.042 C 
BRANCH  33  34
HETATM   34  C   UNL     1     -40.355  51.853 -53.614  1.00  0.00    -0.019 C 
HETATM   35  C   UNL     1     -39.585  51.907 -52.292  1.00  0.00     0.010 C 
HETATM   36  C   UNL     1     -39.897  50.635 -54.422  1.00  0.00     0.010 C 
ENDBRANCH  33  34
ENDBRANCH  30  33
ENDBRANCH   1  27
TORSDOF 6
ENDMDL
MODEL 3
REMARK VINA RESULT:      -7.9      1.809      2.246
REMARK  6 active torsions:
REMARK  status: ('A' for Active; 'I' for Inactive)
REMARK    1  A    between atoms: C_2  and  C_3 
REMARK    2  A    between atoms: C_3  and  C_4 
REMARK    3  A    between atoms: C_7  and  C_8 
REMARK    4  A    between atoms: C_14  and  C_15 
REMARK    5  A    between atoms: C_18  and  N_19 
REMARK       I    between atoms: N_19  and  C_20 
REMARK    6  A    between atoms: C_28  and  N_29 
ROOT
HETATM    1  C   UNL     1     -43.756  56.824 -51.878  1.00  0.00     0.099 A 
HETATM    2  N   UNL     1     -44.549  56.444 -50.854  1.00  0.00    -0.172 NA
HETATM    3  N   UNL     1     -45.242  57.546 -50.522  1.00  0.00    -0.256 N 
HETATM    4  H   UNL     1     -45.903  57.498 -49.755  1.00  0.00     0.191 HD
HETATM    5  C   UNL     1     -44.927  58.614 -51.291  1.00  0.00     0.175 A 
HETATM    6  C   UNL     1     -43.989  58.192 -52.202  1.00  0.00     0.040 A 
HETATM    7  C   UNL     1     -43.472  59.157 -53.220  1.00  0.00     0.105 C 
HETATM    8  C   UNL     1     -43.946  60.572 -52.886  1.00  0.00     0.067 C 
HETATM    9  C   UNL     1     -43.224  61.732 -53.552  1.00  0.00     0.020 C 
HETATM   10  N   UNL     1     -42.625  62.693 -54.104  1.00  0.00    -0.096 N 
HETATM   11  C   UNL     1     -44.867  60.844 -51.920  1.00  0.00     0.139 C 
HETATM   12  O   UNL     1     -45.449  59.826 -51.148  1.00  0.00    -0.279 OA
ENDROOT
BRANCH   7  13
HETATM   13  C   UNL     1     -43.996  58.652 -54.558  1.00  0.00    -0.044 A 
HETATM   14  C   UNL     1     -45.361  58.701 -54.892  1.00  0.00     0.010 A 
HETATM   15  C   UNL     1     -45.830  58.184 -56.105  1.00  0.00     0.030 A 
HETATM   16  C   UNL     1     -44.949  57.609 -57.018  1.00  0.00     0.034 A 
HETATM   17  C   UNL     1     -43.585  57.578 -56.705  1.00  0.00     0.030 A 
HETATM   18  C   UNL     1     -43.112  58.096 -55.493  1.00  0.00     0.010 A 
BRANCH  16  19
HETATM   19  N   UNL     1     -45.346  57.033 -58.241  1.00  0.00    -0.328 N 
HETATM   20  C   UNL     1     -46.334  57.481 -59.101  1.00  0.00     0.218 C 
HETATM   21  C   UNL     1     -46.510  56.568 -60.290  1.00  0.00     0.117 C 
HETATM   22  O   UNL     1     -47.007  58.499 -58.990  1.00  0.00    -0.274 OA
HETATM   23  H   UNL     1     -44.856  56.190 -58.512  1.00  0.00     0.169 HD
ENDBRANCH  16  19
ENDBRANCH   7  13
BRANCH  11  24
HETATM   24  N   UNL     1     -45.311  62.098 -51.568  1.00  0.00    -0.282 NA
HETATM   25  H   UNL     1     -45.185  62.823 -52.271  1.00  0.00     0.126 HD
HETATM   26  H   UNL     1     -46.255  62.076 -51.191  1.00  0.00     0.126 HD
ENDBRANCH  11  24
BRANCH   1  27
HETATM   27  C   UNL     1     -42.841  55.858 -52.488  1.00  0.00    -0.005 A 
HETATM   28  C   UNL     1     -43.310  54.997 -53.489  1.00  0.00     0.014 A 
HETATM   29  C   UNL     1     -42.468  54.044 -54.068  1.00  0.00     0.008 A 
HETATM   30  C   UNL     1     -41.135  53.936 -53.659  1.00  0.00    -0.058 A 
HETATM   31  C   UNL     1     -40.662  54.795 -52.660  1.00  0.00     0.008 A 
HETATM   32  C   UNL     1     -41.511  55.740 -52.071  1.00  0.00     0.014 A 
BRANCH  30  33
HETATM   33  C   UNL     1     -40.226  52.901 -54.280  1.00  0.00     0.042 C 
BRANCH  33  34
HETATM   34  C   UNL     1     -40.247  51.541 -53.557  1.00  0.00    -0.019 C 
HETATM   35  C   UNL     1     -39.364  51.537 -52.306  1.00  0.00     0.010 C 
HETATM   36  C   UNL     1     -39.780  50.440 -54.515  1.00  0.00     0.010 C 
ENDBRANCH  33  34
ENDBRANCH  30  33
ENDBRANCH   1  27
TORSDOF 6
ENDMDL
MODEL 4
REMARK VINA RESULT:      -7.9      2.086      3.047
REMARK  6 active torsions:
REMARK  status: ('A' for Active; 'I' for Inactive)
REMARK    1  A    between atoms: C_2  and  C_3 
REMARK    2  A    between atoms: C_3  and  C_4 
REMARK    3  A    between atoms: C_7  and  C_8 
REMARK    4  A    between atoms: C_14  and  C_15 
REMARK    5  A    between atoms: C_18  and  N_19 
REMARK       I    between atoms: N_19  and  C_20 
REMARK    6  A    between atoms: C_28  and  N_29 
ROOT
HETATM    1  C   UNL     1     -44.460  57.942 -51.772  1.00  0.00     0.099 A 
HETATM    2  N   UNL     1     -45.437  57.736 -50.864  1.00  0.00    -0.172 NA
HETATM    3  N   UNL     1     -46.181  58.853 -50.893  1.00  0.00    -0.256 N 
HETATM    4  H   UNL     1     -46.978  58.928 -50.271  1.00  0.00     0.191 HD
HETATM    5  C   UNL     1     -45.723  59.764 -51.782  1.00  0.00     0.175 A 
HETATM    6  C   UNL     1     -44.625  59.212 -52.396  1.00  0.00     0.040 A 
HETATM    7  C   UNL     1     -43.921  59.982 -53.466  1.00  0.00     0.105 C 
HETATM    8  C   UNL     1     -44.452  61.416 -53.512  1.00  0.00     0.067 C 
HETATM    9  C   UNL     1     -43.614  62.453 -54.243  1.00  0.00     0.020 C 
HETATM   10  N   UNL     1     -42.919  63.313 -54.848  1.00  0.00    -0.096 N 
HETATM   11  C   UNL     1     -45.542  61.833 -52.812  1.00  0.00     0.139 C 
HETATM   12  O   UNL     1     -46.264  60.960 -51.981  1.00  0.00    -0.279 OA
ENDROOT
BRANCH   7  13
HETATM   13  C   UNL     1     -44.176  59.210 -54.754  1.00  0.00    -0.044 A 
HETATM   14  C   UNL     1     -45.444  59.160 -55.357  1.00  0.00     0.010 A 
HETATM   15  C   UNL     1     -45.670  58.401 -56.512  1.00  0.00     0.030 A 
HETATM   16  C   UNL     1     -44.633  57.678 -57.097  1.00  0.00     0.034 A 
HETATM   17  C   UNL     1     -43.360  57.741 -56.518  1.00  0.00     0.030 A 
HETATM   18  C   UNL     1     -43.132  58.501 -55.364  1.00  0.00     0.010 A 
BRANCH  16  19
HETATM   19  N   UNL     1     -44.787  56.861 -58.236  1.00  0.00    -0.328 N 
HETATM   20  C   UNL     1     -44.477  57.179 -59.547  1.00  0.00     0.218 C 
HETATM   21  C   UNL     1     -44.833  56.065 -60.501  1.00  0.00     0.117 C 
HETATM   22  O   UNL     1     -43.952  58.207 -59.955  1.00  0.00    -0.274 OA
HETATM   23  H   UNL     1     -45.179  55.943 -58.071  1.00  0.00     0.169 HD
ENDBRANCH  16  19
ENDBRANCH   7  13
BRANCH  11  24
HETATM   24  N   UNL     1     -46.047  63.113 -52.804  1.00  0.00    -0.282 NA
HETATM   25  H   UNL     1     -45.490  63.809 -53.295  1.00  0.00     0.126 HD
HETATM   26  H   UNL     1     -47.028  63.137 -53.068  1.00  0.00     0.126 HD
ENDBRANCH  11  24
BRANCH   1  27
HETATM   27  C   UNL     1     -43.444  56.913 -51.996  1.00  0.00    -0.005 A 
HETATM   28  C   UNL     1     -43.701  55.868 -52.894  1.00  0.00     0.014 A 
HETATM   29  C   UNL     1     -42.762  54.855 -53.105  1.00  0.00     0.008 A 
HETATM   30  C   UNL     1     -41.541  54.868 -52.422  1.00  0.00    -0.058 A 
HETATM   31  C   UNL     1     -41.280  55.909 -51.523  1.00  0.00     0.008 A 
HETATM   32  C   UNL     1     -42.228  56.916 -51.303  1.00  0.00     0.014 A 
BRANCH  30  33
HETATM   33  C   UNL     1     -40.529  53.769 -52.644  1.00  0.00     0.042 C 
BRANCH  33  34
HETATM   34  C   UNL     1     -40.677  53.052 -54.000  1.00  0.00    -0.019 C 
HETATM   35  C   UNL     1     -40.001  51.678 -54.003  1.00  0.00     0.010 C 
HETATM   36  C   UNL     1     -40.076  53.919 -55.110  1.00  0.00     0.010 C 
ENDBRANCH  33  34
ENDBRANCH  30  33
ENDBRANCH   1  27
TORSDOF 6
ENDMDL
MODEL 5
REMARK VINA RESULT:      -7.6      2.729      5.483
REMARK  6 active torsions:
REMARK  status: ('A' for Active; 'I' for Inactive)
REMARK    1  A    between atoms: C_2  and  C_3 
REMARK    2  A    between atoms: C_3  and  C_4 
REMARK    3  A    between atoms: C_7  and  C_8 
REMARK    4  A    between atoms: C_14  and  C_15 
REMARK    5  A    between atoms: C_18  and  N_19 
REMARK       I    between atoms: N_19  and  C_20 
REMARK    6  A    between atoms: C_28  and  N_29 
ROOT
HETATM    1  C   UNL     1     -42.735  56.798 -55.362  1.00  0.00     0.099 A 
HETATM    2  N   UNL     1     -42.600  57.145 -56.659  1.00  0.00    -0.172 NA
HETATM    3  N   UNL     1     -43.321  58.270 -56.796  1.00  0.00    -0.256 N 
HETATM    4  H   UNL     1     -43.375  58.710 -57.708  1.00  0.00     0.191 HD
HETATM    5  C   UNL     1     -43.911  58.657 -55.642  1.00  0.00     0.175 A 
HETATM    6  C   UNL     1     -43.542  57.753 -54.676  1.00  0.00     0.040 A 
HETATM    7  C   UNL     1     -44.017  57.946 -53.273  1.00  0.00     0.105 C 
HETATM    8  C   UNL     1     -45.073  59.051 -53.226  1.00  0.00     0.067 C 
HETATM    9  C   UNL     1     -45.952  59.133 -51.989  1.00  0.00     0.020 C 
HETATM   10  N   UNL     1     -46.682  59.200 -50.964  1.00  0.00    -0.096 N 
HETATM   11  C   UNL     1     -45.361  59.856 -54.286  1.00  0.00     0.139 C 
HETATM   12  O   UNL     1     -44.699  59.719 -55.518  1.00  0.00    -0.279 OA
ENDROOT
BRANCH   7  13
HETATM   13  C   UNL     1     -42.769  58.279 -52.466  1.00  0.00    -0.044 A 
HETATM   14  C   UNL     1     -42.128  57.327 -51.653  1.00  0.00     0.010 A 
HETATM   15  C   UNL     1     -41.013  57.668 -50.878  1.00  0.00     0.030 A 
HETATM   16  C   UNL     1     -40.507  58.965 -50.897  1.00  0.00     0.034 A 
HETATM   17  C   UNL     1     -41.123  59.914 -51.721  1.00  0.00     0.030 A 
HETATM   18  C   UNL     1     -42.237  59.576 -52.500  1.00  0.00     0.010 A 
BRANCH  16  19
HETATM   19  N   UNL     1     -39.414  59.396 -50.118  1.00  0.00    -0.328 N 
HETATM   20  C   UNL     1     -38.082  59.438 -50.488  1.00  0.00     0.218 C 
HETATM   21  C   UNL     1     -37.193  59.908 -49.362  1.00  0.00     0.117 C 
HETATM   22  O   UNL     1     -37.609  59.167 -51.585  1.00  0.00    -0.274 OA
HETATM   23  H   UNL     1     -39.635  59.699 -49.178  1.00  0.00     0.169 HD
ENDBRANCH  16  19
ENDBRANCH   7  13
BRANCH  11  24
HETATM   24  N   UNL     1     -46.313  60.849 -54.303  1.00  0.00    -0.282 NA
HETATM   25  H   UNL     1     -46.063  61.689 -54.820  1.00  0.00     0.126 HD
HETATM   26  H   UNL     1     -47.231  60.492 -54.553  1.00  0.00     0.126 HD
ENDBRANCH  11  24
BRANCH   1  27
HETATM   27  C   UNL     1     -42.079  55.591 -54.858  1.00  0.00    -0.005 A 
HETATM   28  C   UNL     1     -42.808  54.676 -54.086  1.00  0.00     0.014 A 
HETATM   29  C   UNL     1     -42.201  53.531 -53.567  1.00  0.00     0.008 A 
HETATM   30  C   UNL     1     -40.847  53.274 -53.811  1.00  0.00    -0.058 A 
HETATM   31  C   UNL     1     -40.115  54.185 -54.581  1.00  0.00     0.008 A 
HETATM   32  C   UNL     1     -40.721  55.340 -55.090  1.00  0.00     0.014 A 
BRANCH  30  33
HETATM   33  C   UNL     1     -40.188  52.040 -53.242  1.00  0.00     0.042 C 
BRANCH  33  34
HETATM   34  C   UNL     1     -40.246  51.955 -51.705  1.00  0.00    -0.019 C 
HETATM   35  C   UNL     1     -39.615  53.179 -51.034  1.00  0.00     0.010 C 
HETATM   36  C   UNL     1     -39.529  50.687 -51.231  1.00  0.00     0.010 C 
ENDBRANCH  33  34
ENDBRANCH  30  33
ENDBRANCH   1  27
TORSDOF 6
ENDMDL
MODEL 6
REMARK VINA RESULT:      -7.3      5.354      8.137
REMARK  6 active torsions:
REMARK  status: ('A' for Active; 'I' for Inactive)
REMARK    1  A    between atoms: C_2  and  C_3 
REMARK    2  A    between atoms: C_3  and  C_4 
REMARK    3  A    between atoms: C_7  and  C_8 
REMARK    4  A    between atoms: C_14  and  C_15 
REMARK    5  A    between atoms: C_18  and  N_19 
REMARK       I    between atoms: N_19  and  C_20 
REMARK    6  A    between atoms: C_28  and  N_29 
ROOT
HETATM    1  C   UNL     1     -43.633  56.907 -57.273  1.00  0.00     0.099 A 
HETATM    2  N   UNL     1     -43.164  55.641 -57.249  1.00  0.00    -0.172 NA
HETATM    3  N   UNL     1     -43.663  55.064 -58.355  1.00  0.00    -0.256 N 
HETATM    4  H   UNL     1     -43.448  54.091 -58.540  1.00  0.00     0.191 HD
HETATM    5  C   UNL     1     -44.429  55.907 -59.085  1.00  0.00     0.175 A 
HETATM    6  C   UNL     1     -44.421  57.120 -58.441  1.00  0.00     0.040 A 
HETATM    7  C   UNL     1     -45.160  58.272 -59.041  1.00  0.00     0.105 C 
HETATM    8  C   UNL     1     -46.025  57.787 -60.206  1.00  0.00     0.067 C 
HETATM    9  C   UNL     1     -47.134  58.707 -60.689  1.00  0.00     0.020 C 
HETATM   10  N   UNL     1     -48.055  59.469 -61.089  1.00  0.00    -0.096 N 
HETATM   11  C   UNL     1     -45.949  56.529 -60.721  1.00  0.00     0.139 C 
HETATM   12  O   UNL     1     -45.059  55.573 -60.205  1.00  0.00    -0.279 OA
ENDROOT
BRANCH   7  13
HETATM   13  C   UNL     1     -44.087  59.264 -59.468  1.00  0.00    -0.044 A 
HETATM   14  C   UNL     1     -43.030  58.901 -60.321  1.00  0.00     0.010 A 
HETATM   15  C   UNL     1     -42.024  59.814 -60.659  1.00  0.00     0.030 A 
HETATM   16  C   UNL     1     -42.049  61.113 -60.159  1.00  0.00     0.034 A 
HETATM   17  C   UNL     1     -43.111  61.492 -59.329  1.00  0.00     0.030 A 
HETATM   18  C   UNL     1     -44.120  60.582 -58.990  1.00  0.00     0.010 A 
BRANCH  16  19
HETATM   19  N   UNL     1     -41.056  62.078 -60.421  1.00  0.00    -0.328 N 
HETATM   20  C   UNL     1     -40.064  62.519 -59.562  1.00  0.00     0.218 C 
HETATM   21  C   UNL     1     -39.217  63.604 -60.180  1.00  0.00     0.117 C 
HETATM   22  O   UNL     1     -39.825  62.107 -58.433  1.00  0.00    -0.274 OA
HETATM   23  H   UNL     1     -41.082  62.501 -61.340  1.00  0.00     0.169 HD
ENDBRANCH  16  19
ENDBRANCH   7  13
BRANCH  11  24
HETATM   24  N   UNL     1     -46.717  56.039 -61.753  1.00  0.00    -0.282 NA
HETATM   25  H   UNL     1     -47.130  56.739 -62.365  1.00  0.00     0.126 HD
HETATM   26  H   UNL     1     -46.240  55.301 -62.264  1.00  0.00     0.126 HD
ENDBRANCH  11  24
BRANCH   1  27
HETATM   27  C   UNL     1     -43.290  57.831 -56.192  1.00  0.00    -0.005 A 
HETATM   28  C   UNL     1     -43.977  57.757 -54.972  1.00  0.00     0.014 A 
HETATM   29  C   UNL     1     -43.693  58.645 -53.933  1.00  0.00     0.008 A 
HETATM   30  C   UNL     1     -42.710  59.629 -54.090  1.00  0.00    -0.058 A 
HETATM   31  C   UNL     1     -42.021  59.707 -55.306  1.00  0.00     0.008 A 
HETATM   32  C   UNL     1     -42.316  58.824 -56.353  1.00  0.00     0.014 A 
BRANCH  30  33
HETATM   33  C   UNL     1     -42.407  60.594 -52.969  1.00  0.00     0.042 C 
BRANCH  33  34
HETATM   34  C   UNL     1     -42.189  59.914 -51.604  1.00  0.00    -0.019 C 
HETATM   35  C   UNL     1     -42.420  60.877 -50.436  1.00  0.00     0.010 C 
HETATM   36  C   UNL     1     -40.766  59.353 -51.529  1.00  0.00     0.010 C 
ENDBRANCH  33  34
ENDBRANCH  30  33
ENDBRANCH   1  27
TORSDOF 6
ENDMDL
MODEL 7
REMARK VINA RESULT:      -7.3      3.505      6.837
REMARK  6 active torsions:
REMARK  status: ('A' for Active; 'I' for Inactive)
REMARK    1  A    between atoms: C_2  and  C_3 
REMARK    2  A    between atoms: C_3  and  C_4 
REMARK    3  A    between atoms: C_7  and  C_8 
REMARK    4  A    between atoms: C_14  and  C_15 
REMARK    5  A    between atoms: C_18  and  N_19 
REMARK       I    between atoms: N_19  and  C_20 
REMARK    6  A    between atoms: C_28  and  N_29 
ROOT
HETATM    1  C   UNL     1     -43.365  56.033 -54.398  1.00  0.00     0.099 A 
HETATM    2  N   UNL     1     -43.733  54.738 -54.314  1.00  0.00    -0.172 NA
HETATM    3  N   UNL     1     -43.472  54.383 -53.045  1.00  0.00    -0.256 N 
HETATM    4  H   UNL     1     -43.662  53.431 -52.752  1.00  0.00     0.191 HD
HETATM    5  C   UNL     1     -42.955  55.397 -52.314  1.00  0.00     0.175 A 
HETATM    6  C   UNL     1     -42.889  56.495 -53.136  1.00  0.00     0.040 A 
HETATM    7  C   UNL     1     -42.386  57.791 -52.588  1.00  0.00     0.105 C 
HETATM    8  C   UNL     1     -41.790  57.572 -51.196  1.00  0.00     0.067 C 
HETATM    9  C   UNL     1     -40.887  58.660 -50.639  1.00  0.00     0.020 C 
HETATM   10  N   UNL     1     -40.136  59.562 -50.178  1.00  0.00    -0.096 N 
HETATM   11  C   UNL     1     -41.905  56.403 -50.508  1.00  0.00     0.139 C 
HETATM   12  O   UNL     1     -42.586  55.297 -51.042  1.00  0.00    -0.279 OA
ENDROOT
BRANCH   7  13
HETATM   13  C   UNL     1     -43.591  58.722 -52.581  1.00  0.00    -0.044 A 
HETATM   14  C   UNL     1     -44.685  58.523 -51.722  1.00  0.00     0.010 A 
HETATM   15  C   UNL     1     -45.807  59.359 -51.768  1.00  0.00     0.030 A 
HETATM   16  C   UNL     1     -45.862  60.419 -52.670  1.00  0.00     0.034 A 
HETATM   17  C   UNL     1     -44.768  60.641 -53.513  1.00  0.00     0.030 A 
HETATM   18  C   UNL     1     -43.644  59.807 -53.467  1.00  0.00     0.010 A 
BRANCH  16  19
HETATM   19  N   UNL     1     -46.969  61.282 -52.804  1.00  0.00    -0.328 N 
HETATM   20  C   UNL     1     -47.347  62.305 -51.953  1.00  0.00     0.218 C 
HETATM   21  C   UNL     1     -48.623  62.975 -52.400  1.00  0.00     0.117 C 
HETATM   22  O   UNL     1     -46.755  62.693 -50.953  1.00  0.00    -0.274 OA
HETATM   23  H   UNL     1     -47.556  61.123 -53.614  1.00  0.00     0.169 HD
ENDBRANCH  16  19
ENDBRANCH   7  13
BRANCH  11  24
HETATM   24  N   UNL     1     -41.371  56.150 -49.265  1.00  0.00    -0.282 NA
HETATM   25  H   UNL     1     -40.830  56.908 -48.856  1.00  0.00     0.126 HD
HETATM   26  H   UNL     1     -42.063  55.769 -48.625  1.00  0.00     0.126 HD
ENDBRANCH  11  24
BRANCH   1  27
HETATM   27  C   UNL     1     -43.502  56.749 -55.667  1.00  0.00    -0.005 A 
HETATM   28  C   UNL     1     -42.503  56.628 -56.642  1.00  0.00     0.014 A 
HETATM   29  C   UNL     1     -42.592  57.323 -57.851  1.00  0.00     0.008 A 
HETATM   30  C   UNL     1     -43.687  58.154 -58.111  1.00  0.00    -0.058 A 
HETATM   31  C   UNL     1     -44.688  58.278 -57.140  1.00  0.00     0.008 A 
HETATM   32  C   UNL     1     -44.591  57.591 -55.923  1.00  0.00     0.014 A 
BRANCH  30  33
HETATM   33  C   UNL     1     -43.780  58.911 -59.415  1.00  0.00     0.042 C 
BRANCH  33  34
HETATM   34  C   UNL     1     -42.478  59.634 -59.808  1.00  0.00    -0.019 C 
HETATM   35  C   UNL     1     -42.171  60.816 -58.884  1.00  0.00     0.010 C 
HETATM   36  C   UNL     1     -42.580  60.131 -61.254  1.00  0.00     0.010 C 
ENDBRANCH  33  34
ENDBRANCH  30  33
ENDBRANCH   1  27
TORSDOF 6
ENDMDL
MODEL 8
REMARK VINA RESULT:      -7.2      2.907      7.367
REMARK  6 active torsions:
REMARK  status: ('A' for Active; 'I' for Inactive)
REMARK    1  A    between atoms: C_2  and  C_3 
REMARK    2  A    between atoms: C_3  and  C_4 
REMARK    3  A    between atoms: C_7  and  C_8 
REMARK    4  A    between atoms: C_14  and  C_15 
REMARK    5  A    between atoms: C_18  and  N_19 
REMARK       I    between atoms: N_19  and  C_20 
REMARK    6  A    between atoms: C_28  and  N_29 
ROOT
HETATM    1  C   UNL     1     -43.455  59.497 -56.628  1.00  0.00     0.099 A 
HETATM    2  N   UNL     1     -42.637  60.456 -57.109  1.00  0.00    -0.172 NA
HETATM    3  N   UNL     1     -42.052  60.992 -56.025  1.00  0.00    -0.256 N 
HETATM    4  H   UNL     1     -41.395  61.754 -56.148  1.00  0.00     0.191 HD
HETATM    5  C   UNL     1     -42.460  60.415 -54.871  1.00  0.00     0.175 A 
HETATM    6  C   UNL     1     -43.349  59.423 -55.209  1.00  0.00     0.040 A 
HETATM    7  C   UNL     1     -43.946  58.578 -54.130  1.00  0.00     0.105 C 
HETATM    8  C   UNL     1     -43.609  59.166 -52.759  1.00  0.00     0.067 C 
HETATM    9  C   UNL     1     -44.431  58.696 -51.571  1.00  0.00     0.020 C 
HETATM   10  N   UNL     1     -45.114  58.308 -50.585  1.00  0.00    -0.096 N 
HETATM   11  C   UNL     1     -42.724  60.185 -52.580  1.00  0.00     0.139 C 
HETATM   12  O   UNL     1     -42.054  60.780 -53.662  1.00  0.00    -0.279 OA
ENDROOT
BRANCH   7  13
HETATM   13  C   UNL     1     -43.368  57.185 -54.341  1.00  0.00    -0.044 A 
HETATM   14  C   UNL     1     -44.178  56.036 -54.370  1.00  0.00     0.010 A 
HETATM   15  C   UNL     1     -43.622  54.760 -54.512  1.00  0.00     0.030 A 
HETATM   16  C   UNL     1     -42.244  54.597 -54.632  1.00  0.00     0.034 A 
HETATM   17  C   UNL     1     -41.431  55.736 -54.629  1.00  0.00     0.030 A 
HETATM   18  C   UNL     1     -41.985  57.015 -54.489  1.00  0.00     0.010 A 
BRANCH  16  19
HETATM   19  N   UNL     1     -41.604  53.345 -54.740  1.00  0.00    -0.328 N 
HETATM   20  C   UNL     1     -40.868  52.691 -53.768  1.00  0.00     0.218 C 
HETATM   21  C   UNL     1     -40.289  51.391 -54.272  1.00  0.00     0.117 C 
HETATM   22  O   UNL     1     -40.686  53.048 -52.610  1.00  0.00    -0.274 OA
HETATM   23  H   UNL     1     -41.688  52.882 -55.636  1.00  0.00     0.169 HD
ENDBRANCH  16  19
ENDBRANCH   7  13
BRANCH  11  24
HETATM   24  N   UNL     1     -42.401  60.762 -51.373  1.00  0.00    -0.282 NA
HETATM   25  H   UNL     1     -41.785  60.216 -50.776  1.00  0.00     0.126 HD
HETATM   26  H   UNL     1     -42.093  61.725 -51.481  1.00  0.00     0.126 HD
ENDBRANCH  11  24
BRANCH   1  27
HETATM   27  C   UNL     1     -44.271  58.706 -57.550  1.00  0.00    -0.005 A 
HETATM   28  C   UNL     1     -43.689  58.169 -58.705  1.00  0.00     0.014 A 
HETATM   29  C   UNL     1     -44.450  57.435 -59.619  1.00  0.00     0.008 A 
HETATM   30  C   UNL     1     -45.814  57.220 -59.393  1.00  0.00    -0.058 A 
HETATM   31  C   UNL     1     -46.400  57.754 -58.239  1.00  0.00     0.008 A 
HETATM   32  C   UNL     1     -45.639  58.501 -57.331  1.00  0.00     0.014 A 
BRANCH  30  33
HETATM   33  C   UNL     1     -46.639  56.434 -60.383  1.00  0.00     0.042 C 
BRANCH  33  34
HETATM   34  C   UNL     1     -47.811  57.230 -60.988  1.00  0.00    -0.019 C 
HETATM   35  C   UNL     1     -48.329  56.602 -62.285  1.00  0.00     0.010 C 
HETATM   36  C   UNL     1     -47.370  58.671 -61.260  1.00  0.00     0.010 C 
ENDBRANCH  33  34
ENDBRANCH  30  33
ENDBRANCH   1  27
TORSDOF 6
ENDMDL
MODEL 9
REMARK VINA RESULT:      -7.1      3.142      7.588
REMARK  6 active torsions:
REMARK  status: ('A' for Active; 'I' for Inactive)
REMARK    1  A    between atoms: C_2  and  C_3 
REMARK    2  A    between atoms: C_3  and  C_4 
REMARK    3  A    between atoms: C_7  and  C_8 
REMARK    4  A    between atoms: C_14  and  C_15 
REMARK    5  A    between atoms: C_18  and  N_19 
REMARK       I    between atoms: N_19  and  C_20 
REMARK    6  A    between atoms: C_28  and  N_29 
ROOT
HETATM    1  C   UNL     1     -43.164  60.009 -51.529  1.00  0.00     0.099 A 
HETATM    2  N   UNL     1     -42.128  60.768 -51.116  1.00  0.00    -0.172 NA
HETATM    3  N   UNL     1     -41.220  59.896 -50.647  1.00  0.00    -0.256 N 
HETATM    4  H   UNL     1     -40.350  60.250 -50.267  1.00  0.00     0.191 HD
HETATM    5  C   UNL     1     -41.632  58.611 -50.744  1.00  0.00     0.175 A 
HETATM    6  C   UNL     1     -42.873  58.627 -51.332  1.00  0.00     0.040 A 
HETATM    7  C   UNL     1     -43.571  57.335 -51.605  1.00  0.00     0.105 C 
HETATM    8  C   UNL     1     -42.824  56.185 -50.927  1.00  0.00     0.067 C 
HETATM    9  C   UNL     1     -43.566  54.870 -50.752  1.00  0.00     0.020 C 
HETATM   10  N   UNL     1     -44.182  53.780 -50.605  1.00  0.00    -0.096 N 
HETATM   11  C   UNL     1     -41.601  56.327 -50.347  1.00  0.00     0.139 C 
HETATM   12  O   UNL     1     -40.933  57.562 -50.326  1.00  0.00    -0.279 OA
ENDROOT
BRANCH   7  13
HETATM   13  C   UNL     1     -43.610  57.208 -53.122  1.00  0.00    -0.044 A 
HETATM   14  C   UNL     1     -44.710  57.646 -53.881  1.00  0.00     0.010 A 
HETATM   15  C   UNL     1     -44.749  57.473 -55.269  1.00  0.00     0.030 A 
HETATM   16  C   UNL     1     -43.690  56.863 -55.937  1.00  0.00     0.034 A 
HETATM   17  C   UNL     1     -42.580  56.445 -55.194  1.00  0.00     0.030 A 
HETATM   18  C   UNL     1     -42.537  56.619 -53.805  1.00  0.00     0.010 A 
BRANCH  16  19
HETATM   19  N   UNL     1     -43.670  56.617 -57.325  1.00  0.00    -0.328 N 
HETATM   20  C   UNL     1     -42.895  57.250 -58.280  1.00  0.00     0.218 C 
HETATM   21  C   UNL     1     -43.191  56.753 -59.674  1.00  0.00     0.117 C 
HETATM   22  O   UNL     1     -42.034  58.101 -58.090  1.00  0.00    -0.274 OA
HETATM   23  H   UNL     1     -44.305  55.902 -57.656  1.00  0.00     0.169 HD
ENDBRANCH  16  19
ENDBRANCH   7  13
BRANCH  11  24
HETATM   24  N   UNL     1     -40.897  55.331 -49.708  1.00  0.00    -0.282 NA
HETATM   25  H   UNL     1     -39.890  55.344 -49.852  1.00  0.00     0.126 HD
HETATM   26  H   UNL     1     -41.154  55.252 -48.728  1.00  0.00     0.126 HD
ENDBRANCH  11  24
BRANCH   1  27
HETATM   27  C   UNL     1     -44.355  60.645 -52.094  1.00  0.00    -0.005 A 
HETATM   28  C   UNL     1     -45.606  60.423 -51.503  1.00  0.00     0.014 A 
HETATM   29  C   UNL     1     -46.764  60.992 -52.038  1.00  0.00     0.008 A 
HETATM   30  C   UNL     1     -46.693  61.801 -53.178  1.00  0.00    -0.058 A 
HETATM   31  C   UNL     1     -45.446  62.026 -53.771  1.00  0.00     0.008 A 
HETATM   32  C   UNL     1     -44.288  61.444 -53.242  1.00  0.00     0.014 A 
BRANCH  30  33
HETATM   33  C   UNL     1     -47.946  62.411 -53.761  1.00  0.00     0.042 C 
BRANCH  33  34
HETATM   34  C   UNL     1     -49.154  62.384 -52.806  1.00  0.00    -0.019 C 
HETATM   35  C   UNL     1     -50.442  61.955 -53.514  1.00  0.00     0.010 C 
HETATM   36  C   UNL     1     -49.352  63.770 -52.185  1.00  0.00     0.010 C 
ENDBRANCH  33  34
ENDBRANCH  30  33
ENDBRANCH   1  27
TORSDOF 6
ENDMDL
MODEL 10
REMARK VINA RESULT:      -7.1      2.667      6.577
REMARK  6 active torsions:
REMARK  status: ('A' for Active; 'I' for Inactive)
REMARK    1  A    between atoms: C_2  and  C_3 
REMARK    2  A    between atoms: C_3  and  C_4 
REMARK    3  A    between atoms: C_7  and  C_8 
REMARK    4  A    between atoms: C_14  and  C_15 
REMARK    5  A    between atoms: C_18  and  N_19 
REMARK       I    between atoms: N_19  and  C_20 
REMARK    6  A    between atoms: C_28  and  N_29 
ROOT
HETATM    1  C   UNL     1     -43.526  60.018 -56.138  1.00  0.00     0.099 A 
HETATM    2  N   UNL     1     -42.755  61.047 -56.548  1.00  0.00    -0.172 NA
HETATM    3  N   UNL     1     -42.439  61.715 -55.426  1.00  0.00    -0.256 N 
HETATM    4  H   UNL     1     -41.865  62.547 -55.496  1.00  0.00     0.191 HD
HETATM    5  C   UNL     1     -42.974  61.155 -54.317  1.00  0.00     0.175 A 
HETATM    6  C   UNL     1     -43.666  60.039 -54.720  1.00  0.00     0.040 A 
HETATM    7  C   UNL     1     -44.341  59.187 -53.696  1.00  0.00     0.105 C 
HETATM    8  C   UNL     1     -44.323  59.890 -52.337  1.00  0.00     0.067 C 
HETATM    9  C   UNL     1     -45.282  59.386 -51.272  1.00  0.00     0.020 C 
HETATM   10  N   UNL     1     -46.079  58.969 -50.388  1.00  0.00    -0.096 N 
HETATM   11  C   UNL     1     -43.611  61.024 -52.092  1.00  0.00     0.139 C 
HETATM   12  O   UNL     1     -42.835  61.638 -53.088  1.00  0.00    -0.279 OA
ENDROOT
BRANCH   7  13
HETATM   13  C   UNL     1     -43.575  57.871 -53.696  1.00  0.00    -0.044 A 
HETATM   14  C   UNL     1     -44.070  56.717 -54.329  1.00  0.00     0.010 A 
HETATM   15  C   UNL     1     -43.376  55.503 -54.272  1.00  0.00     0.030 A 
HETATM   16  C   UNL     1     -42.167  55.410 -53.587  1.00  0.00     0.034 A 
HETATM   17  C   UNL     1     -41.653  56.559 -52.974  1.00  0.00     0.030 A 
HETATM   18  C   UNL     1     -42.344  57.775 -53.030  1.00  0.00     0.010 A 
BRANCH  16  19
HETATM   19  N   UNL     1     -41.427  54.218 -53.451  1.00  0.00    -0.328 N 
HETATM   20  C   UNL     1     -40.616  53.619 -54.399  1.00  0.00     0.218 C 
HETATM   21  C   UNL     1     -40.031  52.318 -53.906  1.00  0.00     0.117 C 
HETATM   22  O   UNL     1     -40.339  54.046 -55.513  1.00  0.00    -0.274 OA
HETATM   23  H   UNL     1     -41.511  53.745 -52.560  1.00  0.00     0.169 HD
ENDBRANCH  16  19
ENDBRANCH   7  13
BRANCH  11  24
HETATM   24  N   UNL     1     -43.577  61.705 -50.896  1.00  0.00    -0.282 NA
HETATM   25  H   UNL     1     -43.002  61.287 -50.168  1.00  0.00     0.126 HD
HETATM   26  H   UNL     1     -43.388  62.695 -51.027  1.00  0.00     0.126 HD
ENDBRANCH  11  24
BRANCH   1  27
HETATM   27  C   UNL     1     -44.068  59.077 -57.120  1.00  0.00    -0.005 A 
HETATM   28  C   UNL     1     -45.445  58.817 -57.145  1.00  0.00     0.014 A 
HETATM   29  C   UNL     1     -45.986  57.902 -58.050  1.00  0.00     0.008 A 
HETATM   30  C   UNL     1     -45.159  57.226 -58.954  1.00  0.00    -0.058 A 
HETATM   31  C   UNL     1     -43.784  57.483 -58.933  1.00  0.00     0.008 A 
HETATM   32  C   UNL     1     -43.240  58.391 -58.016  1.00  0.00     0.014 A 
BRANCH  30  33
HETATM   33  C   UNL     1     -45.743  56.230 -59.928  1.00  0.00     0.042 C 
BRANCH  33  34
HETATM   34  C   UNL     1     -44.720  55.212 -60.465  1.00  0.00    -0.019 C 
HETATM   35  C   UNL     1     -45.037  54.774 -61.898  1.00  0.00     0.010 C 
HETATM   36  C   UNL     1     -44.687  53.982 -59.552  1.00  0.00     0.010 C 
ENDBRANCH  33  34
ENDBRANCH  30  33
ENDBRANCH   1  27
TORSDOF 6
ENDMDL
