MODEL 1
REMARK VINA RESULT:      -8.3      0.000      0.000
REMARK  3 active torsions:
REMARK  status: ('A' for Active; 'I' for Inactive)
REMARK    1  A    between atoms: C_4  and  N_5 
REMARK       I    between atoms: N_5  and  C_6 
REMARK    2  A    between atoms: C_6  and  C_7 
REMARK    3  A    between atoms: C_7  and  C_8 
ROOT
HETATM    1  C   UNL     1     -43.102  56.984 -55.904  1.00  0.00     0.286 C 
HETATM    2  N   UNL     1     -42.440  56.760 -57.259  1.00  0.00    -0.056 N 
HETATM    3  H   UNL     1     -41.936  57.616 -57.519  1.00  0.00     0.278 HD
HETATM    4  H   UNL     1     -41.699  56.037 -57.130  1.00  0.00     0.278 HD
HETATM    5  C   UNL     1     -43.377  56.327 -58.353  1.00  0.00     0.209 C 
HETATM    6  C   UNL     1     -44.490  57.393 -58.494  1.00  0.00     0.115 C 
HETATM    7  N   UNL     1     -45.108  57.704 -57.204  1.00  0.00    -0.353 N 
HETATM    8  C   UNL     1     -44.441  57.739 -56.006  1.00  0.00     0.249 C 
HETATM    9  O   UNL     1     -44.957  58.268 -55.028  1.00  0.00    -0.271 OA
HETATM   10  C   UNL     1     -42.581  56.124 -59.642  1.00  0.00     0.035 C 
HETATM   11  C   UNL     1     -42.098  57.430 -60.268  1.00  0.00     0.002 C 
HETATM   12  C   UNL     1     -43.245  58.417 -60.456  1.00  0.00     0.002 C 
HETATM   13  C   UNL     1     -43.978  58.686 -59.145  1.00  0.00     0.027 C 
HETATM   14  H   UNL     1     -45.990  58.213 -57.200  1.00  0.00     0.163 HD
ENDROOT
BRANCH   1  15
HETATM   15  C   UNL     1     -43.347  55.677 -55.136  1.00  0.00     0.146 C 
BRANCH  15  16
HETATM   16  C   UNL     1     -42.063  55.048 -54.652  1.00  0.00     0.224 C 
HETATM   17  N   UNL     1     -42.243  53.983 -53.803  1.00  0.00    -0.327 N 
HETATM   18  H   UNL     1     -43.156  53.849 -53.382  1.00  0.00     0.169 HD
HETATM   19  O   UNL     1     -40.992  55.489 -55.070  1.00  0.00    -0.273 OA
BRANCH  17  20
HETATM   20  C   UNL     1     -41.247  53.085 -53.358  1.00  0.00     0.035 A 
HETATM   21  C   UNL     1     -40.801  51.992 -54.108  1.00  0.00     0.036 A 
HETATM   22  C   UNL     1     -39.850  51.102 -53.585  1.00  0.00    -0.060 A 
HETATM   23  C   UNL     1     -39.383  49.925 -54.393  1.00  0.00     0.048 C 
HETATM   24  C   UNL     1     -39.309  51.343 -52.318  1.00  0.00     0.007 A 
HETATM   25  C   UNL     1     -39.746  52.431 -51.566  1.00  0.00     0.003 A 
HETATM   26  C   UNL     1     -40.721  53.290 -52.077  1.00  0.00     0.029 A 
ENDBRANCH  17  20
ENDBRANCH  15  16
ENDBRANCH   1  15
TORSDOF 3
ENDMDL
MODEL 2
REMARK VINA RESULT:      -7.8      3.432      4.874
REMARK  3 active torsions:
REMARK  status: ('A' for Active; 'I' for Inactive)
REMARK    1  A    between atoms: C_4  and  N_5 
REMARK       I    between atoms: N_5  and  C_6 
REMARK    2  A    between atoms: C_6  and  C_7 
REMARK    3  A    between atoms: C_7  and  C_8 
ROOT
HETATM    1  C   UNL     1     -43.882  57.100 -52.984  1.00  0.00     0.286 C 
HETATM    2  N   UNL     1     -42.793  57.226 -51.925  1.00  0.00    -0.056 N 
HETATM    3  H   UNL     1     -43.211  57.620 -51.074  1.00  0.00     0.278 HD
HETATM    4  H   UNL     1     -42.500  56.259 -51.661  1.00  0.00     0.278 HD
HETATM    5  C   UNL     1     -41.586  58.015 -52.352  1.00  0.00     0.209 C 
HETATM    6  C   UNL     1     -42.053  59.427 -52.781  1.00  0.00     0.115 C 
HETATM    7  N   UNL     1     -43.154  59.365 -53.742  1.00  0.00    -0.353 N 
HETATM    8  C   UNL     1     -44.150  58.421 -53.730  1.00  0.00     0.249 C 
HETATM    9  O   UNL     1     -45.171  58.594 -54.386  1.00  0.00    -0.271 OA
HETATM   10  C   UNL     1     -40.574  58.044 -51.207  1.00  0.00     0.035 C 
HETATM   11  C   UNL     1     -41.010  58.922 -50.036  1.00  0.00     0.002 C 
HETATM   12  C   UNL     1     -41.386  60.325 -50.500  1.00  0.00     0.002 C 
HETATM   13  C   UNL     1     -42.464  60.292 -51.580  1.00  0.00     0.027 C 
HETATM   14  H   UNL     1     -43.392  60.209 -54.261  1.00  0.00     0.163 HD
ENDROOT
BRANCH   1  15
HETATM   15  C   UNL     1     -43.579  56.014 -54.027  1.00  0.00     0.146 C 
BRANCH  15  16
HETATM   16  C   UNL     1     -43.020  54.760 -53.401  1.00  0.00     0.224 C 
HETATM   17  N   UNL     1     -41.867  54.302 -53.990  1.00  0.00    -0.327 N 
HETATM   18  H   UNL     1     -41.613  54.664 -54.903  1.00  0.00     0.169 HD
HETATM   19  O   UNL     1     -43.592  54.280 -52.421  1.00  0.00    -0.273 OA
BRANCH  17  20
HETATM   20  C   UNL     1     -41.020  53.282 -53.501  1.00  0.00     0.035 A 
HETATM   21  C   UNL     1     -40.699  52.130 -54.227  1.00  0.00     0.036 A 
HETATM   22  C   UNL     1     -39.898  51.125 -53.662  1.00  0.00    -0.060 A 
HETATM   23  C   UNL     1     -39.566  49.887 -54.444  1.00  0.00     0.048 C 
HETATM   24  C   UNL     1     -39.377  51.305 -52.377  1.00  0.00     0.007 A 
HETATM   25  C   UNL     1     -39.690  52.451 -51.648  1.00  0.00     0.003 A 
HETATM   26  C   UNL     1     -40.519  53.428 -52.203  1.00  0.00     0.029 A 
ENDBRANCH  17  20
ENDBRANCH  15  16
ENDBRANCH   1  15
TORSDOF 3
ENDMDL
MODEL 3
REMARK VINA RESULT:      -7.7      2.101      2.999
REMARK  3 active torsions:
REMARK  status: ('A' for Active; 'I' for Inactive)
REMARK    1  A    between atoms: C_4  and  N_5 
REMARK       I    between atoms: N_5  and  C_6 
REMARK    2  A    between atoms: C_6  and  C_7 
REMARK    3  A    between atoms: C_7  and  C_8 
ROOT
HETATM    1  C   UNL     1     -43.464  56.300 -58.100  1.00  0.00     0.286 C 
HETATM    2  N   UNL     1     -44.752  56.955 -57.612  1.00  0.00    -0.056 N 
HETATM    3  H   UNL     1     -45.545  56.496 -58.076  1.00  0.00     0.278 HD
HETATM    4  H   UNL     1     -44.857  56.723 -56.600  1.00  0.00     0.278 HD
HETATM    5  C   UNL     1     -44.806  58.447 -57.792  1.00  0.00     0.209 C 
HETATM    6  C   UNL     1     -44.603  58.767 -59.292  1.00  0.00     0.115 C 
HETATM    7  N   UNL     1     -43.420  58.097 -59.833  1.00  0.00    -0.353 N 
HETATM    8  C   UNL     1     -42.987  56.850 -59.457  1.00  0.00     0.249 C 
HETATM    9  O   UNL     1     -42.163  56.252 -60.140  1.00  0.00    -0.271 OA
HETATM   10  C   UNL     1     -46.136  58.969 -57.247  1.00  0.00     0.035 C 
HETATM   11  C   UNL     1     -47.334  58.597 -58.116  1.00  0.00     0.002 C 
HETATM   12  C   UNL     1     -47.116  59.001 -59.570  1.00  0.00     0.002 C 
HETATM   13  C   UNL     1     -45.833  58.401 -60.136  1.00  0.00     0.027 C 
HETATM   14  H   UNL     1     -43.059  58.405 -60.734  1.00  0.00     0.163 HD
ENDROOT
BRANCH   1  15
HETATM   15  C   UNL     1     -42.309  56.433 -57.097  1.00  0.00     0.146 C 
BRANCH  15  16
HETATM   16  C   UNL     1     -42.261  55.280 -56.124  1.00  0.00     0.224 C 
HETATM   17  N   UNL     1     -41.010  55.023 -55.618  1.00  0.00    -0.327 N 
HETATM   18  H   UNL     1     -40.206  55.431 -56.083  1.00  0.00     0.169 HD
HETATM   19  O   UNL     1     -43.309  54.704 -55.833  1.00  0.00    -0.273 OA
BRANCH  17  20
HETATM   20  C   UNL     1     -40.697  54.150 -54.551  1.00  0.00     0.035 A 
HETATM   21  C   UNL     1     -40.274  52.829 -54.732  1.00  0.00     0.036 A 
HETATM   22  C   UNL     1     -40.034  51.995 -53.629  1.00  0.00    -0.060 A 
HETATM   23  C   UNL     1     -39.590  50.574 -53.833  1.00  0.00     0.048 C 
HETATM   24  C   UNL     1     -40.173  52.509 -52.337  1.00  0.00     0.007 A 
HETATM   25  C   UNL     1     -40.591  53.825 -52.148  1.00  0.00     0.003 A 
HETATM   26  C   UNL     1     -40.865  54.637 -53.250  1.00  0.00     0.029 A 
ENDBRANCH  17  20
ENDBRANCH  15  16
ENDBRANCH   1  15
TORSDOF 3
ENDMDL
MODEL 4
REMARK VINA RESULT:      -7.5      2.415      4.160
REMARK  3 active torsions:
REMARK  status: ('A' for Active; 'I' for Inactive)
REMARK    1  A    between atoms: C_4  and  N_5 
REMARK       I    between atoms: N_5  and  C_6 
REMARK    2  A    between atoms: C_6  and  C_7 
REMARK    3  A    between atoms: C_7  and  C_8 
ROOT
HETATM    1  C   UNL     1     -43.425  57.035 -55.829  1.00  0.00     0.286 C 
HETATM    2  N   UNL     1     -43.748  56.609 -54.401  1.00  0.00    -0.056 N 
HETATM    3  H   UNL     1     -44.657  57.008 -54.140  1.00  0.00     0.278 HD
HETATM    4  H   UNL     1     -43.897  55.576 -54.409  1.00  0.00     0.278 HD
HETATM    5  C   UNL     1     -42.692  56.954 -53.386  1.00  0.00     0.209 C 
HETATM    6  C   UNL     1     -42.458  58.483 -53.427  1.00  0.00     0.115 C 
HETATM    7  N   UNL     1     -42.220  58.959 -54.789  1.00  0.00    -0.353 N 
HETATM    8  C   UNL     1     -42.824  58.451 -55.912  1.00  0.00     0.249 C 
HETATM    9  O   UNL     1     -42.785  59.072 -56.968  1.00  0.00    -0.271 OA
HETATM   10  C   UNL     1     -43.137  56.455 -52.011  1.00  0.00     0.035 C 
HETATM   11  C   UNL     1     -44.288  57.263 -51.418  1.00  0.00     0.002 C 
HETATM   12  C   UNL     1     -43.977  58.756 -51.409  1.00  0.00     0.002 C 
HETATM   13  C   UNL     1     -43.623  59.266 -52.803  1.00  0.00     0.027 C 
HETATM   14  H   UNL     1     -41.835  59.893 -54.916  1.00  0.00     0.163 HD
ENDROOT
BRANCH   1  15
HETATM   15  C   UNL     1     -42.468  56.067 -56.539  1.00  0.00     0.146 C 
BRANCH  15  16
HETATM   16  C   UNL     1     -42.275  54.784 -55.768  1.00  0.00     0.224 C 
HETATM   17  N   UNL     1     -40.997  54.596 -55.298  1.00  0.00    -0.327 N 
HETATM   18  H   UNL     1     -40.252  55.167 -55.683  1.00  0.00     0.169 HD
HETATM   19  O   UNL     1     -43.245  54.048 -55.586  1.00  0.00    -0.273 OA
BRANCH  17  20
HETATM   20  C   UNL     1     -40.573  53.603 -54.386  1.00  0.00     0.035 A 
HETATM   21  C   UNL     1     -40.195  52.313 -54.769  1.00  0.00     0.036 A 
HETATM   22  C   UNL     1     -39.839  51.354 -53.809  1.00  0.00    -0.060 A 
HETATM   23  C   UNL     1     -39.443  49.967 -54.228  1.00  0.00     0.048 C 
HETATM   24  C   UNL     1     -39.816  51.713 -52.458  1.00  0.00     0.007 A 
HETATM   25  C   UNL     1     -40.189  52.997 -52.068  1.00  0.00     0.003 A 
HETATM   26  C   UNL     1     -40.579  53.934 -53.027  1.00  0.00     0.029 A 
ENDBRANCH  17  20
ENDBRANCH  15  16
ENDBRANCH   1  15
TORSDOF 3
ENDMDL
MODEL 5
REMARK VINA RESULT:      -7.4      4.065      5.049
REMARK  3 active torsions:
REMARK  status: ('A' for Active; 'I' for Inactive)
REMARK    1  A    between atoms: C_4  and  N_5 
REMARK       I    between atoms: N_5  and  C_6 
REMARK    2  A    between atoms: C_6  and  C_7 
REMARK    3  A    between atoms: C_7  and  C_8 
ROOT
HETATM    1  C   UNL     1     -41.224  57.063 -51.825  1.00  0.00     0.286 C 
HETATM    2  N   UNL     1     -42.508  57.157 -52.642  1.00  0.00    -0.056 N 
HETATM    3  H   UNL     1     -42.310  57.685 -53.500  1.00  0.00     0.278 HD
HETATM    4  H   UNL     1     -42.745  56.193 -52.965  1.00  0.00     0.278 HD
HETATM    5  C   UNL     1     -43.682  57.739 -51.904  1.00  0.00     0.209 C 
HETATM    6  C   UNL     1     -43.290  59.148 -51.397  1.00  0.00     0.115 C 
HETATM    7  N   UNL     1     -42.020  59.128 -50.671  1.00  0.00    -0.353 N 
HETATM    8  C   UNL     1     -40.953  58.323 -50.984  1.00  0.00     0.249 C 
HETATM    9  O   UNL     1     -39.846  58.557 -50.511  1.00  0.00    -0.271 OA
HETATM   10  C   UNL     1     -44.898  57.757 -52.830  1.00  0.00     0.035 C 
HETATM   11  C   UNL     1     -44.796  58.797 -53.943  1.00  0.00     0.002 C 
HETATM   12  C   UNL     1     -44.484  60.182 -53.386  1.00  0.00     0.002 C 
HETATM   13  C   UNL     1     -43.217  60.176 -52.536  1.00  0.00     0.027 C 
HETATM   14  H   UNL     1     -41.774  59.938 -50.104  1.00  0.00     0.163 HD
ENDROOT
BRANCH   1  15
HETATM   15  C   UNL     1     -41.200  55.847 -50.887  1.00  0.00     0.146 C 
BRANCH  15  16
HETATM   16  C   UNL     1     -41.128  54.542 -51.643  1.00  0.00     0.224 C 
HETATM   17  N   UNL     1     -40.164  53.678 -51.185  1.00  0.00    -0.327 N 
HETATM   18  H   UNL     1     -39.441  54.041 -50.572  1.00  0.00     0.169 HD
HETATM   19  O   UNL     1     -41.934  54.338 -52.552  1.00  0.00    -0.273 OA
BRANCH  17  20
HETATM   20  C   UNL     1     -40.000  52.325 -51.559  1.00  0.00     0.035 A 
HETATM   21  C   UNL     1     -39.876  51.899 -52.885  1.00  0.00     0.036 A 
HETATM   22  C   UNL     1     -39.774  50.534 -53.194  1.00  0.00    -0.060 A 
HETATM   23  C   UNL     1     -39.651  50.084 -54.622  1.00  0.00     0.048 C 
HETATM   24  C   UNL     1     -39.747  49.597 -52.157  1.00  0.00     0.007 A 
HETATM   25  C   UNL     1     -39.867  50.013 -50.833  1.00  0.00     0.003 A 
HETATM   26  C   UNL     1     -40.007  51.370 -50.536  1.00  0.00     0.029 A 
ENDBRANCH  17  20
ENDBRANCH  15  16
ENDBRANCH   1  15
TORSDOF 3
ENDMDL
MODEL 6
REMARK VINA RESULT:      -7.3      2.673      4.449
REMARK  3 active torsions:
REMARK  status: ('A' for Active; 'I' for Inactive)
REMARK    1  A    between atoms: C_4  and  N_5 
REMARK       I    between atoms: N_5  and  C_6 
REMARK    2  A    between atoms: C_6  and  C_7 
REMARK    3  A    between atoms: C_7  and  C_8 
ROOT
HETATM    1  C   UNL     1     -43.364  57.298 -55.366  1.00  0.00     0.286 C 
HETATM    2  N   UNL     1     -43.097  57.298 -53.865  1.00  0.00    -0.056 N 
HETATM    3  H   UNL     1     -43.834  57.844 -53.404  1.00  0.00     0.278 HD
HETATM    4  H   UNL     1     -43.229  56.321 -53.523  1.00  0.00     0.278 HD
HETATM    5  C   UNL     1     -41.731  57.786 -53.468  1.00  0.00     0.209 C 
HETATM    6  C   UNL     1     -41.542  59.217 -54.025  1.00  0.00     0.115 C 
HETATM    7  N   UNL     1     -41.862  59.290 -55.451  1.00  0.00    -0.353 N 
HETATM    8  C   UNL     1     -42.855  58.571 -56.067  1.00  0.00     0.249 C 
HETATM    9  O   UNL     1     -43.238  58.885 -57.188  1.00  0.00    -0.271 OA
HETATM   10  C   UNL     1     -41.595  57.716 -51.947  1.00  0.00     0.035 C 
HETATM   11  C   UNL     1     -42.427  58.767 -51.217  1.00  0.00     0.002 C 
HETATM   12  C   UNL     1     -42.149  60.168 -51.750  1.00  0.00     0.002 C 
HETATM   13  C   UNL     1     -42.375  60.254 -53.256  1.00  0.00     0.027 C 
HETATM   14  H   UNL     1     -41.565  60.113 -55.972  1.00  0.00     0.163 HD
ENDROOT
BRANCH   1  15
HETATM   15  C   UNL     1     -42.755  56.082 -56.080  1.00  0.00     0.146 C 
BRANCH  15  16
HETATM   16  C   UNL     1     -42.553  54.912 -55.148  1.00  0.00     0.224 C 
HETATM   17  N   UNL     1     -41.236  54.591 -54.926  1.00  0.00    -0.327 N 
HETATM   18  H   UNL     1     -40.534  54.970 -55.552  1.00  0.00     0.169 HD
HETATM   19  O   UNL     1     -43.541  54.379 -54.642  1.00  0.00    -0.273 OA
BRANCH  17  20
HETATM   20  C   UNL     1     -40.742  53.687 -53.958  1.00  0.00     0.035 A 
HETATM   21  C   UNL     1     -40.696  53.970 -52.589  1.00  0.00     0.036 A 
HETATM   22  C   UNL     1     -40.140  53.052 -51.685  1.00  0.00    -0.060 A 
HETATM   23  C   UNL     1     -40.086  53.368 -50.217  1.00  0.00     0.048 C 
HETATM   24  C   UNL     1     -39.673  51.822 -52.157  1.00  0.00     0.007 A 
HETATM   25  C   UNL     1     -39.718  51.531 -53.518  1.00  0.00     0.003 A 
HETATM   26  C   UNL     1     -40.237  52.465 -54.416  1.00  0.00     0.029 A 
ENDBRANCH  17  20
ENDBRANCH  15  16
ENDBRANCH   1  15
TORSDOF 3
ENDMDL
MODEL 7
REMARK VINA RESULT:      -7.3      1.934      8.056
REMARK  3 active torsions:
REMARK  status: ('A' for Active; 'I' for Inactive)
REMARK    1  A    between atoms: C_4  and  N_5 
REMARK       I    between atoms: N_5  and  C_6 
REMARK    2  A    between atoms: C_6  and  C_7 
REMARK    3  A    between atoms: C_7  and  C_8 
ROOT
HETATM    1  C   UNL     1     -41.579  54.965 -53.720  1.00  0.00     0.286 C 
HETATM    2  N   UNL     1     -41.871  55.308 -52.263  1.00  0.00    -0.056 N 
HETATM    3  H   UNL     1     -41.097  55.878 -51.903  1.00  0.00     0.278 HD
HETATM    4  H   UNL     1     -42.702  55.940 -52.251  1.00  0.00     0.278 HD
HETATM    5  C   UNL     1     -42.131  54.122 -51.377  1.00  0.00     0.209 C 
HETATM    6  C   UNL     1     -40.904  53.180 -51.448  1.00  0.00     0.115 C 
HETATM    7  N   UNL     1     -40.532  52.880 -52.831  1.00  0.00    -0.353 N 
HETATM    8  C   UNL     1     -40.627  53.765 -53.875  1.00  0.00     0.249 C 
HETATM    9  O   UNL     1     -40.047  53.536 -54.931  1.00  0.00    -0.271 OA
HETATM   10  C   UNL     1     -42.424  54.611 -49.958  1.00  0.00     0.035 C 
HETATM   11  C   UNL     1     -41.193  55.159 -49.240  1.00  0.00     0.002 C 
HETATM   12  C   UNL     1     -40.038  54.164 -49.273  1.00  0.00     0.002 C 
HETATM   13  C   UNL     1     -39.690  53.750 -50.699  1.00  0.00     0.027 C 
HETATM   14  H   UNL     1     -39.894  52.105 -53.003  1.00  0.00     0.163 HD
ENDROOT
BRANCH   1  15
HETATM   15  C   UNL     1     -42.851  54.675 -54.531  1.00  0.00     0.146 C 
BRANCH  15  16
HETATM   16  C   UNL     1     -43.144  55.756 -55.542  1.00  0.00     0.224 C 
HETATM   17  N   UNL     1     -42.508  55.588 -56.748  1.00  0.00    -0.327 N 
HETATM   18  H   UNL     1     -41.738  54.930 -56.800  1.00  0.00     0.169 HD
HETATM   19  O   UNL     1     -43.933  56.653 -55.240  1.00  0.00    -0.273 OA
BRANCH  17  20
HETATM   20  C   UNL     1     -42.746  56.319 -57.934  1.00  0.00     0.035 A 
HETATM   21  C   UNL     1     -42.306  57.631 -58.134  1.00  0.00     0.036 A 
HETATM   22  C   UNL     1     -42.625  58.323 -59.313  1.00  0.00    -0.060 A 
HETATM   23  C   UNL     1     -42.157  59.736 -59.515  1.00  0.00     0.048 C 
HETATM   24  C   UNL     1     -43.348  57.672 -60.316  1.00  0.00     0.007 A 
HETATM   25  C   UNL     1     -43.788  56.364 -60.125  1.00  0.00     0.003 A 
HETATM   26  C   UNL     1     -43.500  55.695 -58.934  1.00  0.00     0.029 A 
ENDBRANCH  17  20
ENDBRANCH  15  16
ENDBRANCH   1  15
TORSDOF 3
ENDMDL
MODEL 8
REMARK VINA RESULT:      -7.2      3.849      4.838
REMARK  3 active torsions:
REMARK  status: ('A' for Active; 'I' for Inactive)
REMARK    1  A    between atoms: C_4  and  N_5 
REMARK       I    between atoms: N_5  and  C_6 
REMARK    2  A    between atoms: C_6  and  C_7 
REMARK    3  A    between atoms: C_7  and  C_8 
ROOT
HETATM    1  C   UNL     1     -42.595  57.182 -52.809  1.00  0.00     0.286 C 
HETATM    2  N   UNL     1     -42.746  58.545 -53.476  1.00  0.00    -0.056 N 
HETATM    3  H   UNL     1     -41.900  59.095 -53.285  1.00  0.00     0.278 HD
HETATM    4  H   UNL     1     -42.741  58.390 -54.508  1.00  0.00     0.278 HD
HETATM    5  C   UNL     1     -43.986  59.302 -53.089  1.00  0.00     0.209 C 
HETATM    6  C   UNL     1     -43.991  59.478 -51.551  1.00  0.00     0.115 C 
HETATM    7  N   UNL     1     -43.771  58.208 -50.860  1.00  0.00    -0.353 N 
HETATM    8  C   UNL     1     -42.951  57.204 -51.311  1.00  0.00     0.249 C 
HETATM    9  O   UNL     1     -42.609  56.302 -50.554  1.00  0.00    -0.271 OA
HETATM   10  C   UNL     1     -44.016  60.632 -53.841  1.00  0.00     0.035 C 
HETATM   11  C   UNL     1     -42.979  61.635 -53.340  1.00  0.00     0.002 C 
HETATM   12  C   UNL     1     -43.076  61.831 -51.831  1.00  0.00     0.002 C 
HETATM   13  C   UNL     1     -42.953  60.508 -51.081  1.00  0.00     0.027 C 
HETATM   14  H   UNL     1     -43.976  58.157 -49.864  1.00  0.00     0.163 HD
ENDROOT
BRANCH   1  15
HETATM   15  C   UNL     1     -43.436  56.090 -53.485  1.00  0.00     0.146 C 
BRANCH  15  16
HETATM   16  C   UNL     1     -42.955  54.701 -53.141  1.00  0.00     0.224 C 
HETATM   17  N   UNL     1     -41.684  54.421 -53.582  1.00  0.00    -0.327 N 
HETATM   18  H   UNL     1     -41.269  55.029 -54.279  1.00  0.00     0.169 HD
HETATM   19  O   UNL     1     -43.689  53.965 -52.482  1.00  0.00    -0.273 OA
BRANCH  17  20
HETATM   20  C   UNL     1     -40.905  53.293 -53.239  1.00  0.00     0.035 A 
HETATM   21  C   UNL     1     -40.659  52.228 -54.112  1.00  0.00     0.036 A 
HETATM   22  C   UNL     1     -39.924  51.109 -53.691  1.00  0.00    -0.060 A 
HETATM   23  C   UNL     1     -39.674  49.966 -54.632  1.00  0.00     0.048 C 
HETATM   24  C   UNL     1     -39.392  51.086 -52.399  1.00  0.00     0.007 A 
HETATM   25  C   UNL     1     -39.629  52.143 -51.523  1.00  0.00     0.003 A 
HETATM   26  C   UNL     1     -40.394  53.235 -51.937  1.00  0.00     0.029 A 
ENDBRANCH  17  20
ENDBRANCH  15  16
ENDBRANCH   1  15
TORSDOF 3
ENDMDL
MODEL 9
REMARK VINA RESULT:      -7.1     14.445     17.525
REMARK  3 active torsions:
REMARK  status: ('A' for Active; 'I' for Inactive)
REMARK    1  A    between atoms: C_4  and  N_5 
REMARK       I    between atoms: N_5  and  C_6 
REMARK    2  A    between atoms: C_6  and  C_7 
REMARK    3  A    between atoms: C_7  and  C_8 
ROOT
HETATM    1  C   UNL     1     -35.840  40.607 -53.283  1.00  0.00     0.286 C 
HETATM    2  N   UNL     1     -34.346  40.383 -53.076  1.00  0.00    -0.056 N 
HETATM    3  H   UNL     1     -34.170  39.372 -53.047  1.00  0.00     0.278 HD
HETATM    4  H   UNL     1     -33.857  40.719 -53.935  1.00  0.00     0.278 HD
HETATM    5  C   UNL     1     -33.767  41.071 -51.870  1.00  0.00     0.209 C 
HETATM    6  C   UNL     1     -34.537  40.590 -50.617  1.00  0.00     0.115 C 
HETATM    7  N   UNL     1     -35.985  40.709 -50.792  1.00  0.00    -0.353 N 
HETATM    8  C   UNL     1     -36.649  40.506 -51.976  1.00  0.00     0.249 C 
HETATM    9  O   UNL     1     -37.865  40.355 -51.982  1.00  0.00    -0.271 OA
HETATM   10  C   UNL     1     -32.268  40.777 -51.797  1.00  0.00     0.035 C 
HETATM   11  C   UNL     1     -31.952  39.336 -51.405  1.00  0.00     0.002 C 
HETATM   12  C   UNL     1     -32.675  38.935 -50.123  1.00  0.00     0.002 C 
HETATM   13  C   UNL     1     -34.182  39.145 -50.236  1.00  0.00     0.027 C 
HETATM   14  H   UNL     1     -36.580  40.640 -49.968  1.00  0.00     0.163 HD
ENDROOT
BRANCH   1  15
HETATM   15  C   UNL     1     -36.157  41.959 -53.938  1.00  0.00     0.146 C 
BRANCH  15  16
HETATM   16  C   UNL     1     -35.940  41.935 -55.432  1.00  0.00     0.224 C 
HETATM   17  N   UNL     1     -36.765  41.069 -56.107  1.00  0.00    -0.327 N 
HETATM   18  H   UNL     1     -37.263  40.363 -55.576  1.00  0.00     0.169 HD
HETATM   19  O   UNL     1     -35.102  42.694 -55.922  1.00  0.00    -0.273 OA
BRANCH  17  20
HETATM   20  C   UNL     1     -36.928  40.982 -57.508  1.00  0.00     0.035 A 
HETATM   21  C   UNL     1     -37.062  42.098 -58.341  1.00  0.00     0.036 A 
HETATM   22  C   UNL     1     -37.279  41.943 -59.719  1.00  0.00    -0.060 A 
HETATM   23  C   UNL     1     -37.431  43.146 -60.605  1.00  0.00     0.048 C 
HETATM   24  C   UNL     1     -37.313  40.657 -60.267  1.00  0.00     0.007 A 
HETATM   25  C   UNL     1     -37.178  39.541 -59.445  1.00  0.00     0.003 A 
HETATM   26  C   UNL     1     -37.000  39.703 -58.070  1.00  0.00     0.029 A 
ENDBRANCH  17  20
ENDBRANCH  15  16
ENDBRANCH   1  15
TORSDOF 3
ENDMDL
MODEL 10
REMARK VINA RESULT:      -7.1      1.825      7.035
REMARK  3 active torsions:
REMARK  status: ('A' for Active; 'I' for Inactive)
REMARK    1  A    between atoms: C_4  and  N_5 
REMARK       I    between atoms: N_5  and  C_6 
REMARK    2  A    between atoms: C_6  and  C_7 
REMARK    3  A    between atoms: C_7  and  C_8 
ROOT
HETATM    1  C   UNL     1     -43.493  56.045 -53.332  1.00  0.00     0.286 C 
HETATM    2  N   UNL     1     -42.601  55.131 -54.165  1.00  0.00    -0.056 N 
HETATM    3  H   UNL     1     -42.936  54.166 -54.060  1.00  0.00     0.278 HD
HETATM    4  H   UNL     1     -42.762  55.367 -55.169  1.00  0.00     0.278 HD
HETATM    5  C   UNL     1     -41.132  55.233 -53.857  1.00  0.00     0.209 C 
HETATM    6  C   UNL     1     -40.925  54.924 -52.355  1.00  0.00     0.115 C 
HETATM    7  N   UNL     1     -41.816  55.720 -51.511  1.00  0.00    -0.353 N 
HETATM    8  C   UNL     1     -43.100  56.073 -51.843  1.00  0.00     0.249 C 
HETATM    9  O   UNL     1     -43.865  56.496 -50.984  1.00  0.00    -0.271 OA
HETATM   10  C   UNL     1     -40.361  54.282 -54.773  1.00  0.00     0.035 C 
HETATM   11  C   UNL     1     -40.560  52.810 -54.422  1.00  0.00     0.002 C 
HETATM   12  C   UNL     1     -40.270  52.543 -52.949  1.00  0.00     0.002 C 
HETATM   13  C   UNL     1     -41.111  53.432 -52.038  1.00  0.00     0.027 C 
HETATM   14  H   UNL     1     -41.620  55.771 -50.513  1.00  0.00     0.163 HD
ENDROOT
BRANCH   1  15
HETATM   15  C   UNL     1     -43.515  57.491 -53.848  1.00  0.00     0.146 C 
BRANCH  15  16
HETATM   16  C   UNL     1     -43.776  57.564 -55.333  1.00  0.00     0.224 C 
HETATM   17  N   UNL     1     -42.641  57.527 -56.106  1.00  0.00    -0.327 N 
HETATM   18  H   UNL     1     -41.746  57.693 -55.660  1.00  0.00     0.169 HD
HETATM   19  O   UNL     1     -44.941  57.608 -55.730  1.00  0.00    -0.273 OA
BRANCH  17  20
HETATM   20  C   UNL     1     -42.584  57.377 -57.511  1.00  0.00     0.035 A 
HETATM   21  C   UNL     1     -42.279  58.423 -58.388  1.00  0.00     0.036 A 
HETATM   22  C   UNL     1     -42.295  58.223 -59.777  1.00  0.00    -0.060 A 
HETATM   23  C   UNL     1     -41.976  59.354 -60.712  1.00  0.00     0.048 C 
HETATM   24  C   UNL     1     -42.572  56.950 -60.283  1.00  0.00     0.007 A 
HETATM   25  C   UNL     1     -42.875  55.902 -59.416  1.00  0.00     0.003 A 
HETATM   26  C   UNL     1     -42.894  56.118 -58.037  1.00  0.00     0.029 A 
ENDBRANCH  17  20
ENDBRANCH  15  16
ENDBRANCH   1  15
TORSDOF 3
ENDMDL
