MODEL 1
REMARK VINA RESULT:      -9.6      0.000      0.000
REMARK  10 active torsions:
REMARK  status: ('A' for Active; 'I' for Inactive)
REMARK    1  A    between atoms: C_2  and  N_3 
REMARK    2  A    between atoms: N_3  and  C_4 
REMARK    3  A    between atoms: C_6  and  N_7 
REMARK    4  A    between atoms: N_10  and  C_12 
REMARK    5  A    between atoms: C_25  and  N_26 
REMARK    6  A    between atoms: N_26  and  C_27 
REMARK    7  A    between atoms: C_27  and  C_28 
REMARK    8  A    between atoms: C_28  and  O_29 
REMARK    9  A    between atoms: C_33  and  O_34 
REMARK   10  A    between atoms: O_34  and  C_35 
ROOT
HETATM    1  C   UNL     1     -43.742  56.408 -51.513  1.00  0.00     0.745 A 
HETATM    2  N   UNL     1     -43.010  57.115 -52.367  1.00  0.00     0.130 NA
HETATM    3  C   UNL     1     -43.235  58.416 -52.427  1.00  0.00     0.743 A 
HETATM    4  N   UNL     1     -44.175  59.013 -51.709  1.00  0.00    -0.030 NA
HETATM    5  C   UNL     1     -44.881  58.239 -50.896  1.00  0.00     0.238 A 
HETATM    6  N   UNL     1     -44.709  56.932 -50.778  1.00  0.00    -0.030 NA
ENDROOT
BRANCH   3   7
HETATM    7  N   UNL     1     -42.456  59.180 -53.298  1.00  0.00    -0.210 N 
HETATM    8  C   UNL     1     -43.197  60.062 -54.207  1.00  0.00     0.169 C 
HETATM    9  C   UNL     1     -43.733  59.271 -55.421  1.00  0.00     0.256 C 
HETATM   10  N   UNL     1     -42.567  58.550 -56.150  1.00  0.00    -0.059 N 
HETATM   11  H   UNL     1     -41.887  59.286 -56.376  1.00  0.00     0.281 HD
HETATM   12  C   UNL     1     -41.837  57.628 -55.139  1.00  0.00     0.256 C 
HETATM   13  C   UNL     1     -41.343  58.453 -53.925  1.00  0.00     0.169 C 
BRANCH  10  14
HETATM   14  C   UNL     1     -42.938  57.912 -57.505  1.00  0.00     0.129 C 
HETATM   15  C   UNL     1     -44.313  58.473 -57.962  1.00  0.00     0.043 C 
HETATM   16  C   UNL     1     -44.708  57.890 -59.330  1.00  0.00    -0.012 C 
HETATM   17  C   UNL     1     -44.779  56.357 -59.219  1.00  0.00     0.009 C 
HETATM   18  C   UNL     1     -43.651  58.280 -60.372  1.00  0.00     0.009 C 
HETATM   19  C   UNL     1     -43.411  55.792 -58.797  1.00  0.00    -0.012 C 
HETATM   20  C   UNL     1     -43.017  56.372 -57.420  1.00  0.00     0.043 C 
HETATM   21  C   UNL     1     -42.362  56.194 -59.846  1.00  0.00     0.009 C 
HETATM   22  C   UNL     1     -42.283  57.726 -59.955  1.00  0.00    -0.012 C 
HETATM   23  C   UNL     1     -41.891  58.304 -58.583  1.00  0.00     0.043 C 
ENDBRANCH  10  14
ENDBRANCH   3   7
BRANCH   1  24
HETATM   24  N   UNL     1     -43.543  55.034 -51.391  1.00  0.00    -0.188 N 
HETATM   25  H   UNL     1     -43.960  54.696 -50.532  1.00  0.00     0.184 HD
BRANCH  24  26
HETATM   26  C   UNL     1     -42.561  54.200 -51.945  1.00  0.00     0.049 A 
HETATM   27  C   UNL     1     -41.512  53.647 -51.203  1.00  0.00     0.033 A 
HETATM   28  C   UNL     1     -40.530  52.848 -51.804  1.00  0.00     0.039 A 
HETATM   29  C   UNL     1     -40.563  52.606 -53.175  1.00  0.00     0.078 A 
HETATM   30  C   UNL     1     -41.593  53.170 -53.930  1.00  0.00     0.039 A 
HETATM   31  C   UNL     1     -42.578  53.958 -53.323  1.00  0.00     0.033 A 
BRANCH  29  32
HETATM   32  O   UNL     1     -39.673  51.860 -53.890  1.00  0.00    -0.255 OA
BRANCH  32  33
HETATM   33  C   UNL     1     -39.885  50.459 -53.952  1.00  0.00     0.530 C 
HETATM   34  F   UNL     1     -39.887  49.915 -52.715  1.00  0.00    -0.144 F 
HETATM   35  F   UNL     1     -41.051  50.171 -54.569  1.00  0.00    -0.144 F 
HETATM   36  F   UNL     1     -38.881  49.896 -54.656  1.00  0.00    -0.144 F 
ENDBRANCH  32  33
ENDBRANCH  29  32
ENDBRANCH  24  26
ENDBRANCH   1  24
BRANCH   5  37
HETATM   37  N   UNL     1     -45.841  58.889 -50.141  1.00  0.00    -0.258 NA
HETATM   38  H   UNL     1     -46.756  58.576 -50.450  1.00  0.00     0.130 HD
BRANCH  37  39
HETATM   39  C   UNL     1     -45.754  60.350 -50.090  1.00  0.00     0.121 C 
BRANCH  39  40
HETATM   40  C   UNL     1     -45.411  60.859 -48.684  1.00  0.00     0.178 C 
BRANCH  40  41
HETATM   41  O   UNL     1     -45.904  59.950 -47.697  1.00  0.00    -0.400 OA
HETATM   42  H   UNL     1     -46.598  59.419 -48.125  1.00  0.00     0.209 HD
ENDBRANCH  40  41
ENDBRANCH  39  40
ENDBRANCH  37  39
ENDBRANCH   5  37
TORSDOF 10
ENDMDL
MODEL 2
REMARK VINA RESULT:      -9.6      0.263      1.605
REMARK  10 active torsions:
REMARK  status: ('A' for Active; 'I' for Inactive)
REMARK    1  A    between atoms: C_2  and  N_3 
REMARK    2  A    between atoms: N_3  and  C_4 
REMARK    3  A    between atoms: C_6  and  N_7 
REMARK    4  A    between atoms: N_10  and  C_12 
REMARK    5  A    between atoms: C_25  and  N_26 
REMARK    6  A    between atoms: N_26  and  C_27 
REMARK    7  A    between atoms: C_27  and  C_28 
REMARK    8  A    between atoms: C_28  and  O_29 
REMARK    9  A    between atoms: C_33  and  O_34 
REMARK   10  A    between atoms: O_34  and  C_35 
ROOT
HETATM    1  C   UNL     1     -43.797  56.524 -51.712  1.00  0.00     0.745 A 
HETATM    2  N   UNL     1     -43.140  57.287 -52.578  1.00  0.00     0.130 NA
HETATM    3  C   UNL     1     -43.358  58.589 -52.526  1.00  0.00     0.743 A 
HETATM    4  N   UNL     1     -44.221  59.137 -51.685  1.00  0.00    -0.030 NA
HETATM    5  C   UNL     1     -44.856  58.310 -50.865  1.00  0.00     0.238 A 
HETATM    6  N   UNL     1     -44.686  56.998 -50.855  1.00  0.00    -0.030 NA
ENDROOT
BRANCH   3   7
HETATM    7  N   UNL     1     -42.655  59.411 -53.411  1.00  0.00    -0.210 N 
HETATM    8  C   UNL     1     -43.478  60.227 -54.311  1.00  0.00     0.169 C 
HETATM    9  C   UNL     1     -43.965  59.390 -55.515  1.00  0.00     0.256 C 
HETATM   10  N   UNL     1     -42.755  58.763 -56.259  1.00  0.00    -0.059 N 
HETATM   11  H   UNL     1     -42.140  59.551 -56.496  1.00  0.00     0.281 HD
HETATM   12  C   UNL     1     -41.938  57.907 -55.256  1.00  0.00     0.256 C 
HETATM   13  C   UNL     1     -41.496  58.774 -54.052  1.00  0.00     0.169 C 
BRANCH  10  14
HETATM   14  C   UNL     1     -43.092  58.091 -57.606  1.00  0.00     0.129 C 
HETATM   15  C   UNL     1     -41.965  58.418 -58.624  1.00  0.00     0.043 C 
HETATM   16  C   UNL     1     -42.240  57.738 -59.976  1.00  0.00    -0.012 C 
HETATM   17  C   UNL     1     -43.594  58.230 -60.517  1.00  0.00     0.009 C 
HETATM   18  C   UNL     1     -42.291  56.217 -59.777  1.00  0.00     0.009 C 
HETATM   19  C   UNL     1     -44.720  57.880 -59.528  1.00  0.00    -0.012 C 
HETATM   20  C   UNL     1     -44.446  58.569 -58.173  1.00  0.00     0.043 C 
HETATM   21  C   UNL     1     -44.756  56.356 -59.335  1.00  0.00     0.009 C 
HETATM   22  C   UNL     1     -43.407  55.860 -58.787  1.00  0.00    -0.012 C 
HETATM   23  C   UNL     1     -43.134  56.548 -57.436  1.00  0.00     0.043 C 
ENDBRANCH  10  14
ENDBRANCH   3   7
BRANCH   1  24
HETATM   24  N   UNL     1     -43.600  55.144 -51.704  1.00  0.00    -0.188 N 
HETATM   25  H   UNL     1     -43.999  54.739 -50.867  1.00  0.00     0.184 HD
BRANCH  24  26
HETATM   26  C   UNL     1     -42.634  54.355 -52.345  1.00  0.00     0.049 A 
HETATM   27  C   UNL     1     -42.660  54.065 -53.713  1.00  0.00     0.033 A 
HETATM   28  C   UNL     1     -41.694  53.242 -54.308  1.00  0.00     0.039 A 
HETATM   29  C   UNL     1     -40.691  52.664 -53.533  1.00  0.00     0.078 A 
HETATM   30  C   UNL     1     -40.667  52.927 -52.163  1.00  0.00     0.039 A 
HETATM   31  C   UNL     1     -41.627  53.760 -51.576  1.00  0.00     0.033 A 
BRANCH  29  32
HETATM   32  O   UNL     1     -39.698  51.839 -53.974  1.00  0.00    -0.255 OA
BRANCH  32  33
HETATM   33  C   UNL     1     -39.974  50.450 -54.043  1.00  0.00     0.530 C 
HETATM   34  F   UNL     1     -39.081  49.818 -54.836  1.00  0.00    -0.144 F 
HETATM   35  F   UNL     1     -39.956  49.890 -52.814  1.00  0.00    -0.144 F 
HETATM   36  F   UNL     1     -41.203  50.274 -54.571  1.00  0.00    -0.144 F 
ENDBRANCH  32  33
ENDBRANCH  29  32
ENDBRANCH  24  26
ENDBRANCH   1  24
BRANCH   5  37
HETATM   37  N   UNL     1     -45.736  58.908 -49.981  1.00  0.00    -0.258 NA
HETATM   38  H   UNL     1     -46.674  58.583 -50.195  1.00  0.00     0.130 HD
BRANCH  37  39
HETATM   39  C   UNL     1     -45.674  60.368 -49.884  1.00  0.00     0.121 C 
BRANCH  39  40
HETATM   40  C   UNL     1     -45.500  60.843 -48.435  1.00  0.00     0.178 C 
BRANCH  40  41
HETATM   41  O   UNL     1     -45.996  59.855 -47.530  1.00  0.00    -0.400 OA
HETATM   42  H   UNL     1     -46.544  60.321 -46.875  1.00  0.00     0.209 HD
ENDBRANCH  40  41
ENDBRANCH  39  40
ENDBRANCH  37  39
ENDBRANCH   5  37
TORSDOF 10
ENDMDL
MODEL 3
REMARK VINA RESULT:      -9.3      2.242      2.744
REMARK  10 active torsions:
REMARK  status: ('A' for Active; 'I' for Inactive)
REMARK    1  A    between atoms: C_2  and  N_3 
REMARK    2  A    between atoms: N_3  and  C_4 
REMARK    3  A    between atoms: C_6  and  N_7 
REMARK    4  A    between atoms: N_10  and  C_12 
REMARK    5  A    between atoms: C_25  and  N_26 
REMARK    6  A    between atoms: N_26  and  C_27 
REMARK    7  A    between atoms: C_27  and  C_28 
REMARK    8  A    between atoms: C_28  and  O_29 
REMARK    9  A    between atoms: C_33  and  O_34 
REMARK   10  A    between atoms: O_34  and  C_35 
ROOT
HETATM    1  C   UNL     1     -42.440  56.801 -51.772  1.00  0.00     0.745 A 
HETATM    2  N   UNL     1     -43.201  57.534 -52.578  1.00  0.00     0.130 NA
HETATM    3  C   UNL     1     -42.977  58.836 -52.607  1.00  0.00     0.743 A 
HETATM    4  N   UNL     1     -42.067  59.422 -51.844  1.00  0.00    -0.030 NA
HETATM    5  C   UNL     1     -41.361  58.630 -51.048  1.00  0.00     0.238 A 
HETATM    6  N   UNL     1     -41.525  57.319 -50.970  1.00  0.00    -0.030 NA
ENDROOT
BRANCH   3   7
HETATM    7  N   UNL     1     -43.749  59.619 -53.469  1.00  0.00    -0.210 N 
HETATM    8  C   UNL     1     -44.972  58.987 -53.978  1.00  0.00     0.169 C 
HETATM    9  C   UNL     1     -44.650  58.047 -55.161  1.00  0.00     0.256 C 
HETATM   10  N   UNL     1     -43.902  58.825 -56.277  1.00  0.00    -0.059 N 
HETATM   11  H   UNL     1     -44.505  59.624 -56.507  1.00  0.00     0.281 HD
HETATM   12  C   UNL     1     -42.618  59.454 -55.676  1.00  0.00     0.256 C 
HETATM   13  C   UNL     1     -42.981  60.363 -54.476  1.00  0.00     0.169 C 
BRANCH  10  14
HETATM   14  C   UNL     1     -43.724  58.056 -57.603  1.00  0.00     0.129 C 
HETATM   15  C   UNL     1     -45.123  57.821 -58.236  1.00  0.00     0.043 C 
HETATM   16  C   UNL     1     -44.993  57.088 -59.582  1.00  0.00    -0.012 C 
HETATM   17  C   UNL     1     -44.289  55.739 -59.351  1.00  0.00     0.009 C 
HETATM   18  C   UNL     1     -44.159  57.942 -60.546  1.00  0.00     0.009 C 
HETATM   19  C   UNL     1     -42.889  55.967 -58.753  1.00  0.00    -0.012 C 
HETATM   20  C   UNL     1     -43.021  56.698 -57.398  1.00  0.00     0.043 C 
HETATM   21  C   UNL     1     -42.067  56.827 -59.726  1.00  0.00     0.009 C 
HETATM   22  C   UNL     1     -42.763  58.179 -59.955  1.00  0.00    -0.012 C 
HETATM   23  C   UNL     1     -42.895  58.907 -58.604  1.00  0.00     0.043 C 
ENDBRANCH  10  14
ENDBRANCH   3   7
BRANCH   1  24
HETATM   24  N   UNL     1     -42.616  55.421 -51.707  1.00  0.00    -0.188 N 
HETATM   25  H   UNL     1     -43.157  55.175 -50.888  1.00  0.00     0.184 HD
BRANCH  24  26
HETATM   26  C   UNL     1     -41.855  54.376 -52.252  1.00  0.00     0.049 A 
HETATM   27  C   UNL     1     -40.989  53.579 -51.497  1.00  0.00     0.033 A 
HETATM   28  C   UNL     1     -40.218  52.568 -52.088  1.00  0.00     0.039 A 
HETATM   29  C   UNL     1     -40.279  52.352 -53.463  1.00  0.00     0.078 A 
HETATM   30  C   UNL     1     -41.123  53.155 -54.231  1.00  0.00     0.039 A 
HETATM   31  C   UNL     1     -41.899  54.156 -53.634  1.00  0.00     0.033 A 
BRANCH  29  32
HETATM   32  O   UNL     1     -39.582  51.416 -54.169  1.00  0.00    -0.255 OA
BRANCH  32  33
HETATM   33  C   UNL     1     -40.133  50.113 -54.262  1.00  0.00     0.530 C 
HETATM   34  F   UNL     1     -39.956  49.429 -53.110  1.00  0.00    -0.144 F 
HETATM   35  F   UNL     1     -41.450  50.162 -54.555  1.00  0.00    -0.144 F 
HETATM   36  F   UNL     1     -39.504  49.441 -55.249  1.00  0.00    -0.144 F 
ENDBRANCH  32  33
ENDBRANCH  29  32
ENDBRANCH  24  26
ENDBRANCH   1  24
BRANCH   5  37
HETATM   37  N   UNL     1     -40.401  59.262 -50.278  1.00  0.00    -0.258 NA
HETATM   38  H   UNL     1     -40.763  60.169 -50.000  1.00  0.00     0.130 HD
BRANCH  37  39
HETATM   39  C   UNL     1     -39.061  59.364 -50.859  1.00  0.00     0.121 C 
BRANCH  39  40
HETATM   40  C   UNL     1     -38.036  59.903 -49.852  1.00  0.00     0.178 C 
BRANCH  40  41
HETATM   41  O   UNL     1     -36.746  59.346 -50.116  1.00  0.00    -0.400 OA
HETATM   42  H   UNL     1     -36.258  60.002 -50.642  1.00  0.00     0.209 HD
ENDBRANCH  40  41
ENDBRANCH  39  40
ENDBRANCH  37  39
ENDBRANCH   5  37
TORSDOF 10
ENDMDL
MODEL 4
REMARK VINA RESULT:      -9.0      2.687      6.807
REMARK  10 active torsions:
REMARK  status: ('A' for Active; 'I' for Inactive)
REMARK    1  A    between atoms: C_2  and  N_3 
REMARK    2  A    between atoms: N_3  and  C_4 
REMARK    3  A    between atoms: C_6  and  N_7 
REMARK    4  A    between atoms: N_10  and  C_12 
REMARK    5  A    between atoms: C_25  and  N_26 
REMARK    6  A    between atoms: N_26  and  C_27 
REMARK    7  A    between atoms: C_27  and  C_28 
REMARK    8  A    between atoms: C_28  and  O_29 
REMARK    9  A    between atoms: C_33  and  O_34 
REMARK   10  A    between atoms: O_34  and  C_35 
ROOT
HETATM    1  C   UNL     1     -42.852  55.830 -54.669  1.00  0.00     0.745 A 
HETATM    2  N   UNL     1     -42.222  56.945 -54.315  1.00  0.00     0.130 NA
HETATM    3  C   UNL     1     -42.209  57.937 -55.188  1.00  0.00     0.743 A 
HETATM    4  N   UNL     1     -42.755  57.840 -56.391  1.00  0.00    -0.030 NA
HETATM    5  C   UNL     1     -43.347  56.689 -56.681  1.00  0.00     0.238 A 
HETATM    6  N   UNL     1     -43.405  55.654 -55.858  1.00  0.00    -0.030 NA
ENDROOT
BRANCH   3   7
HETATM    7  N   UNL     1     -41.575  59.128 -54.823  1.00  0.00    -0.210 N 
HETATM    8  C   UNL     1     -40.967  59.141 -53.488  1.00  0.00     0.169 C 
HETATM    9  C   UNL     1     -42.034  59.406 -52.403  1.00  0.00     0.256 C 
HETATM   10  N   UNL     1     -42.785  60.732 -52.701  1.00  0.00    -0.059 N 
HETATM   11  H   UNL     1     -42.055  61.450 -52.779  1.00  0.00     0.281 HD
HETATM   12  C   UNL     1     -43.413  60.646 -54.118  1.00  0.00     0.256 C 
HETATM   13  C   UNL     1     -42.315  60.349 -55.169  1.00  0.00     0.169 C 
BRANCH  10  14
HETATM   14  C   UNL     1     -43.719  61.223 -51.575  1.00  0.00     0.129 C 
HETATM   15  C   UNL     1     -43.905  62.759 -51.713  1.00  0.00     0.043 C 
HETATM   16  C   UNL     1     -44.860  63.290 -50.630  1.00  0.00    -0.012 C 
HETATM   17  C   UNL     1     -44.280  62.955 -49.245  1.00  0.00     0.009 C 
HETATM   18  C   UNL     1     -46.230  62.617 -50.789  1.00  0.00     0.009 C 
HETATM   19  C   UNL     1     -44.123  61.432 -49.089  1.00  0.00    -0.012 C 
HETATM   20  C   UNL     1     -43.159  60.900 -50.173  1.00  0.00     0.043 C 
HETATM   21  C   UNL     1     -45.501  60.770 -49.255  1.00  0.00     0.009 C 
HETATM   22  C   UNL     1     -46.081  61.097 -50.641  1.00  0.00    -0.012 C 
HETATM   23  C   UNL     1     -45.120  60.568 -51.721  1.00  0.00     0.043 C 
ENDBRANCH  10  14
ENDBRANCH   3   7
BRANCH   1  24
HETATM   24  N   UNL     1     -42.915  54.752 -53.789  1.00  0.00    -0.188 N 
HETATM   25  H   UNL     1     -43.711  54.852 -53.171  1.00  0.00     0.184 HD
BRANCH  24  26
HETATM   26  C   UNL     1     -41.912  53.885 -53.332  1.00  0.00     0.049 A 
HETATM   27  C   UNL     1     -41.257  52.963 -54.155  1.00  0.00     0.033 A 
HETATM   28  C   UNL     1     -40.285  52.088 -53.650  1.00  0.00     0.039 A 
HETATM   29  C   UNL     1     -39.967  52.100 -52.294  1.00  0.00     0.078 A 
HETATM   30  C   UNL     1     -40.629  53.000 -51.457  1.00  0.00     0.039 A 
HETATM   31  C   UNL     1     -41.591  53.879 -51.969  1.00  0.00     0.033 A 
BRANCH  29  32
HETATM   32  O   UNL     1     -39.054  51.303 -51.667  1.00  0.00    -0.255 OA
BRANCH  32  33
HETATM   33  C   UNL     1     -39.507  50.065 -51.143  1.00  0.00     0.530 C 
HETATM   34  F   UNL     1     -40.417  50.258 -50.163  1.00  0.00    -0.144 F 
HETATM   35  F   UNL     1     -40.050  49.297 -52.112  1.00  0.00    -0.144 F 
HETATM   36  F   UNL     1     -38.456  49.403 -50.616  1.00  0.00    -0.144 F 
ENDBRANCH  32  33
ENDBRANCH  29  32
ENDBRANCH  24  26
ENDBRANCH   1  24
BRANCH   5  37
HETATM   37  N   UNL     1     -43.930  56.619 -57.934  1.00  0.00    -0.258 NA
HETATM   38  H   UNL     1     -44.858  56.220 -57.832  1.00  0.00     0.130 HD
BRANCH  37  39
HETATM   39  C   UNL     1     -43.157  55.943 -58.977  1.00  0.00     0.121 C 
BRANCH  39  40
HETATM   40  C   UNL     1     -42.514  56.936 -59.955  1.00  0.00     0.178 C 
BRANCH  40  41
HETATM   41  O   UNL     1     -41.247  56.445 -60.394  1.00  0.00    -0.400 OA
HETATM   42  H   UNL     1     -41.005  56.955 -61.187  1.00  0.00     0.209 HD
ENDBRANCH  40  41
ENDBRANCH  39  40
ENDBRANCH  37  39
ENDBRANCH   5  37
TORSDOF 10
ENDMDL
MODEL 5
REMARK VINA RESULT:      -8.6      3.148      6.946
REMARK  10 active torsions:
REMARK  status: ('A' for Active; 'I' for Inactive)
REMARK    1  A    between atoms: C_2  and  N_3 
REMARK    2  A    between atoms: N_3  and  C_4 
REMARK    3  A    between atoms: C_6  and  N_7 
REMARK    4  A    between atoms: N_10  and  C_12 
REMARK    5  A    between atoms: C_25  and  N_26 
REMARK    6  A    between atoms: N_26  and  C_27 
REMARK    7  A    between atoms: C_27  and  C_28 
REMARK    8  A    between atoms: C_28  and  O_29 
REMARK    9  A    between atoms: C_33  and  O_34 
REMARK   10  A    between atoms: O_34  and  C_35 
ROOT
HETATM    1  C   UNL     1     -42.582  55.161 -55.564  1.00  0.00     0.745 A 
HETATM    2  N   UNL     1     -41.998  56.270 -55.124  1.00  0.00     0.130 NA
HETATM    3  C   UNL     1     -42.150  57.364 -55.850  1.00  0.00     0.743 A 
HETATM    4  N   UNL     1     -42.815  57.376 -56.995  1.00  0.00    -0.030 NA
HETATM    5  C   UNL     1     -43.351  56.226 -57.381  1.00  0.00     0.238 A 
HETATM    6  N   UNL     1     -43.246  55.093 -56.705  1.00  0.00    -0.030 NA
ENDROOT
BRANCH   3   7
HETATM    7  N   UNL     1     -41.566  58.547 -55.389  1.00  0.00    -0.210 N 
HETATM    8  C   UNL     1     -41.093  58.524 -54.000  1.00  0.00     0.169 C 
HETATM    9  C   UNL     1     -42.266  58.751 -53.020  1.00  0.00     0.256 C 
HETATM   10  N   UNL     1     -42.996  60.080 -53.352  1.00  0.00    -0.059 N 
HETATM   11  H   UNL     1     -42.267  60.805 -53.336  1.00  0.00     0.281 HD
HETATM   12  C   UNL     1     -43.478  60.032 -54.826  1.00  0.00     0.256 C 
HETATM   13  C   UNL     1     -42.279  59.774 -55.771  1.00  0.00     0.169 C 
BRANCH  10  14
HETATM   14  C   UNL     1     -44.040  60.531 -52.311  1.00  0.00     0.129 C 
HETATM   15  C   UNL     1     -43.390  60.490 -50.900  1.00  0.00     0.043 C 
HETATM   16  C   UNL     1     -44.386  60.968 -49.830  1.00  0.00    -0.012 C 
HETATM   17  C   UNL     1     -45.628  60.059 -49.861  1.00  0.00     0.009 C 
HETATM   18  C   UNL     1     -44.802  62.413 -50.133  1.00  0.00     0.009 C 
HETATM   19  C   UNL     1     -46.295  60.120 -51.247  1.00  0.00    -0.012 C 
HETATM   20  C   UNL     1     -45.296  59.634 -52.320  1.00  0.00     0.043 C 
HETATM   21  C   UNL     1     -46.702  61.573 -51.539  1.00  0.00     0.009 C 
HETATM   22  C   UNL     1     -45.462  62.484 -51.516  1.00  0.00    -0.012 C 
HETATM   23  C   UNL     1     -44.467  61.999 -52.586  1.00  0.00     0.043 C 
ENDBRANCH  10  14
ENDBRANCH   3   7
BRANCH   1  24
HETATM   24  N   UNL     1     -42.473  53.977 -54.837  1.00  0.00    -0.188 N 
HETATM   25  H   UNL     1     -43.065  53.263 -55.241  1.00  0.00     0.184 HD
BRANCH  24  26
HETATM   26  C   UNL     1     -42.096  53.754 -53.504  1.00  0.00     0.049 A 
HETATM   27  C   UNL     1     -42.895  54.101 -52.410  1.00  0.00     0.033 A 
HETATM   28  C   UNL     1     -42.465  53.895 -51.092  1.00  0.00     0.039 A 
HETATM   29  C   UNL     1     -41.205  53.358 -50.841  1.00  0.00     0.078 A 
HETATM   30  C   UNL     1     -40.389  53.027 -51.924  1.00  0.00     0.039 A 
HETATM   31  C   UNL     1     -40.828  53.225 -53.238  1.00  0.00     0.033 A 
BRANCH  29  32
HETATM   32  O   UNL     1     -40.656  53.113 -49.616  1.00  0.00    -0.255 OA
BRANCH  32  33
HETATM   33  C   UNL     1     -40.027  54.192 -48.946  1.00  0.00     0.530 C 
HETATM   34  F   UNL     1     -38.857  54.515 -49.540  1.00  0.00    -0.144 F 
HETATM   35  F   UNL     1     -40.828  55.279 -48.916  1.00  0.00    -0.144 F 
HETATM   36  F   UNL     1     -39.764  53.824 -47.675  1.00  0.00    -0.144 F 
ENDBRANCH  32  33
ENDBRANCH  29  32
ENDBRANCH  24  26
ENDBRANCH   1  24
BRANCH   5  37
HETATM   37  N   UNL     1     -44.060  56.269 -58.568  1.00  0.00    -0.258 NA
HETATM   38  H   UNL     1     -45.051  56.285 -58.348  1.00  0.00     0.130 HD
BRANCH  37  39
HETATM   39  C   UNL     1     -43.738  55.240 -59.559  1.00  0.00     0.121 C 
BRANCH  39  40
HETATM   40  C   UNL     1     -44.976  54.432 -59.973  1.00  0.00     0.178 C 
BRANCH  40  41
HETATM   41  O   UNL     1     -45.032  53.207 -59.240  1.00  0.00    -0.400 OA
HETATM   42  H   UNL     1     -44.151  52.798 -59.304  1.00  0.00     0.209 HD
ENDBRANCH  40  41
ENDBRANCH  39  40
ENDBRANCH  37  39
ENDBRANCH   5  37
TORSDOF 10
ENDMDL
MODEL 6
REMARK VINA RESULT:      -8.6      3.010      6.891
REMARK  10 active torsions:
REMARK  status: ('A' for Active; 'I' for Inactive)
REMARK    1  A    between atoms: C_2  and  N_3 
REMARK    2  A    between atoms: N_3  and  C_4 
REMARK    3  A    between atoms: C_6  and  N_7 
REMARK    4  A    between atoms: N_10  and  C_12 
REMARK    5  A    between atoms: C_25  and  N_26 
REMARK    6  A    between atoms: N_26  and  C_27 
REMARK    7  A    between atoms: C_27  and  C_28 
REMARK    8  A    between atoms: C_28  and  O_29 
REMARK    9  A    between atoms: C_33  and  O_34 
REMARK   10  A    between atoms: O_34  and  C_35 
ROOT
HETATM    1  C   UNL     1     -43.330  55.764 -57.584  1.00  0.00     0.745 A 
HETATM    2  N   UNL     1     -43.230  57.037 -57.217  1.00  0.00     0.130 NA
HETATM    3  C   UNL     1     -43.473  57.954 -58.137  1.00  0.00     0.743 A 
HETATM    4  N   UNL     1     -43.764  57.649 -59.393  1.00  0.00    -0.030 NA
HETATM    5  C   UNL     1     -43.823  56.357 -59.690  1.00  0.00     0.238 A 
HETATM    6  N   UNL     1     -43.599  55.384 -58.822  1.00  0.00    -0.030 NA
ENDROOT
BRANCH   3   7
HETATM    7  N   UNL     1     -43.400  59.298 -57.763  1.00  0.00    -0.210 N 
HETATM    8  C   UNL     1     -42.128  59.725 -57.170  1.00  0.00     0.169 C 
HETATM    9  C   UNL     1     -42.061  59.332 -55.678  1.00  0.00     0.256 C 
HETATM   10  N   UNL     1     -43.274  59.923 -54.911  1.00  0.00    -0.059 N 
HETATM   11  H   UNL     1     -43.252  60.934 -55.097  1.00  0.00     0.281 HD
HETATM   12  C   UNL     1     -44.582  59.424 -55.579  1.00  0.00     0.256 C 
HETATM   13  C   UNL     1     -44.595  59.811 -57.079  1.00  0.00     0.169 C 
BRANCH  10  14
HETATM   14  C   UNL     1     -43.205  59.792 -53.375  1.00  0.00     0.129 C 
HETATM   15  C   UNL     1     -43.781  58.408 -52.965  1.00  0.00     0.043 C 
HETATM   16  C   UNL     1     -43.699  58.217 -51.441  1.00  0.00    -0.012 C 
HETATM   17  C   UNL     1     -44.494  59.340 -50.752  1.00  0.00     0.009 C 
HETATM   18  C   UNL     1     -42.230  58.284 -51.000  1.00  0.00     0.009 C 
HETATM   19  C   UNL     1     -43.908  60.713 -51.129  1.00  0.00    -0.012 C 
HETATM   20  C   UNL     1     -43.997  60.907 -52.659  1.00  0.00     0.043 C 
HETATM   21  C   UNL     1     -42.437  60.764 -50.686  1.00  0.00     0.009 C 
HETATM   22  C   UNL     1     -41.637  59.648 -51.378  1.00  0.00    -0.012 C 
HETATM   23  C   UNL     1     -41.726  59.841 -52.902  1.00  0.00     0.043 C 
ENDBRANCH  10  14
ENDBRANCH   3   7
BRANCH   1  24
HETATM   24  N   UNL     1     -43.102  54.748 -56.658  1.00  0.00    -0.188 N 
HETATM   25  H   UNL     1     -43.733  53.975 -56.825  1.00  0.00     0.184 HD
BRANCH  24  26
HETATM   26  C   UNL     1     -42.540  54.792 -55.373  1.00  0.00     0.049 A 
HETATM   27  C   UNL     1     -41.162  54.802 -55.135  1.00  0.00     0.033 A 
HETATM   28  C   UNL     1     -40.642  54.809 -53.834  1.00  0.00     0.039 A 
HETATM   29  C   UNL     1     -41.497  54.776 -52.736  1.00  0.00     0.078 A 
HETATM   30  C   UNL     1     -42.875  54.743 -52.960  1.00  0.00     0.039 A 
HETATM   31  C   UNL     1     -43.389  54.749 -54.262  1.00  0.00     0.033 A 
BRANCH  29  32
HETATM   32  O   UNL     1     -41.132  54.769 -51.421  1.00  0.00    -0.255 OA
BRANCH  32  33
HETATM   33  C   UNL     1     -40.576  53.575 -50.897  1.00  0.00     0.530 C 
HETATM   34  F   UNL     1     -41.004  53.356 -49.634  1.00  0.00    -0.144 F 
HETATM   35  F   UNL     1     -40.891  52.512 -51.667  1.00  0.00    -0.144 F 
HETATM   36  F   UNL     1     -39.232  53.695 -50.868  1.00  0.00    -0.144 F 
ENDBRANCH  32  33
ENDBRANCH  29  32
ENDBRANCH  24  26
ENDBRANCH   1  24
BRANCH   5  37
HETATM   37  N   UNL     1     -44.151  56.064 -61.002  1.00  0.00    -0.258 NA
HETATM   38  H   UNL     1     -44.142  56.928 -61.534  1.00  0.00     0.130 HD
BRANCH  37  39
HETATM   39  C   UNL     1     -45.387  55.307 -61.212  1.00  0.00     0.121 C 
BRANCH  39  40
HETATM   40  C   UNL     1     -46.635  56.189 -61.068  1.00  0.00     0.178 C 
BRANCH  40  41
HETATM   41  O   UNL     1     -47.397  55.781 -59.930  1.00  0.00    -0.400 OA
HETATM   42  H   UNL     1     -46.871  55.109 -59.463  1.00  0.00     0.209 HD
ENDBRANCH  40  41
ENDBRANCH  39  40
ENDBRANCH  37  39
ENDBRANCH   5  37
TORSDOF 10
ENDMDL
MODEL 7
REMARK VINA RESULT:      -8.3      2.789      6.765
REMARK  10 active torsions:
REMARK  status: ('A' for Active; 'I' for Inactive)
REMARK    1  A    between atoms: C_2  and  N_3 
REMARK    2  A    between atoms: N_3  and  C_4 
REMARK    3  A    between atoms: C_6  and  N_7 
REMARK    4  A    between atoms: N_10  and  C_12 
REMARK    5  A    between atoms: C_25  and  N_26 
REMARK    6  A    between atoms: N_26  and  C_27 
REMARK    7  A    between atoms: C_27  and  C_28 
REMARK    8  A    between atoms: C_28  and  O_29 
REMARK    9  A    between atoms: C_33  and  O_34 
REMARK   10  A    between atoms: O_34  and  C_35 
ROOT
HETATM    1  C   UNL     1     -43.113  56.218 -52.902  1.00  0.00     0.745 A 
HETATM    2  N   UNL     1     -42.370  57.295 -52.669  1.00  0.00     0.130 NA
HETATM    3  C   UNL     1     -42.698  58.406 -53.304  1.00  0.00     0.743 A 
HETATM    4  N   UNL     1     -43.694  58.465 -54.176  1.00  0.00    -0.030 NA
HETATM    5  C   UNL     1     -44.376  57.345 -54.374  1.00  0.00     0.238 A 
HETATM    6  N   UNL     1     -44.110  56.197 -53.771  1.00  0.00    -0.030 NA
ENDROOT
BRANCH   3   7
HETATM    7  N   UNL     1     -41.946  59.556 -53.051  1.00  0.00    -0.210 N 
HETATM    8  C   UNL     1     -41.465  59.710 -51.673  1.00  0.00     0.169 C 
HETATM    9  C   UNL     1     -42.580  60.271 -50.764  1.00  0.00     0.256 C 
HETATM   10  N   UNL     1     -43.117  61.611 -51.334  1.00  0.00    -0.059 N 
HETATM   11  H   UNL     1     -42.293  62.216 -51.436  1.00  0.00     0.281 HD
HETATM   12  C   UNL     1     -43.620  61.375 -52.783  1.00  0.00     0.256 C 
HETATM   13  C   UNL     1     -42.482  60.785 -53.652  1.00  0.00     0.169 C 
BRANCH  10  14
HETATM   14  C   UNL     1     -44.074  62.382 -50.402  1.00  0.00     0.129 C 
HETATM   15  C   UNL     1     -44.375  61.504 -49.157  1.00  0.00     0.043 C 
HETATM   16  C   UNL     1     -45.300  62.248 -48.178  1.00  0.00    -0.012 C 
HETATM   17  C   UNL     1     -46.612  62.601 -48.900  1.00  0.00     0.009 C 
HETATM   18  C   UNL     1     -44.610  63.537 -47.710  1.00  0.00     0.009 C 
HETATM   19  C   UNL     1     -46.323  63.498 -50.117  1.00  0.00    -0.012 C 
HETATM   20  C   UNL     1     -45.400  62.748 -51.102  1.00  0.00     0.043 C 
HETATM   21  C   UNL     1     -45.629  64.782 -49.634  1.00  0.00     0.009 C 
HETATM   22  C   UNL     1     -44.313  64.434 -48.918  1.00  0.00    -0.012 C 
HETATM   23  C   UNL     1     -43.394  63.685 -49.900  1.00  0.00     0.043 C 
ENDBRANCH  10  14
ENDBRANCH   3   7
BRANCH   1  24
HETATM   24  N   UNL     1     -42.829  55.018 -52.253  1.00  0.00    -0.188 N 
HETATM   25  H   UNL     1     -43.114  55.070 -51.283  1.00  0.00     0.184 HD
BRANCH  24  26
HETATM   26  C   UNL     1     -41.886  54.022 -52.544  1.00  0.00     0.049 A 
HETATM   27  C   UNL     1     -40.980  53.521 -51.604  1.00  0.00     0.033 A 
HETATM   28  C   UNL     1     -40.028  52.550 -51.945  1.00  0.00     0.039 A 
HETATM   29  C   UNL     1     -39.945  52.079 -53.253  1.00  0.00     0.078 A 
HETATM   30  C   UNL     1     -40.829  52.587 -54.206  1.00  0.00     0.039 A 
HETATM   31  C   UNL     1     -41.786  53.547 -53.857  1.00  0.00     0.033 A 
BRANCH  29  32
HETATM   32  O   UNL     1     -39.067  51.148 -53.726  1.00  0.00    -0.255 OA
BRANCH  32  33
HETATM   33  C   UNL     1     -39.528  49.815 -53.865  1.00  0.00     0.530 C 
HETATM   34  F   UNL     1     -40.485  49.536 -52.953  1.00  0.00    -0.144 F 
HETATM   35  F   UNL     1     -40.016  49.595 -55.105  1.00  0.00    -0.144 F 
HETATM   36  F   UNL     1     -38.495  48.971 -53.660  1.00  0.00    -0.144 F 
ENDBRANCH  32  33
ENDBRANCH  29  32
ENDBRANCH  24  26
ENDBRANCH   1  24
BRANCH   5  37
HETATM   37  N   UNL     1     -45.424  57.438 -55.271  1.00  0.00    -0.258 NA
HETATM   38  H   UNL     1     -45.407  56.616 -55.867  1.00  0.00     0.130 HD
BRANCH  37  39
HETATM   39  C   UNL     1     -45.510  58.674 -56.051  1.00  0.00     0.121 C 
BRANCH  39  40
HETATM   40  C   UNL     1     -45.528  58.404 -57.561  1.00  0.00     0.178 C 
BRANCH  40  41
HETATM   41  O   UNL     1     -46.476  57.379 -57.867  1.00  0.00    -0.400 OA
HETATM   42  H   UNL     1     -46.982  57.684 -58.640  1.00  0.00     0.209 HD
ENDBRANCH  40  41
ENDBRANCH  39  40
ENDBRANCH  37  39
ENDBRANCH   5  37
TORSDOF 10
ENDMDL
MODEL 8
REMARK VINA RESULT:      -8.3      6.305      9.216
REMARK  10 active torsions:
REMARK  status: ('A' for Active; 'I' for Inactive)
REMARK    1  A    between atoms: C_2  and  N_3 
REMARK    2  A    between atoms: N_3  and  C_4 
REMARK    3  A    between atoms: C_6  and  N_7 
REMARK    4  A    between atoms: N_10  and  C_12 
REMARK    5  A    between atoms: C_25  and  N_26 
REMARK    6  A    between atoms: N_26  and  C_27 
REMARK    7  A    between atoms: C_27  and  C_28 
REMARK    8  A    between atoms: C_28  and  O_29 
REMARK    9  A    between atoms: C_33  and  O_34 
REMARK   10  A    between atoms: O_34  and  C_35 
ROOT
HETATM    1  C   UNL     1     -44.939  61.024 -49.285  1.00  0.00     0.745 A 
HETATM    2  N   UNL     1     -43.748  60.735 -49.798  1.00  0.00     0.130 NA
HETATM    3  C   UNL     1     -43.517  61.111 -51.044  1.00  0.00     0.743 A 
HETATM    4  N   UNL     1     -44.430  61.716 -51.790  1.00  0.00    -0.030 NA
HETATM    5  C   UNL     1     -45.603  61.951 -51.216  1.00  0.00     0.238 A 
HETATM    6  N   UNL     1     -45.904  61.609 -49.974  1.00  0.00    -0.030 NA
ENDROOT
BRANCH   3   7
HETATM    7  N   UNL     1     -42.261  60.841 -51.592  1.00  0.00    -0.210 N 
HETATM    8  C   UNL     1     -42.252  60.476 -53.013  1.00  0.00     0.169 C 
HETATM    9  C   UNL     1     -42.625  58.988 -53.199  1.00  0.00     0.256 C 
HETATM   10  N   UNL     1     -41.668  58.087 -52.372  1.00  0.00    -0.059 N 
HETATM   11  H   UNL     1     -40.720  58.340 -52.678  1.00  0.00     0.281 HD
HETATM   12  C   UNL     1     -41.735  58.516 -50.883  1.00  0.00     0.256 C 
HETATM   13  C   UNL     1     -41.385  60.019 -50.745  1.00  0.00     0.169 C 
BRANCH  10  14
HETATM   14  C   UNL     1     -41.793  56.575 -52.648  1.00  0.00     0.129 C 
HETATM   15  C   UNL     1     -41.365  55.797 -51.373  1.00  0.00     0.043 C 
HETATM   16  C   UNL     1     -41.508  54.280 -51.589  1.00  0.00    -0.012 C 
HETATM   17  C   UNL     1     -40.629  53.860 -52.779  1.00  0.00     0.009 C 
HETATM   18  C   UNL     1     -42.975  53.948 -51.894  1.00  0.00     0.009 C 
HETATM   19  C   UNL     1     -41.068  54.603 -54.053  1.00  0.00    -0.012 C 
HETATM   20  C   UNL     1     -40.918  56.125 -53.838  1.00  0.00     0.043 C 
HETATM   21  C   UNL     1     -42.540  54.265 -54.343  1.00  0.00     0.009 C 
HETATM   22  C   UNL     1     -43.424  54.690 -53.159  1.00  0.00    -0.012 C 
HETATM   23  C   UNL     1     -43.273  56.207 -52.944  1.00  0.00     0.043 C 
ENDBRANCH  10  14
ENDBRANCH   3   7
BRANCH   1  24
HETATM   24  N   UNL     1     -45.240  60.668 -47.971  1.00  0.00    -0.188 N 
HETATM   25  H   UNL     1     -45.939  59.937 -47.959  1.00  0.00     0.184 HD
BRANCH  24  26
HETATM   26  C   UNL     1     -45.114  61.392 -46.777  1.00  0.00     0.049 A 
HETATM   27  C   UNL     1     -45.242  62.783 -46.702  1.00  0.00     0.033 A 
HETATM   28  C   UNL     1     -45.073  63.472 -45.493  1.00  0.00     0.039 A 
HETATM   29  C   UNL     1     -44.741  62.780 -44.331  1.00  0.00     0.078 A 
HETATM   30  C   UNL     1     -44.589  61.394 -44.396  1.00  0.00     0.039 A 
HETATM   31  C   UNL     1     -44.771  60.709 -45.604  1.00  0.00     0.033 A 
BRANCH  29  32
HETATM   32  O   UNL     1     -44.538  63.319 -43.095  1.00  0.00    -0.255 OA
BRANCH  32  33
HETATM   33  C   UNL     1     -43.199  63.495 -42.662  1.00  0.00     0.530 C 
HETATM   34  F   UNL     1     -43.139  63.639 -41.320  1.00  0.00    -0.144 F 
HETATM   35  F   UNL     1     -42.427  62.453 -43.036  1.00  0.00    -0.144 F 
HETATM   36  F   UNL     1     -42.701  64.615 -43.227  1.00  0.00    -0.144 F 
ENDBRANCH  32  33
ENDBRANCH  29  32
ENDBRANCH  24  26
ENDBRANCH   1  24
BRANCH   5  37
HETATM   37  N   UNL     1     -46.531  62.603 -52.007  1.00  0.00    -0.258 NA
HETATM   38  H   UNL     1     -46.974  63.326 -51.449  1.00  0.00     0.130 HD
BRANCH  37  39
HETATM   39  C   UNL     1     -47.517  61.760 -52.688  1.00  0.00     0.121 C 
BRANCH  39  40
HETATM   40  C   UNL     1     -48.912  62.399 -52.701  1.00  0.00     0.178 C 
BRANCH  40  41
HETATM   41  O   UNL     1     -49.892  61.435 -53.088  1.00  0.00    -0.400 OA
HETATM   42  H   UNL     1     -50.757  61.784 -52.812  1.00  0.00     0.209 HD
ENDBRANCH  40  41
ENDBRANCH  39  40
ENDBRANCH  37  39
ENDBRANCH   5  37
TORSDOF 10
ENDMDL
MODEL 9
REMARK VINA RESULT:      -8.1      6.008      9.099
REMARK  10 active torsions:
REMARK  status: ('A' for Active; 'I' for Inactive)
REMARK    1  A    between atoms: C_2  and  N_3 
REMARK    2  A    between atoms: N_3  and  C_4 
REMARK    3  A    between atoms: C_6  and  N_7 
REMARK    4  A    between atoms: N_10  and  C_12 
REMARK    5  A    between atoms: C_25  and  N_26 
REMARK    6  A    between atoms: N_26  and  C_27 
REMARK    7  A    between atoms: C_27  and  C_28 
REMARK    8  A    between atoms: C_28  and  O_29 
REMARK    9  A    between atoms: C_33  and  O_34 
REMARK   10  A    between atoms: O_34  and  C_35 
ROOT
HETATM    1  C   UNL     1     -45.835  62.305 -50.836  1.00  0.00     0.745 A 
HETATM    2  N   UNL     1     -44.645  62.130 -51.401  1.00  0.00     0.130 NA
HETATM    3  C   UNL     1     -43.882  61.163 -50.922  1.00  0.00     0.743 A 
HETATM    4  N   UNL     1     -44.244  60.408 -49.896  1.00  0.00    -0.030 NA
HETATM    5  C   UNL     1     -45.436  60.655 -49.370  1.00  0.00     0.238 A 
HETATM    6  N   UNL     1     -46.256  61.602 -49.798  1.00  0.00    -0.030 NA
ENDROOT
BRANCH   3   7
HETATM    7  N   UNL     1     -42.638  60.946 -51.521  1.00  0.00    -0.210 N 
HETATM    8  C   UNL     1     -42.672  60.584 -52.943  1.00  0.00     0.169 C 
HETATM    9  C   UNL     1     -42.988  59.082 -53.117  1.00  0.00     0.256 C 
HETATM   10  N   UNL     1     -41.961  58.221 -52.332  1.00  0.00    -0.059 N 
HETATM   11  H   UNL     1     -41.038  58.515 -52.675  1.00  0.00     0.281 HD
HETATM   12  C   UNL     1     -41.987  58.646 -50.840  1.00  0.00     0.256 C 
HETATM   13  C   UNL     1     -41.695  60.161 -50.713  1.00  0.00     0.169 C 
BRANCH  10  14
HETATM   14  C   UNL     1     -42.033  56.705 -52.607  1.00  0.00     0.129 C 
HETATM   15  C   UNL     1     -41.016  56.351 -53.727  1.00  0.00     0.043 C 
HETATM   16  C   UNL     1     -41.025  54.839 -54.011  1.00  0.00    -0.012 C 
HETATM   17  C   UNL     1     -42.443  54.420 -54.439  1.00  0.00     0.009 C 
HETATM   18  C   UNL     1     -40.630  54.082 -52.736  1.00  0.00     0.009 C 
HETATM   19  C   UNL     1     -43.451  54.739 -53.320  1.00  0.00    -0.012 C 
HETATM   20  C   UNL     1     -43.445  56.258 -53.040  1.00  0.00     0.043 C 
HETATM   21  C   UNL     1     -43.040  53.978 -52.049  1.00  0.00     0.009 C 
HETATM   22  C   UNL     1     -41.627  54.399 -51.614  1.00  0.00    -0.012 C 
HETATM   23  C   UNL     1     -41.622  55.913 -51.336  1.00  0.00     0.043 C 
ENDBRANCH  10  14
ENDBRANCH   3   7
BRANCH   1  24
HETATM   24  N   UNL     1     -46.693  63.298 -51.304  1.00  0.00    -0.188 N 
HETATM   25  H   UNL     1     -46.591  64.138 -50.749  1.00  0.00     0.184 HD
BRANCH  24  26
HETATM   26  C   UNL     1     -47.891  63.205 -52.027  1.00  0.00     0.049 A 
HETATM   27  C   UNL     1     -49.082  63.817 -51.626  1.00  0.00     0.033 A 
HETATM   28  C   UNL     1     -50.268  63.668 -52.358  1.00  0.00     0.039 A 
HETATM   29  C   UNL     1     -50.291  62.873 -53.502  1.00  0.00     0.078 A 
HETATM   30  C   UNL     1     -49.114  62.239 -53.902  1.00  0.00     0.039 A 
HETATM   31  C   UNL     1     -47.930  62.400 -53.172  1.00  0.00     0.033 A 
BRANCH  29  32
HETATM   32  O   UNL     1     -51.369  62.633 -54.302  1.00  0.00    -0.255 OA
BRANCH  32  33
HETATM   33  C   UNL     1     -52.414  61.829 -53.779  1.00  0.00     0.530 C 
HETATM   34  F   UNL     1     -53.044  61.154 -54.765  1.00  0.00    -0.144 F 
HETATM   35  F   UNL     1     -51.942  60.952 -52.867  1.00  0.00    -0.144 F 
HETATM   36  F   UNL     1     -53.318  62.626 -53.173  1.00  0.00    -0.144 F 
ENDBRANCH  32  33
ENDBRANCH  29  32
ENDBRANCH  24  26
ENDBRANCH   1  24
BRANCH   5  37
HETATM   37  N   UNL     1     -45.801  59.839 -48.314  1.00  0.00    -0.258 NA
HETATM   38  H   UNL     1     -46.709  59.436 -48.521  1.00  0.00     0.130 HD
BRANCH  37  39
HETATM   39  C   UNL     1     -45.765  60.442 -46.980  1.00  0.00     0.121 C 
BRANCH  39  40
HETATM   40  C   UNL     1     -46.573  59.631 -45.958  1.00  0.00     0.178 C 
BRANCH  40  41
HETATM   41  O   UNL     1     -46.966  58.379 -46.524  1.00  0.00    -0.400 OA
HETATM   42  H   UNL     1     -46.604  58.351 -47.427  1.00  0.00     0.209 HD
ENDBRANCH  40  41
ENDBRANCH  39  40
ENDBRANCH  37  39
ENDBRANCH   5  37
TORSDOF 10
ENDMDL
MODEL 10
REMARK VINA RESULT:      -7.9      2.919      4.199
REMARK  10 active torsions:
REMARK  status: ('A' for Active; 'I' for Inactive)
REMARK    1  A    between atoms: C_2  and  N_3 
REMARK    2  A    between atoms: N_3  and  C_4 
REMARK    3  A    between atoms: C_6  and  N_7 
REMARK    4  A    between atoms: N_10  and  C_12 
REMARK    5  A    between atoms: C_25  and  N_26 
REMARK    6  A    between atoms: N_26  and  C_27 
REMARK    7  A    between atoms: C_27  and  C_28 
REMARK    8  A    between atoms: C_28  and  O_29 
REMARK    9  A    between atoms: C_33  and  O_34 
REMARK   10  A    between atoms: O_34  and  C_35 
ROOT
HETATM    1  C   UNL     1     -43.729  56.359 -53.905  1.00  0.00     0.745 A 
HETATM    2  N   UNL     1     -43.817  56.308 -55.230  1.00  0.00     0.130 NA
HETATM    3  C   UNL     1     -43.981  57.452 -55.871  1.00  0.00     0.743 A 
HETATM    4  N   UNL     1     -44.101  58.613 -55.245  1.00  0.00    -0.030 NA
HETATM    5  C   UNL     1     -44.026  58.582 -53.921  1.00  0.00     0.238 A 
HETATM    6  N   UNL     1     -43.856  57.478 -53.211  1.00  0.00    -0.030 NA
ENDROOT
BRANCH   3   7
HETATM    7  N   UNL     1     -44.048  57.421 -57.266  1.00  0.00    -0.210 N 
HETATM    8  C   UNL     1     -42.763  57.280 -57.961  1.00  0.00     0.169 C 
HETATM    9  C   UNL     1     -42.038  58.641 -58.051  1.00  0.00     0.256 C 
HETATM   10  N   UNL     1     -42.948  59.692 -58.742  1.00  0.00    -0.059 N 
HETATM   11  H   UNL     1     -43.210  59.276 -59.645  1.00  0.00     0.281 HD
HETATM   12  C   UNL     1     -44.280  59.799 -57.953  1.00  0.00     0.256 C 
HETATM   13  C   UNL     1     -44.958  58.410 -57.860  1.00  0.00     0.169 C 
BRANCH  10  14
HETATM   14  C   UNL     1     -42.259  61.026 -59.094  1.00  0.00     0.129 C 
HETATM   15  C   UNL     1     -41.760  60.959 -60.563  1.00  0.00     0.043 C 
HETATM   16  C   UNL     1     -41.095  62.285 -60.971  1.00  0.00    -0.012 C 
HETATM   17  C   UNL     1     -39.911  62.562 -60.028  1.00  0.00     0.009 C 
HETATM   18  C   UNL     1     -42.119  63.422 -60.855  1.00  0.00     0.009 C 
HETATM   19  C   UNL     1     -40.404  62.661 -58.574  1.00  0.00    -0.012 C 
HETATM   20  C   UNL     1     -41.065  61.327 -58.162  1.00  0.00     0.043 C 
HETATM   21  C   UNL     1     -41.431  63.800 -58.473  1.00  0.00     0.009 C 
HETATM   22  C   UNL     1     -42.620  63.524 -59.409  1.00  0.00    -0.012 C 
HETATM   23  C   UNL     1     -43.279  62.194 -58.999  1.00  0.00     0.043 C 
ENDBRANCH  10  14
ENDBRANCH   3   7
BRANCH   1  24
HETATM   24  N   UNL     1     -43.540  55.190 -53.170  1.00  0.00    -0.188 N 
HETATM   25  H   UNL     1     -44.045  55.242 -52.295  1.00  0.00     0.184 HD
BRANCH  24  26
HETATM   26  C   UNL     1     -42.502  54.248 -53.203  1.00  0.00     0.049 A 
HETATM   27  C   UNL     1     -41.841  53.789 -52.059  1.00  0.00     0.033 A 
HETATM   28  C   UNL     1     -40.783  52.874 -52.140  1.00  0.00     0.039 A 
HETATM   29  C   UNL     1     -40.342  52.417 -53.379  1.00  0.00     0.078 A 
HETATM   30  C   UNL     1     -40.979  52.884 -54.530  1.00  0.00     0.039 A 
HETATM   31  C   UNL     1     -42.043  53.789 -54.444  1.00  0.00     0.033 A 
BRANCH  29  32
HETATM   32  O   UNL     1     -39.324  51.538 -53.606  1.00  0.00    -0.255 OA
BRANCH  32  33
HETATM   33  C   UNL     1     -39.658  50.173 -53.791  1.00  0.00     0.530 C 
HETATM   34  F   UNL     1     -39.631  49.505 -52.616  1.00  0.00    -0.144 F 
HETATM   35  F   UNL     1     -40.880  50.042 -54.351  1.00  0.00    -0.144 F 
HETATM   36  F   UNL     1     -38.751  49.608 -54.615  1.00  0.00    -0.144 F 
ENDBRANCH  32  33
ENDBRANCH  29  32
ENDBRANCH  24  26
ENDBRANCH   1  24
BRANCH   5  37
HETATM   37  N   UNL     1     -44.131  59.809 -53.291  1.00  0.00    -0.258 NA
HETATM   38  H   UNL     1     -44.734  59.701 -52.481  1.00  0.00     0.130 HD
BRANCH  37  39
HETATM   39  C   UNL     1     -44.538  60.940 -54.127  1.00  0.00     0.121 C 
BRANCH  39  40
HETATM   40  C   UNL     1     -43.367  61.886 -54.428  1.00  0.00     0.178 C 
BRANCH  40  41
HETATM   41  O   UNL     1     -42.265  61.150 -54.962  1.00  0.00    -0.400 OA
HETATM   42  H   UNL     1     -41.455  61.560 -54.612  1.00  0.00     0.209 HD
ENDBRANCH  40  41
ENDBRANCH  39  40
ENDBRANCH  37  39
ENDBRANCH   5  37
TORSDOF 10
ENDMDL
