MODEL 1
REMARK VINA RESULT:      -8.6      0.000      0.000
REMARK  6 active torsions:
REMARK  status: ('A' for Active; 'I' for Inactive)
REMARK    1  A    between atoms: C_4  and  C_5 
REMARK    2  A    between atoms: C_5  and  N_6 
REMARK    3  A    between atoms: C_9  and  C_10 
REMARK       I    between atoms: C_10  and  N_11 
REMARK    4  A    between atoms: N_11  and  N_12 
REMARK    5  A    between atoms: C_13  and  C_14 
REMARK    6  A    between atoms: C_15  and  O_16 
ROOT
HETATM    1  C   UNL     1     -42.119  57.290 -55.397  1.00  0.00     0.271 C 
HETATM    2  N   UNL     1     -41.366  56.153 -55.645  1.00  0.00    -0.243 N 
HETATM    3  O   UNL     1     -42.271  57.789 -54.285  1.00  0.00    -0.266 OA
HETATM    4  H   UNL     1     -41.176  55.790 -56.569  1.00  0.00     0.192 HD
ENDROOT
BRANCH   2   5
HETATM    5  N   UNL     1     -40.833  55.509 -54.570  1.00  0.00    -0.183 NA
HETATM    6  C   UNL     1     -41.342  54.362 -54.240  1.00  0.00     0.153 C 
BRANCH   6   7
HETATM    7  C   UNL     1     -40.826  53.610 -53.065  1.00  0.00     0.027 A 
HETATM    8  C   UNL     1     -40.774  54.249 -51.812  1.00  0.00     0.078 A 
HETATM    9  C   UNL     1     -40.298  53.581 -50.692  1.00  0.00     0.038 A 
HETATM   10  C   UNL     1     -39.872  52.263 -50.804  1.00  0.00     0.015 A 
HETATM   11  C   UNL     1     -39.913  51.593 -52.035  1.00  0.00    -0.025 A 
HETATM   12  C   UNL     1     -40.394  52.254 -53.199  1.00  0.00    -0.012 A 
HETATM   13  C   UNL     1     -39.479  50.260 -52.100  1.00  0.00     0.012 A 
HETATM   14  C   UNL     1     -40.407  51.495 -54.401  1.00  0.00     0.013 A 
HETATM   15  C   UNL     1     -39.970  50.168 -54.448  1.00  0.00     0.001 A 
HETATM   16  C   UNL     1     -39.507  49.550 -53.297  1.00  0.00     0.001 A 
BRANCH   8  17
HETATM   17  O   UNL     1     -41.172  55.542 -51.590  1.00  0.00    -0.360 OA
HETATM   18  H   UNL     1     -41.331  55.666 -50.627  1.00  0.00     0.217 HD
ENDBRANCH   8  17
ENDBRANCH   6   7
ENDBRANCH   2   5
BRANCH   1  19
HETATM   19  C   UNL     1     -42.805  57.950 -56.545  1.00  0.00     0.036 A 
HETATM   20  C   UNL     1     -42.192  58.247 -57.760  1.00  0.00     0.034 A 
HETATM   21  C   UNL     1     -42.957  58.784 -58.796  1.00  0.00     0.091 A 
HETATM   22  N   UNL     1     -44.283  59.009 -58.640  1.00  0.00    -0.362 N 
HETATM   23  C   UNL     1     -44.893  58.737 -57.465  1.00  0.00     0.091 A 
HETATM   24  C   UNL     1     -44.172  58.210 -56.403  1.00  0.00     0.034 A 
BRANCH  22  25
HETATM   25  C   UNL     1     -45.089  59.503 -59.788  1.00  0.00     0.166 C 
BRANCH  25  26
HETATM   26  C   UNL     1     -46.024  58.450 -60.321  1.00  0.00    -0.040 A 
HETATM   27  C   UNL     1     -47.199  58.837 -60.986  1.00  0.00     0.009 A 
HETATM   28  C   UNL     1     -48.054  57.878 -61.534  1.00  0.00     0.001 A 
HETATM   29  C   UNL     1     -47.743  56.526 -61.431  1.00  0.00     0.000 A 
HETATM   30  C   UNL     1     -46.575  56.128 -60.783  1.00  0.00     0.001 A 
HETATM   31  C   UNL     1     -45.716  57.083 -60.236  1.00  0.00     0.009 A 
ENDBRANCH  25  26
ENDBRANCH  22  25
ENDBRANCH   1  19
TORSDOF 6
ENDMDL
MODEL 2
REMARK VINA RESULT:      -8.5      2.300      3.646
REMARK  6 active torsions:
REMARK  status: ('A' for Active; 'I' for Inactive)
REMARK    1  A    between atoms: C_4  and  C_5 
REMARK    2  A    between atoms: C_5  and  N_6 
REMARK    3  A    between atoms: C_9  and  C_10 
REMARK       I    between atoms: C_10  and  N_11 
REMARK    4  A    between atoms: N_11  and  N_12 
REMARK    5  A    between atoms: C_13  and  C_14 
REMARK    6  A    between atoms: C_15  and  O_16 
ROOT
HETATM    1  C   UNL     1     -42.998  55.653 -55.845  1.00  0.00     0.271 C 
HETATM    2  N   UNL     1     -42.554  56.118 -54.616  1.00  0.00    -0.243 N 
HETATM    3  O   UNL     1     -43.222  54.472 -56.096  1.00  0.00    -0.266 OA
HETATM    4  H   UNL     1     -42.448  57.097 -54.386  1.00  0.00     0.192 HD
ENDROOT
BRANCH   2   5
HETATM    5  N   UNL     1     -42.274  55.190 -53.660  1.00  0.00    -0.183 NA
HETATM    6  C   UNL     1     -41.036  54.830 -53.514  1.00  0.00     0.153 C 
BRANCH   6   7
HETATM    7  C   UNL     1     -40.656  53.805 -52.505  1.00  0.00     0.027 A 
HETATM    8  C   UNL     1     -40.644  54.158 -51.142  1.00  0.00     0.078 A 
HETATM    9  C   UNL     1     -40.295  53.230 -50.171  1.00  0.00     0.038 A 
HETATM   10  C   UNL     1     -39.957  51.935 -50.543  1.00  0.00     0.015 A 
HETATM   11  C   UNL     1     -39.962  51.546 -51.890  1.00  0.00    -0.025 A 
HETATM   12  C   UNL     1     -40.314  52.477 -52.907  1.00  0.00    -0.012 A 
HETATM   13  C   UNL     1     -39.621  50.226 -52.220  1.00  0.00     0.012 A 
HETATM   14  C   UNL     1     -40.299  51.994 -54.244  1.00  0.00     0.013 A 
HETATM   15  C   UNL     1     -39.956  50.675 -54.554  1.00  0.00     0.001 A 
HETATM   16  C   UNL     1     -39.618  49.791 -53.542  1.00  0.00     0.001 A 
BRANCH   8  17
HETATM   17  O   UNL     1     -40.963  55.403 -50.665  1.00  0.00    -0.360 OA
HETATM   18  H   UNL     1     -41.167  55.336 -49.706  1.00  0.00     0.217 HD
ENDBRANCH   8  17
ENDBRANCH   6   7
ENDBRANCH   2   5
BRANCH   1  19
HETATM   19  C   UNL     1     -43.206  56.641 -56.942  1.00  0.00     0.036 A 
HETATM   20  C   UNL     1     -44.048  57.747 -56.855  1.00  0.00     0.034 A 
HETATM   21  C   UNL     1     -44.095  58.654 -57.914  1.00  0.00     0.091 A 
HETATM   22  N   UNL     1     -43.329  58.479 -59.016  1.00  0.00    -0.362 N 
HETATM   23  C   UNL     1     -42.513  57.406 -59.124  1.00  0.00     0.091 A 
HETATM   24  C   UNL     1     -42.440  56.473 -58.101  1.00  0.00     0.034 A 
BRANCH  22  25
HETATM   25  C   UNL     1     -43.337  59.506 -60.092  1.00  0.00     0.166 C 
BRANCH  25  26
HETATM   26  C   UNL     1     -42.238  60.520 -59.919  1.00  0.00    -0.040 A 
HETATM   27  C   UNL     1     -41.774  61.239 -61.033  1.00  0.00     0.009 A 
HETATM   28  C   UNL     1     -40.793  62.222 -60.886  1.00  0.00     0.001 A 
HETATM   29  C   UNL     1     -40.269  62.501 -59.628  1.00  0.00     0.000 A 
HETATM   30  C   UNL     1     -40.727  61.804 -58.512  1.00  0.00     0.001 A 
HETATM   31  C   UNL     1     -41.710  60.822 -58.654  1.00  0.00     0.009 A 
ENDBRANCH  25  26
ENDBRANCH  22  25
ENDBRANCH   1  19
TORSDOF 6
ENDMDL
MODEL 3
REMARK VINA RESULT:      -8.5      1.984      3.152
REMARK  6 active torsions:
REMARK  status: ('A' for Active; 'I' for Inactive)
REMARK    1  A    between atoms: C_4  and  C_5 
REMARK    2  A    between atoms: C_5  and  N_6 
REMARK    3  A    between atoms: C_9  and  C_10 
REMARK       I    between atoms: C_10  and  N_11 
REMARK    4  A    between atoms: N_11  and  N_12 
REMARK    5  A    between atoms: C_13  and  C_14 
REMARK    6  A    between atoms: C_15  and  O_16 
ROOT
HETATM    1  C   UNL     1     -42.995  55.440 -56.168  1.00  0.00     0.271 C 
HETATM    2  N   UNL     1     -42.494  56.032 -55.019  1.00  0.00    -0.243 N 
HETATM    3  O   UNL     1     -43.279  54.249 -56.264  1.00  0.00    -0.266 OA
HETATM    4  H   UNL     1     -42.337  57.026 -54.916  1.00  0.00     0.192 HD
ENDROOT
BRANCH   2   5
HETATM    5  N   UNL     1     -42.227  55.218 -53.961  1.00  0.00    -0.183 NA
HETATM    6  C   UNL     1     -41.013  54.780 -53.828  1.00  0.00     0.153 C 
BRANCH   6   7
HETATM    7  C   UNL     1     -40.651  53.869 -52.709  1.00  0.00     0.027 A 
HETATM    8  C   UNL     1     -40.663  54.365 -51.391  1.00  0.00     0.078 A 
HETATM    9  C   UNL     1     -40.330  53.546 -50.321  1.00  0.00     0.038 A 
HETATM   10  C   UNL     1     -39.986  52.219 -50.548  1.00  0.00     0.015 A 
HETATM   11  C   UNL     1     -39.968  51.689 -51.846  1.00  0.00    -0.025 A 
HETATM   12  C   UNL     1     -40.302  52.506 -52.962  1.00  0.00    -0.012 A 
HETATM   13  C   UNL     1     -39.622  50.342 -52.028  1.00  0.00     0.012 A 
HETATM   14  C   UNL     1     -40.264  51.884 -54.239  1.00  0.00     0.013 A 
HETATM   15  C   UNL     1     -39.916  50.540 -54.402  1.00  0.00     0.001 A 
HETATM   16  C   UNL     1     -39.595  49.769 -53.296  1.00  0.00     0.001 A 
BRANCH   8  17
HETATM   17  O   UNL     1     -40.990  55.653 -51.056  1.00  0.00    -0.360 OA
HETATM   18  H   UNL     1     -41.769  55.933 -51.585  1.00  0.00     0.217 HD
ENDBRANCH   8  17
ENDBRANCH   6   7
ENDBRANCH   2   5
BRANCH   1  19
HETATM   19  C   UNL     1     -43.191  56.292 -57.376  1.00  0.00     0.036 A 
HETATM   20  C   UNL     1     -42.979  55.861 -58.684  1.00  0.00     0.034 A 
HETATM   21  C   UNL     1     -43.281  56.719 -59.742  1.00  0.00     0.091 A 
HETATM   22  N   UNL     1     -43.785  57.955 -59.515  1.00  0.00    -0.362 N 
HETATM   23  C   UNL     1     -43.987  58.395 -58.253  1.00  0.00     0.091 A 
HETATM   24  C   UNL     1     -43.693  57.581 -57.169  1.00  0.00     0.034 A 
BRANCH  22  25
HETATM   25  C   UNL     1     -44.176  58.816 -60.663  1.00  0.00     0.166 C 
BRANCH  25  26
HETATM   26  C   UNL     1     -43.419  60.117 -60.683  1.00  0.00    -0.040 A 
HETATM   27  C   UNL     1     -42.063  60.127 -61.048  1.00  0.00     0.009 A 
HETATM   28  C   UNL     1     -41.356  61.329 -61.124  1.00  0.00     0.001 A 
HETATM   29  C   UNL     1     -41.994  62.532 -60.843  1.00  0.00     0.000 A 
HETATM   30  C   UNL     1     -43.342  62.540 -60.489  1.00  0.00     0.001 A 
HETATM   31  C   UNL     1     -44.054  61.340 -60.415  1.00  0.00     0.009 A 
ENDBRANCH  25  26
ENDBRANCH  22  25
ENDBRANCH   1  19
TORSDOF 6
ENDMDL
MODEL 4
REMARK VINA RESULT:      -8.4      6.389      8.689
REMARK  6 active torsions:
REMARK  status: ('A' for Active; 'I' for Inactive)
REMARK    1  A    between atoms: C_4  and  C_5 
REMARK    2  A    between atoms: C_5  and  N_6 
REMARK    3  A    between atoms: C_9  and  C_10 
REMARK       I    between atoms: C_10  and  N_11 
REMARK    4  A    between atoms: N_11  and  N_12 
REMARK    5  A    between atoms: C_13  and  C_14 
REMARK    6  A    between atoms: C_15  and  O_16 
ROOT
HETATM    1  C   UNL     1     -43.873  58.335 -51.823  1.00  0.00     0.271 C 
HETATM    2  N   UNL     1     -42.746  57.597 -51.495  1.00  0.00    -0.243 N 
HETATM    3  O   UNL     1     -44.636  58.058 -52.744  1.00  0.00    -0.266 OA
HETATM    4  H   UNL     1     -42.164  57.779 -50.688  1.00  0.00     0.192 HD
ENDROOT
BRANCH   2   5
HETATM    5  N   UNL     1     -42.429  56.549 -52.304  1.00  0.00    -0.183 NA
HETATM    6  C   UNL     1     -41.306  55.935 -52.084  1.00  0.00     0.153 C 
BRANCH   6   7
HETATM    7  C   UNL     1     -40.882  54.794 -52.939  1.00  0.00     0.027 A 
HETATM    8  C   UNL     1     -40.835  54.966 -54.336  1.00  0.00     0.078 A 
HETATM    9  C   UNL     1     -40.445  53.925 -55.167  1.00  0.00     0.038 A 
HETATM   10  C   UNL     1     -40.091  52.699 -54.617  1.00  0.00     0.015 A 
HETATM   11  C   UNL     1     -40.122  52.493 -53.231  1.00  0.00    -0.025 A 
HETATM   12  C   UNL     1     -40.520  53.541 -52.356  1.00  0.00    -0.012 A 
HETATM   13  C   UNL     1     -39.750  51.240 -52.720  1.00  0.00     0.012 A 
HETATM   14  C   UNL     1     -40.515  53.245 -50.965  1.00  0.00     0.013 A 
HETATM   15  C   UNL     1     -40.141  51.991 -50.473  1.00  0.00     0.001 A 
HETATM   16  C   UNL     1     -39.758  50.989 -51.350  1.00  0.00     0.001 A 
BRANCH   8  17
HETATM   17  O   UNL     1     -41.157  56.132 -54.980  1.00  0.00    -0.360 OA
HETATM   18  H   UNL     1     -40.735  56.885 -54.510  1.00  0.00     0.217 HD
ENDBRANCH   8  17
ENDBRANCH   6   7
ENDBRANCH   2   5
BRANCH   1  19
HETATM   19  C   UNL     1     -44.180  59.554 -51.020  1.00  0.00     0.036 A 
HETATM   20  C   UNL     1     -43.224  60.471 -50.589  1.00  0.00     0.034 A 
HETATM   21  C   UNL     1     -43.637  61.623 -49.920  1.00  0.00     0.091 A 
HETATM   22  N   UNL     1     -44.950  61.865 -49.694  1.00  0.00    -0.362 N 
HETATM   23  C   UNL     1     -45.891  60.982 -50.095  1.00  0.00     0.091 A 
HETATM   24  C   UNL     1     -45.527  59.819 -50.756  1.00  0.00     0.034 A 
BRANCH  22  25
HETATM   25  C   UNL     1     -45.366  63.141 -49.053  1.00  0.00     0.166 C 
BRANCH  25  26
HETATM   26  C   UNL     1     -45.176  63.117 -47.560  1.00  0.00    -0.040 A 
HETATM   27  C   UNL     1     -45.058  64.326 -46.855  1.00  0.00     0.009 A 
HETATM   28  C   UNL     1     -44.933  64.327 -45.464  1.00  0.00     0.001 A 
HETATM   29  C   UNL     1     -44.931  63.126 -44.762  1.00  0.00     0.000 A 
HETATM   30  C   UNL     1     -45.058  61.919 -45.447  1.00  0.00     0.001 A 
HETATM   31  C   UNL     1     -45.186  61.913 -46.838  1.00  0.00     0.009 A 
ENDBRANCH  25  26
ENDBRANCH  22  25
ENDBRANCH   1  19
TORSDOF 6
ENDMDL
MODEL 5
REMARK VINA RESULT:      -8.4      6.525     10.364
REMARK  6 active torsions:
REMARK  status: ('A' for Active; 'I' for Inactive)
REMARK    1  A    between atoms: C_4  and  C_5 
REMARK    2  A    between atoms: C_5  and  N_6 
REMARK    3  A    between atoms: C_9  and  C_10 
REMARK       I    between atoms: C_10  and  N_11 
REMARK    4  A    between atoms: N_11  and  N_12 
REMARK    5  A    between atoms: C_13  and  C_14 
REMARK    6  A    between atoms: C_15  and  O_16 
ROOT
HETATM    1  C   UNL     1     -42.074  59.134 -52.011  1.00  0.00     0.271 C 
HETATM    2  N   UNL     1     -43.009  59.297 -51.001  1.00  0.00    -0.243 N 
HETATM    3  O   UNL     1     -41.282  60.003 -52.366  1.00  0.00    -0.266 OA
HETATM    4  H   UNL     1     -43.605  58.557 -50.656  1.00  0.00     0.192 HD
ENDROOT
BRANCH   2   5
HETATM    5  N   UNL     1     -43.101  60.528 -50.426  1.00  0.00    -0.183 NA
HETATM    6  C   UNL     1     -44.255  60.889 -49.953  1.00  0.00     0.153 C 
BRANCH   6   7
HETATM    7  C   UNL     1     -44.437  62.227 -49.331  1.00  0.00     0.027 A 
HETATM    8  C   UNL     1     -44.349  63.376 -50.140  1.00  0.00     0.078 A 
HETATM    9  C   UNL     1     -44.512  64.642 -49.596  1.00  0.00     0.038 A 
HETATM   10  C   UNL     1     -44.772  64.782 -48.238  1.00  0.00     0.015 A 
HETATM   11  C   UNL     1     -44.872  63.661 -47.403  1.00  0.00    -0.025 A 
HETATM   12  C   UNL     1     -44.706  62.351 -47.933  1.00  0.00    -0.012 A 
HETATM   13  C   UNL     1     -45.143  63.848 -46.039  1.00  0.00     0.012 A 
HETATM   14  C   UNL     1     -44.831  61.273 -47.015  1.00  0.00     0.013 A 
HETATM   15  C   UNL     1     -45.100  61.479 -45.659  1.00  0.00     0.001 A 
HETATM   16  C   UNL     1     -45.257  62.766 -45.171  1.00  0.00     0.001 A 
BRANCH   8  17
HETATM   17  O   UNL     1     -44.101  63.352 -51.488  1.00  0.00    -0.360 OA
HETATM   18  H   UNL     1     -43.218  62.951 -51.643  1.00  0.00     0.217 HD
ENDBRANCH   8  17
ENDBRANCH   6   7
ENDBRANCH   2   5
BRANCH   1  19
HETATM   19  C   UNL     1     -42.030  57.829 -52.731  1.00  0.00     0.036 A 
HETATM   20  C   UNL     1     -40.953  57.392 -53.499  1.00  0.00     0.034 A 
HETATM   21  C   UNL     1     -40.985  56.112 -54.054  1.00  0.00     0.091 A 
HETATM   22  N   UNL     1     -42.041  55.290 -53.849  1.00  0.00    -0.362 N 
HETATM   23  C   UNL     1     -43.100  55.700 -53.116  1.00  0.00     0.091 A 
HETATM   24  C   UNL     1     -43.117  56.967 -52.552  1.00  0.00     0.034 A 
BRANCH  22  25
HETATM   25  C   UNL     1     -42.012  53.902 -54.382  1.00  0.00     0.166 C 
BRANCH  25  26
HETATM   26  C   UNL     1     -41.036  53.028 -53.641  1.00  0.00    -0.040 A 
HETATM   27  C   UNL     1     -40.835  53.223 -52.264  1.00  0.00     0.009 A 
HETATM   28  C   UNL     1     -39.973  52.390 -51.547  1.00  0.00     0.001 A 
HETATM   29  C   UNL     1     -39.309  51.352 -52.193  1.00  0.00     0.000 A 
HETATM   30  C   UNL     1     -39.506  51.139 -53.556  1.00  0.00     0.001 A 
HETATM   31  C   UNL     1     -40.369  51.968 -54.276  1.00  0.00     0.009 A 
ENDBRANCH  25  26
ENDBRANCH  22  25
ENDBRANCH   1  19
TORSDOF 6
ENDMDL
MODEL 6
REMARK VINA RESULT:      -8.4      2.870      4.946
REMARK  6 active torsions:
REMARK  status: ('A' for Active; 'I' for Inactive)
REMARK    1  A    between atoms: C_4  and  C_5 
REMARK    2  A    between atoms: C_5  and  N_6 
REMARK    3  A    between atoms: C_9  and  C_10 
REMARK       I    between atoms: C_10  and  N_11 
REMARK    4  A    between atoms: N_11  and  N_12 
REMARK    5  A    between atoms: C_13  and  C_14 
REMARK    6  A    between atoms: C_15  and  O_16 
ROOT
HETATM    1  C   UNL     1     -42.666  56.485 -57.258  1.00  0.00     0.271 C 
HETATM    2  N   UNL     1     -41.958  56.672 -56.081  1.00  0.00    -0.243 N 
HETATM    3  O   UNL     1     -43.147  55.412 -57.612  1.00  0.00    -0.266 OA
HETATM    4  H   UNL     1     -41.632  57.572 -55.752  1.00  0.00     0.192 HD
ENDROOT
BRANCH   2   5
HETATM    5  N   UNL     1     -41.717  55.573 -55.315  1.00  0.00    -0.183 NA
HETATM    6  C   UNL     1     -41.102  55.747 -54.185  1.00  0.00     0.153 C 
BRANCH   6   7
HETATM    7  C   UNL     1     -40.785  54.591 -53.305  1.00  0.00     0.027 A 
HETATM    8  C   UNL     1     -40.359  53.382 -53.889  1.00  0.00     0.078 A 
HETATM    9  C   UNL     1     -40.055  52.281 -53.101  1.00  0.00     0.038 A 
HETATM   10  C   UNL     1     -40.165  52.370 -51.718  1.00  0.00     0.015 A 
HETATM   11  C   UNL     1     -40.581  53.558 -51.102  1.00  0.00    -0.025 A 
HETATM   12  C   UNL     1     -40.901  54.702 -51.885  1.00  0.00    -0.012 A 
HETATM   13  C   UNL     1     -40.671  53.605 -49.703  1.00  0.00     0.012 A 
HETATM   14  C   UNL     1     -41.308  55.864 -51.175  1.00  0.00     0.013 A 
HETATM   15  C   UNL     1     -41.392  55.893 -49.780  1.00  0.00     0.001 A 
HETATM   16  C   UNL     1     -41.073  54.763 -49.044  1.00  0.00     0.001 A 
BRANCH   8  17
HETATM   17  O   UNL     1     -40.212  53.188 -55.238  1.00  0.00    -0.360 OA
HETATM   18  H   UNL     1     -39.748  53.964 -55.624  1.00  0.00     0.217 HD
ENDBRANCH   8  17
ENDBRANCH   6   7
ENDBRANCH   2   5
BRANCH   1  19
HETATM   19  C   UNL     1     -42.847  57.652 -58.168  1.00  0.00     0.036 A 
HETATM   20  C   UNL     1     -43.693  58.728 -57.907  1.00  0.00     0.034 A 
HETATM   21  C   UNL     1     -43.714  59.808 -58.789  1.00  0.00     0.091 A 
HETATM   22  N   UNL     1     -42.920  59.830 -59.886  1.00  0.00    -0.362 N 
HETATM   23  C   UNL     1     -42.100  58.791 -60.162  1.00  0.00     0.091 A 
HETATM   24  C   UNL     1     -42.052  57.691 -59.319  1.00  0.00     0.034 A 
BRANCH  22  25
HETATM   25  C   UNL     1     -42.902  61.031 -60.762  1.00  0.00     0.166 C 
BRANCH  25  26
HETATM   26  C   UNL     1     -41.602  61.783 -60.671  1.00  0.00    -0.040 A 
HETATM   27  C   UNL     1     -40.965  62.217 -61.845  1.00  0.00     0.009 A 
HETATM   28  C   UNL     1     -39.786  62.962 -61.780  1.00  0.00     0.001 A 
HETATM   29  C   UNL     1     -39.233  63.287 -60.546  1.00  0.00     0.000 A 
HETATM   30  C   UNL     1     -39.858  62.873 -59.372  1.00  0.00     0.001 A 
HETATM   31  C   UNL     1     -41.040  62.130 -59.431  1.00  0.00     0.009 A 
ENDBRANCH  25  26
ENDBRANCH  22  25
ENDBRANCH   1  19
TORSDOF 6
ENDMDL
MODEL 7
REMARK VINA RESULT:      -8.4      2.075     10.164
REMARK  6 active torsions:
REMARK  status: ('A' for Active; 'I' for Inactive)
REMARK    1  A    between atoms: C_4  and  C_5 
REMARK    2  A    between atoms: C_5  and  N_6 
REMARK    3  A    between atoms: C_9  and  C_10 
REMARK       I    between atoms: C_10  and  N_11 
REMARK    4  A    between atoms: N_11  and  N_12 
REMARK    5  A    between atoms: C_13  and  C_14 
REMARK    6  A    between atoms: C_15  and  O_16 
ROOT
HETATM    1  C   UNL     1     -43.744  56.448 -54.812  1.00  0.00     0.271 C 
HETATM    2  N   UNL     1     -43.403  56.498 -56.154  1.00  0.00    -0.243 N 
HETATM    3  O   UNL     1     -44.713  57.023 -54.324  1.00  0.00    -0.266 OA
HETATM    4  H   UNL     1     -42.653  55.961 -56.569  1.00  0.00     0.192 HD
ENDROOT
BRANCH   2   5
HETATM    5  N   UNL     1     -44.148  57.305 -56.959  1.00  0.00    -0.183 NA
HETATM    6  C   UNL     1     -44.121  57.075 -58.236  1.00  0.00     0.153 C 
BRANCH   6   7
HETATM    7  C   UNL     1     -44.893  57.928 -59.180  1.00  0.00     0.027 A 
HETATM    8  C   UNL     1     -46.296  57.820 -59.208  1.00  0.00     0.078 A 
HETATM    9  C   UNL     1     -47.051  58.598 -60.075  1.00  0.00     0.038 A 
HETATM   10  C   UNL     1     -46.418  59.500 -60.922  1.00  0.00     0.015 A 
HETATM   11  C   UNL     1     -45.023  59.638 -60.917  1.00  0.00    -0.025 A 
HETATM   12  C   UNL     1     -44.224  58.851 -60.042  1.00  0.00    -0.012 A 
HETATM   13  C   UNL     1     -44.427  60.566 -61.785  1.00  0.00     0.012 A 
HETATM   14  C   UNL     1     -42.820  59.062 -60.100  1.00  0.00     0.013 A 
HETATM   15  C   UNL     1     -42.243  59.991 -60.971  1.00  0.00     0.001 A 
HETATM   16  C   UNL     1     -43.046  60.743 -61.813  1.00  0.00     0.001 A 
BRANCH   8  17
HETATM   17  O   UNL     1     -47.020  56.969 -58.415  1.00  0.00    -0.360 OA
HETATM   18  H   UNL     1     -46.567  56.097 -58.384  1.00  0.00     0.217 HD
ENDBRANCH   8  17
ENDBRANCH   6   7
ENDBRANCH   2   5
BRANCH   1  19
HETATM   19  C   UNL     1     -42.877  55.659 -53.890  1.00  0.00     0.036 A 
HETATM   20  C   UNL     1     -43.334  54.629 -53.071  1.00  0.00     0.034 A 
HETATM   21  C   UNL     1     -42.415  53.900 -52.315  1.00  0.00     0.091 A 
HETATM   22  N   UNL     1     -41.090  54.174 -52.375  1.00  0.00    -0.362 N 
HETATM   23  C   UNL     1     -40.629  55.177 -53.155  1.00  0.00     0.091 A 
HETATM   24  C   UNL     1     -41.506  55.934 -53.917  1.00  0.00     0.034 A 
BRANCH  22  25
HETATM   25  C   UNL     1     -40.126  53.327 -51.623  1.00  0.00     0.166 C 
BRANCH  25  26
HETATM   26  C   UNL     1     -39.906  51.992 -52.284  1.00  0.00    -0.040 A 
HETATM   27  C   UNL     1     -39.702  50.850 -51.492  1.00  0.00     0.009 A 
HETATM   28  C   UNL     1     -39.548  49.594 -52.084  1.00  0.00     0.001 A 
HETATM   29  C   UNL     1     -39.601  49.464 -53.468  1.00  0.00     0.000 A 
HETATM   30  C   UNL     1     -39.813  50.586 -54.266  1.00  0.00     0.001 A 
HETATM   31  C   UNL     1     -39.970  51.844 -53.679  1.00  0.00     0.009 A 
ENDBRANCH  25  26
ENDBRANCH  22  25
ENDBRANCH   1  19
TORSDOF 6
ENDMDL
MODEL 8
REMARK VINA RESULT:      -8.3      6.104     10.759
REMARK  6 active torsions:
REMARK  status: ('A' for Active; 'I' for Inactive)
REMARK    1  A    between atoms: C_4  and  C_5 
REMARK    2  A    between atoms: C_5  and  N_6 
REMARK    3  A    between atoms: C_9  and  C_10 
REMARK       I    between atoms: C_10  and  N_11 
REMARK    4  A    between atoms: N_11  and  N_12 
REMARK    5  A    between atoms: C_13  and  C_14 
REMARK    6  A    between atoms: C_15  and  O_16 
ROOT
HETATM    1  C   UNL     1     -43.973  57.019 -50.957  1.00  0.00     0.271 C 
HETATM    2  N   UNL     1     -43.706  58.353 -51.226  1.00  0.00    -0.243 N 
HETATM    3  O   UNL     1     -45.061  56.596 -50.574  1.00  0.00    -0.266 OA
HETATM    4  H   UNL     1     -42.837  58.689 -51.618  1.00  0.00     0.192 HD
ENDROOT
BRANCH   2   5
HETATM    5  N   UNL     1     -44.695  59.253 -50.966  1.00  0.00    -0.183 NA
HETATM    6  C   UNL     1     -44.388  60.300 -50.264  1.00  0.00     0.153 C 
BRANCH   6   7
HETATM    7  C   UNL     1     -45.420  61.316 -49.923  1.00  0.00     0.027 A 
HETATM    8  C   UNL     1     -46.195  61.878 -50.955  1.00  0.00     0.078 A 
HETATM    9  C   UNL     1     -47.166  62.829 -50.677  1.00  0.00     0.038 A 
HETATM   10  C   UNL     1     -47.384  63.230 -49.363  1.00  0.00     0.015 A 
HETATM   11  C   UNL     1     -46.635  62.689 -48.310  1.00  0.00    -0.025 A 
HETATM   12  C   UNL     1     -45.631  61.714 -48.566  1.00  0.00    -0.012 A 
HETATM   13  C   UNL     1     -46.893  63.118 -46.999  1.00  0.00     0.012 A 
HETATM   14  C   UNL     1     -44.925  61.216 -47.438  1.00  0.00     0.013 A 
HETATM   15  C   UNL     1     -45.196  61.655 -46.138  1.00  0.00     0.001 A 
HETATM   16  C   UNL     1     -46.180  62.606 -45.919  1.00  0.00     0.001 A 
BRANCH   8  17
HETATM   17  O   UNL     1     -46.067  61.552 -52.280  1.00  0.00    -0.360 OA
HETATM   18  H   UNL     1     -45.181  61.151 -52.426  1.00  0.00     0.217 HD
ENDBRANCH   8  17
ENDBRANCH   6   7
ENDBRANCH   2   5
BRANCH   1  19
HETATM   19  C   UNL     1     -42.872  56.029 -51.128  1.00  0.00     0.036 A 
HETATM   20  C   UNL     1     -41.757  56.226 -51.939  1.00  0.00     0.034 A 
HETATM   21  C   UNL     1     -40.744  55.267 -51.952  1.00  0.00     0.091 A 
HETATM   22  N   UNL     1     -40.826  54.156 -51.181  1.00  0.00    -0.362 N 
HETATM   23  C   UNL     1     -41.905  53.942 -50.395  1.00  0.00     0.091 A 
HETATM   24  C   UNL     1     -42.941  54.864 -50.357  1.00  0.00     0.034 A 
BRANCH  22  25
HETATM   25  C   UNL     1     -39.694  53.193 -51.151  1.00  0.00     0.166 C 
BRANCH  25  26
HETATM   26  C   UNL     1     -39.868  52.079 -52.149  1.00  0.00    -0.040 A 
HETATM   27  C   UNL     1     -40.279  52.377 -53.459  1.00  0.00     0.009 A 
HETATM   28  C   UNL     1     -40.396  51.366 -54.414  1.00  0.00     0.001 A 
HETATM   29  C   UNL     1     -40.099  50.049 -54.076  1.00  0.00     0.000 A 
HETATM   30  C   UNL     1     -39.680  49.739 -52.784  1.00  0.00     0.001 A 
HETATM   31  C   UNL     1     -39.558  50.748 -51.826  1.00  0.00     0.009 A 
ENDBRANCH  25  26
ENDBRANCH  22  25
ENDBRANCH   1  19
TORSDOF 6
ENDMDL
MODEL 9
REMARK VINA RESULT:      -8.2      1.301      2.894
REMARK  6 active torsions:
REMARK  status: ('A' for Active; 'I' for Inactive)
REMARK    1  A    between atoms: C_4  and  C_5 
REMARK    2  A    between atoms: C_5  and  N_6 
REMARK    3  A    between atoms: C_9  and  C_10 
REMARK       I    between atoms: C_10  and  N_11 
REMARK    4  A    between atoms: N_11  and  N_12 
REMARK    5  A    between atoms: C_13  and  C_14 
REMARK    6  A    between atoms: C_15  and  O_16 
ROOT
HETATM    1  C   UNL     1     -42.240  56.631 -55.796  1.00  0.00     0.271 C 
HETATM    2  N   UNL     1     -41.857  55.317 -56.015  1.00  0.00    -0.243 N 
HETATM    3  O   UNL     1     -41.888  57.301 -54.829  1.00  0.00    -0.266 OA
HETATM    4  H   UNL     1     -42.081  54.792 -56.850  1.00  0.00     0.192 HD
ENDROOT
BRANCH   2   5
HETATM    5  N   UNL     1     -41.109  54.714 -55.050  1.00  0.00    -0.183 NA
HETATM    6  C   UNL     1     -41.722  53.943 -54.205  1.00  0.00     0.153 C 
BRANCH   6   7
HETATM    7  C   UNL     1     -40.974  53.268 -53.110  1.00  0.00     0.027 A 
HETATM    8  C   UNL     1     -40.250  52.095 -53.398  1.00  0.00     0.078 A 
HETATM    9  C   UNL     1     -39.541  51.436 -52.403  1.00  0.00     0.038 A 
HETATM   10  C   UNL     1     -39.538  51.940 -51.108  1.00  0.00     0.015 A 
HETATM   11  C   UNL     1     -40.244  53.108 -50.786  1.00  0.00    -0.025 A 
HETATM   12  C   UNL     1     -40.981  53.803 -51.784  1.00  0.00    -0.012 A 
HETATM   13  C   UNL     1     -40.207  53.585 -49.467  1.00  0.00     0.012 A 
HETATM   14  C   UNL     1     -41.660  54.980 -51.370  1.00  0.00     0.013 A 
HETATM   15  C   UNL     1     -41.613  55.441 -50.051  1.00  0.00     0.001 A 
HETATM   16  C   UNL     1     -40.886  54.743 -49.099  1.00  0.00     0.001 A 
BRANCH   8  17
HETATM   17  O   UNL     1     -40.182  51.516 -54.638  1.00  0.00    -0.360 OA
HETATM   18  H   UNL     1     -40.368  52.199 -55.320  1.00  0.00     0.217 HD
ENDBRANCH   8  17
ENDBRANCH   6   7
ENDBRANCH   2   5
BRANCH   1  19
HETATM   19  C   UNL     1     -43.151  57.276 -56.785  1.00  0.00     0.036 A 
HETATM   20  C   UNL     1     -44.431  57.740 -56.487  1.00  0.00     0.034 A 
HETATM   21  C   UNL     1     -45.159  58.409 -57.471  1.00  0.00     0.091 A 
HETATM   22  N   UNL     1     -44.638  58.622 -58.702  1.00  0.00    -0.362 N 
HETATM   23  C   UNL     1     -43.402  58.170 -59.013  1.00  0.00     0.091 A 
HETATM   24  C   UNL     1     -42.644  57.491 -58.070  1.00  0.00     0.034 A 
BRANCH  22  25
HETATM   25  C   UNL     1     -45.403  59.411 -59.703  1.00  0.00     0.166 C 
BRANCH  25  26
HETATM   26  C   UNL     1     -46.374  58.559 -60.477  1.00  0.00    -0.040 A 
HETATM   27  C   UNL     1     -46.332  57.161 -60.344  1.00  0.00     0.009 A 
HETATM   28  C   UNL     1     -47.257  56.356 -61.012  1.00  0.00     0.001 A 
HETATM   29  C   UNL     1     -48.236  56.935 -61.813  1.00  0.00     0.000 A 
HETATM   30  C   UNL     1     -48.297  58.321 -61.946  1.00  0.00     0.001 A 
HETATM   31  C   UNL     1     -47.376  59.131 -61.278  1.00  0.00     0.009 A 
ENDBRANCH  25  26
ENDBRANCH  22  25
ENDBRANCH   1  19
TORSDOF 6
ENDMDL
MODEL 10
REMARK VINA RESULT:      -8.0      1.319      1.988
REMARK  6 active torsions:
REMARK  status: ('A' for Active; 'I' for Inactive)
REMARK    1  A    between atoms: C_4  and  C_5 
REMARK    2  A    between atoms: C_5  and  N_6 
REMARK    3  A    between atoms: C_9  and  C_10 
REMARK       I    between atoms: C_10  and  N_11 
REMARK    4  A    between atoms: N_11  and  N_12 
REMARK    5  A    between atoms: C_13  and  C_14 
REMARK    6  A    between atoms: C_15  and  O_16 
ROOT
HETATM    1  C   UNL     1     -42.475  56.461 -56.111  1.00  0.00     0.271 C 
HETATM    2  N   UNL     1     -42.561  55.080 -56.014  1.00  0.00    -0.243 N 
HETATM    3  O   UNL     1     -42.097  57.194 -55.202  1.00  0.00    -0.266 OA
HETATM    4  H   UNL     1     -42.795  54.472 -56.787  1.00  0.00     0.192 HD
ENDROOT
BRANCH   2   5
HETATM    5  N   UNL     1     -42.285  54.520 -54.805  1.00  0.00    -0.183 NA
HETATM    6  C   UNL     1     -41.067  54.127 -54.585  1.00  0.00     0.153 C 
BRANCH   6   7
HETATM    7  C   UNL     1     -40.695  53.487 -53.295  1.00  0.00     0.027 A 
HETATM    8  C   UNL     1     -40.765  54.243 -52.110  1.00  0.00     0.078 A 
HETATM    9  C   UNL     1     -40.426  53.681 -50.887  1.00  0.00     0.038 A 
HETATM   10  C   UNL     1     -40.017  52.354 -50.827  1.00  0.00     0.015 A 
HETATM   11  C   UNL     1     -39.940  51.569 -51.986  1.00  0.00    -0.025 A 
HETATM   12  C   UNL     1     -40.279  52.120 -53.253  1.00  0.00    -0.012 A 
HETATM   13  C   UNL     1     -39.529  50.232 -51.877  1.00  0.00     0.012 A 
HETATM   14  C   UNL     1     -40.179  51.250 -54.372  1.00  0.00     0.013 A 
HETATM   15  C   UNL     1     -39.767  49.920 -54.246  1.00  0.00     0.001 A 
HETATM   16  C   UNL     1     -39.442  49.411 -52.998  1.00  0.00     0.001 A 
BRANCH   8  17
HETATM   17  O   UNL     1     -41.159  55.555 -52.055  1.00  0.00    -0.360 OA
HETATM   18  H   UNL     1     -41.510  55.746 -51.157  1.00  0.00     0.217 HD
ENDBRANCH   8  17
ENDBRANCH   6   7
ENDBRANCH   2   5
BRANCH   1  19
HETATM   19  C   UNL     1     -42.880  57.107 -57.392  1.00  0.00     0.036 A 
HETATM   20  C   UNL     1     -43.293  56.412 -58.526  1.00  0.00     0.034 A 
HETATM   21  C   UNL     1     -43.735  57.126 -59.641  1.00  0.00     0.091 A 
HETATM   22  N   UNL     1     -43.776  58.479 -59.630  1.00  0.00    -0.362 N 
HETATM   23  C   UNL     1     -43.368  59.172 -58.543  1.00  0.00     0.091 A 
HETATM   24  C   UNL     1     -42.913  58.505 -57.416  1.00  0.00     0.034 A 
BRANCH  22  25
HETATM   25  C   UNL     1     -44.330  59.210 -60.801  1.00  0.00     0.166 C 
BRANCH  25  26
HETATM   26  C   UNL     1     -45.638  59.884 -60.484  1.00  0.00    -0.040 A 
HETATM   27  C   UNL     1     -46.760  59.104 -60.156  1.00  0.00     0.009 A 
HETATM   28  C   UNL     1     -47.969  59.710 -59.808  1.00  0.00     0.001 A 
HETATM   29  C   UNL     1     -48.071  61.097 -59.777  1.00  0.00     0.000 A 
HETATM   30  C   UNL     1     -46.964  61.884 -60.090  1.00  0.00     0.001 A 
HETATM   31  C   UNL     1     -45.752  61.283 -60.436  1.00  0.00     0.009 A 
ENDBRANCH  25  26
ENDBRANCH  22  25
ENDBRANCH   1  19
TORSDOF 6
ENDMDL
