MODEL 1
REMARK VINA RESULT:      -7.7      0.000      0.000
REMARK  4 active torsions:
REMARK  status: ('A' for Active; 'I' for Inactive)
REMARK    1  A    between atoms: C_4  and  C_5 
REMARK       I    between atoms: C_5  and  N_6 
REMARK    2  A    between atoms: N_6  and  C_7 
REMARK    3  A    between atoms: C_7  and  N_8 
REMARK    4  A    between atoms: N_8  and  C_9 
ROOT
HETATM    1  C   UNL     1     -40.119  53.495 -51.246  1.00  0.00     0.257 C 
HETATM    2  N   UNL     1     -40.949  54.340 -51.975  1.00  0.00    -0.299 N 
HETATM    3  O   UNL     1     -39.484  53.945 -50.295  1.00  0.00    -0.267 OA
HETATM    4  H   UNL     1     -40.737  55.289 -51.691  1.00  0.00     0.171 HD
ENDROOT
BRANCH   2   5
HETATM    5  C   UNL     1     -42.330  54.226 -52.261  1.00  0.00     0.180 C 
HETATM    6  S   UNL     1     -43.530  54.218 -51.102  1.00  0.00    -0.040 SA
BRANCH   5   7
HETATM    7  N   UNL     1     -42.480  54.130 -53.639  1.00  0.00    -0.318 N 
HETATM    8  H   UNL     1     -42.683  53.209 -54.006  1.00  0.00     0.170 HD
BRANCH   7   9
HETATM    9  C   UNL     1     -42.509  55.048 -54.694  1.00  0.00     0.129 A 
HETATM   10  N   UNL     1     -42.164  56.289 -54.282  1.00  0.00    -0.243 NA
HETATM   11  C   UNL     1     -42.178  57.284 -55.195  1.00  0.00     0.119 A 
HETATM   12  C   UNL     1     -42.523  57.106 -56.522  1.00  0.00     0.026 A 
HETATM   13  C   UNL     1     -42.882  55.827 -56.941  1.00  0.00    -0.057 A 
HETATM   14  C   UNL     1     -43.270  55.584 -58.369  1.00  0.00     0.048 C 
HETATM   15  C   UNL     1     -42.883  54.786 -56.004  1.00  0.00     0.057 A 
ENDBRANCH   7   9
ENDBRANCH   5   7
ENDBRANCH   2   5
BRANCH   1  16
HETATM   16  C   UNL     1     -39.977  52.071 -51.642  1.00  0.00     0.032 A 
HETATM   17  C   UNL     1     -39.846  51.683 -52.982  1.00  0.00     0.023 A 
HETATM   18  C   UNL     1     -39.697  50.329 -53.316  1.00  0.00    -0.061 A 
HETATM   19  C   UNL     1     -39.539  49.911 -54.747  1.00  0.00     0.048 C 
HETATM   20  C   UNL     1     -39.641  49.375 -52.291  1.00  0.00     0.007 A 
HETATM   21  C   UNL     1     -39.750  49.761 -50.955  1.00  0.00     0.002 A 
HETATM   22  C   UNL     1     -39.914  51.106 -50.629  1.00  0.00     0.017 A 
ENDBRANCH   1  16
TORSDOF 4
ENDMDL
MODEL 2
REMARK VINA RESULT:      -7.4      3.342      6.021
REMARK  4 active torsions:
REMARK  status: ('A' for Active; 'I' for Inactive)
REMARK    1  A    between atoms: C_4  and  C_5 
REMARK       I    between atoms: C_5  and  N_6 
REMARK    2  A    between atoms: N_6  and  C_7 
REMARK    3  A    between atoms: C_7  and  N_8 
REMARK    4  A    between atoms: N_8  and  C_9 
ROOT
HETATM    1  C   UNL     1     -42.542  58.129 -53.315  1.00  0.00     0.257 C 
HETATM    2  N   UNL     1     -42.461  58.445 -51.963  1.00  0.00    -0.299 N 
HETATM    3  O   UNL     1     -42.711  59.028 -54.136  1.00  0.00    -0.267 OA
HETATM    4  H   UNL     1     -42.755  59.408 -51.861  1.00  0.00     0.171 HD
ENDROOT
BRANCH   2   5
HETATM    5  C   UNL     1     -41.441  58.155 -51.026  1.00  0.00     0.180 C 
HETATM    6  S   UNL     1     -40.023  59.023 -50.886  1.00  0.00    -0.040 SA
BRANCH   5   7
HETATM    7  N   UNL     1     -41.841  57.056 -50.277  1.00  0.00    -0.318 N 
HETATM    8  H   UNL     1     -42.734  57.134 -49.805  1.00  0.00     0.170 HD
BRANCH   7   9
HETATM    9  C   UNL     1     -41.338  55.767 -50.070  1.00  0.00     0.129 A 
HETATM   10  N   UNL     1     -41.156  55.510 -48.755  1.00  0.00    -0.243 NA
HETATM   11  C   UNL     1     -40.646  54.307 -48.412  1.00  0.00     0.119 A 
HETATM   12  C   UNL     1     -40.302  53.329 -49.326  1.00  0.00     0.026 A 
HETATM   13  C   UNL     1     -40.487  53.599 -50.679  1.00  0.00    -0.057 A 
HETATM   14  C   UNL     1     -40.124  52.572 -51.709  1.00  0.00     0.048 C 
HETATM   15  C   UNL     1     -41.006  54.846 -51.053  1.00  0.00     0.057 A 
ENDBRANCH   7   9
ENDBRANCH   5   7
ENDBRANCH   2   5
BRANCH   1  16
HETATM   16  C   UNL     1     -42.463  56.712 -53.754  1.00  0.00     0.032 A 
HETATM   17  C   UNL     1     -41.282  56.161 -54.269  1.00  0.00     0.023 A 
HETATM   18  C   UNL     1     -41.242  54.814 -54.658  1.00  0.00    -0.061 A 
HETATM   19  C   UNL     1     -39.976  54.214 -55.194  1.00  0.00     0.048 C 
HETATM   20  C   UNL     1     -42.383  54.019 -54.488  1.00  0.00     0.007 A 
HETATM   21  C   UNL     1     -43.553  54.561 -53.956  1.00  0.00     0.002 A 
HETATM   22  C   UNL     1     -43.594  55.904 -53.586  1.00  0.00     0.017 A 
ENDBRANCH   1  16
TORSDOF 4
ENDMDL
MODEL 3
REMARK VINA RESULT:      -7.3      3.119      6.546
REMARK  4 active torsions:
REMARK  status: ('A' for Active; 'I' for Inactive)
REMARK    1  A    between atoms: C_4  and  C_5 
REMARK       I    between atoms: C_5  and  N_6 
REMARK    2  A    between atoms: N_6  and  C_7 
REMARK    3  A    between atoms: C_7  and  N_8 
REMARK    4  A    between atoms: N_8  and  C_9 
ROOT
HETATM    1  C   UNL     1     -42.485  55.768 -51.070  1.00  0.00     0.257 C 
HETATM    2  N   UNL     1     -42.968  55.177 -52.232  1.00  0.00    -0.299 N 
HETATM    3  O   UNL     1     -42.351  55.087 -50.056  1.00  0.00    -0.267 OA
HETATM    4  H   UNL     1     -43.322  54.262 -51.979  1.00  0.00     0.171 HD
ENDROOT
BRANCH   2   5
HETATM    5  C   UNL     1     -42.398  55.126 -53.526  1.00  0.00     0.180 C 
HETATM    6  S   UNL     1     -43.172  55.642 -54.912  1.00  0.00    -0.040 SA
BRANCH   5   7
HETATM    7  N   UNL     1     -41.121  54.590 -53.416  1.00  0.00    -0.318 N 
HETATM    8  H   UNL     1     -40.352  55.248 -53.457  1.00  0.00     0.170 HD
BRANCH   7   9
HETATM    9  C   UNL     1     -40.606  53.315 -53.162  1.00  0.00     0.129 A 
HETATM   10  N   UNL     1     -40.207  53.189 -51.876  1.00  0.00    -0.243 NA
HETATM   11  C   UNL     1     -39.661  52.013 -51.497  1.00  0.00     0.119 A 
HETATM   12  C   UNL     1     -39.488  50.936 -52.346  1.00  0.00     0.026 A 
HETATM   13  C   UNL     1     -39.897  51.071 -53.670  1.00  0.00    -0.057 A 
HETATM   14  C   UNL     1     -39.725  49.934 -54.632  1.00  0.00     0.048 C 
HETATM   15  C   UNL     1     -40.456  52.288 -54.082  1.00  0.00     0.057 A 
ENDBRANCH   7   9
ENDBRANCH   5   7
ENDBRANCH   2   5
BRANCH   1  16
HETATM   16  C   UNL     1     -42.172  57.220 -51.050  1.00  0.00     0.032 A 
HETATM   17  C   UNL     1     -40.891  57.697 -50.739  1.00  0.00     0.023 A 
HETATM   18  C   UNL     1     -40.629  59.075 -50.745  1.00  0.00    -0.061 A 
HETATM   19  C   UNL     1     -39.257  59.590 -50.430  1.00  0.00     0.048 C 
HETATM   20  C   UNL     1     -41.652  59.963 -51.106  1.00  0.00     0.007 A 
HETATM   21  C   UNL     1     -42.921  59.489 -51.436  1.00  0.00     0.002 A 
HETATM   22  C   UNL     1     -43.181  58.120 -51.412  1.00  0.00     0.017 A 
ENDBRANCH   1  16
TORSDOF 4
ENDMDL
MODEL 4
REMARK VINA RESULT:      -7.3      3.169      4.259
REMARK  4 active torsions:
REMARK  status: ('A' for Active; 'I' for Inactive)
REMARK    1  A    between atoms: C_4  and  C_5 
REMARK       I    between atoms: C_5  and  N_6 
REMARK    2  A    between atoms: N_6  and  C_7 
REMARK    3  A    between atoms: C_7  and  N_8 
REMARK    4  A    between atoms: N_8  and  C_9 
ROOT
HETATM    1  C   UNL     1     -41.113  54.877 -53.801  1.00  0.00     0.257 C 
HETATM    2  N   UNL     1     -42.440  55.234 -53.587  1.00  0.00    -0.299 N 
HETATM    3  O   UNL     1     -40.379  55.633 -54.434  1.00  0.00    -0.267 OA
HETATM    4  H   UNL     1     -42.638  56.027 -54.184  1.00  0.00     0.171 HD
ENDROOT
BRANCH   2   5
HETATM    5  C   UNL     1     -43.160  55.357 -52.375  1.00  0.00     0.180 C 
HETATM    6  S   UNL     1     -43.623  54.066 -51.425  1.00  0.00    -0.040 SA
BRANCH   5   7
HETATM    7  N   UNL     1     -43.389  56.708 -52.143  1.00  0.00    -0.318 N 
HETATM    8  H   UNL     1     -44.324  57.045 -52.336  1.00  0.00     0.170 HD
BRANCH   7   9
HETATM    9  C   UNL     1     -42.639  57.756 -51.598  1.00  0.00     0.129 A 
HETATM   10  N   UNL     1     -41.384  57.359 -51.288  1.00  0.00    -0.243 NA
HETATM   11  C   UNL     1     -40.557  58.266 -50.725  1.00  0.00     0.119 A 
HETATM   12  C   UNL     1     -40.919  59.571 -50.450  1.00  0.00     0.026 A 
HETATM   13  C   UNL     1     -42.213  59.974 -50.767  1.00  0.00    -0.057 A 
HETATM   14  C   UNL     1     -42.656  61.378 -50.483  1.00  0.00     0.048 C 
HETATM   15  C   UNL     1     -43.088  59.043 -51.343  1.00  0.00     0.057 A 
ENDBRANCH   7   9
ENDBRANCH   5   7
ENDBRANCH   2   5
BRANCH   1  16
HETATM   16  C   UNL     1     -40.603  53.575 -53.300  1.00  0.00     0.032 A 
HETATM   17  C   UNL     1     -40.490  52.454 -54.133  1.00  0.00     0.023 A 
HETATM   18  C   UNL     1     -39.989  51.245 -53.628  1.00  0.00    -0.061 A 
HETATM   19  C   UNL     1     -39.849  50.047 -54.519  1.00  0.00     0.048 C 
HETATM   20  C   UNL     1     -39.566  51.186 -52.293  1.00  0.00     0.007 A 
HETATM   21  C   UNL     1     -39.659  52.307 -51.468  1.00  0.00     0.002 A 
HETATM   22  C   UNL     1     -40.173  53.501 -51.970  1.00  0.00     0.017 A 
ENDBRANCH   1  16
TORSDOF 4
ENDMDL
MODEL 5
REMARK VINA RESULT:      -7.3      3.023      4.735
REMARK  4 active torsions:
REMARK  status: ('A' for Active; 'I' for Inactive)
REMARK    1  A    between atoms: C_4  and  C_5 
REMARK       I    between atoms: C_5  and  N_6 
REMARK    2  A    between atoms: N_6  and  C_7 
REMARK    3  A    between atoms: C_7  and  N_8 
REMARK    4  A    between atoms: N_8  and  C_9 
ROOT
HETATM    1  C   UNL     1     -41.081  58.100 -50.967  1.00  0.00     0.257 C 
HETATM    2  N   UNL     1     -40.671  58.660 -52.171  1.00  0.00    -0.299 N 
HETATM    3  O   UNL     1     -40.899  58.718 -49.920  1.00  0.00    -0.267 OA
HETATM    4  H   UNL     1     -40.089  59.458 -51.949  1.00  0.00     0.171 HD
ENDROOT
BRANCH   2   5
HETATM    5  C   UNL     1     -41.415  58.924 -53.346  1.00  0.00     0.180 C 
HETATM    6  S   UNL     1     -42.432  60.233 -53.537  1.00  0.00    -0.040 SA
BRANCH   5   7
HETATM    7  N   UNL     1     -41.138  57.922 -54.268  1.00  0.00    -0.318 N 
HETATM    8  H   UNL     1     -40.477  58.154 -54.998  1.00  0.00     0.170 HD
BRANCH   7   9
HETATM    9  C   UNL     1     -41.493  56.575 -54.397  1.00  0.00     0.129 A 
HETATM   10  N   UNL     1     -42.834  56.422 -54.485  1.00  0.00    -0.243 NA
HETATM   11  C   UNL     1     -43.320  55.166 -54.586  1.00  0.00     0.119 A 
HETATM   12  C   UNL     1     -42.528  54.034 -54.604  1.00  0.00     0.026 A 
HETATM   13  C   UNL     1     -41.148  54.196 -54.509  1.00  0.00    -0.057 A 
HETATM   14  C   UNL     1     -40.247  52.998 -54.518  1.00  0.00     0.048 C 
HETATM   15  C   UNL     1     -40.628  55.491 -54.393  1.00  0.00     0.057 A 
ENDBRANCH   7   9
ENDBRANCH   5   7
ENDBRANCH   2   5
BRANCH   1  16
HETATM   16  C   UNL     1     -41.699  56.749 -50.947  1.00  0.00     0.032 A 
HETATM   17  C   UNL     1     -40.926  55.582 -50.865  1.00  0.00     0.023 A 
HETATM   18  C   UNL     1     -41.546  54.325 -50.832  1.00  0.00    -0.061 A 
HETATM   19  C   UNL     1     -40.725  53.074 -50.727  1.00  0.00     0.048 C 
HETATM   20  C   UNL     1     -42.946  54.252 -50.841  1.00  0.00     0.007 A 
HETATM   21  C   UNL     1     -43.716  55.413 -50.902  1.00  0.00     0.002 A 
HETATM   22  C   UNL     1     -43.096  56.660 -50.951  1.00  0.00     0.017 A 
ENDBRANCH   1  16
TORSDOF 4
ENDMDL
MODEL 6
REMARK VINA RESULT:      -7.2      2.861      4.150
REMARK  4 active torsions:
REMARK  status: ('A' for Active; 'I' for Inactive)
REMARK    1  A    between atoms: C_4  and  C_5 
REMARK       I    between atoms: C_5  and  N_6 
REMARK    2  A    between atoms: N_6  and  C_7 
REMARK    3  A    between atoms: C_7  and  N_8 
REMARK    4  A    between atoms: N_8  and  C_9 
ROOT
HETATM    1  C   UNL     1     -40.849  53.706 -50.073  1.00  0.00     0.257 C 
HETATM    2  N   UNL     1     -41.533  54.906 -49.925  1.00  0.00    -0.299 N 
HETATM    3  O   UNL     1     -40.474  53.097 -49.073  1.00  0.00    -0.267 OA
HETATM    4  H   UNL     1     -41.444  55.187 -48.956  1.00  0.00     0.171 HD
ENDROOT
BRANCH   2   5
HETATM    5  C   UNL     1     -42.803  55.291 -50.418  1.00  0.00     0.180 C 
HETATM    6  S   UNL     1     -44.116  54.265 -50.526  1.00  0.00    -0.040 SA
BRANCH   5   7
HETATM    7  N   UNL     1     -42.742  56.632 -50.773  1.00  0.00    -0.318 N 
HETATM    8  H   UNL     1     -43.575  57.181 -50.602  1.00  0.00     0.170 HD
BRANCH   7   9
HETATM    9  C   UNL     1     -41.738  57.481 -51.251  1.00  0.00     0.129 A 
HETATM   10  N   UNL     1     -41.679  57.467 -52.602  1.00  0.00    -0.243 NA
HETATM   11  C   UNL     1     -40.732  58.223 -53.200  1.00  0.00     0.119 A 
HETATM   12  C   UNL     1     -39.825  59.006 -52.511  1.00  0.00     0.026 A 
HETATM   13  C   UNL     1     -39.887  59.014 -51.120  1.00  0.00    -0.057 A 
HETATM   14  C   UNL     1     -38.922  59.843 -50.328  1.00  0.00     0.048 C 
HETATM   15  C   UNL     1     -40.857  58.228 -50.484  1.00  0.00     0.057 A 
ENDBRANCH   7   9
ENDBRANCH   5   7
ENDBRANCH   2   5
BRANCH   1  16
HETATM   16  C   UNL     1     -40.541  53.187 -51.431  1.00  0.00     0.032 A 
HETATM   17  C   UNL     1     -40.790  53.941 -52.586  1.00  0.00     0.023 A 
HETATM   18  C   UNL     1     -40.472  53.423 -53.850  1.00  0.00    -0.061 A 
HETATM   19  C   UNL     1     -40.720  54.233 -55.088  1.00  0.00     0.048 C 
HETATM   20  C   UNL     1     -39.866  52.163 -53.940  1.00  0.00     0.007 A 
HETATM   21  C   UNL     1     -39.599  51.420 -52.790  1.00  0.00     0.002 A 
HETATM   22  C   UNL     1     -39.932  51.931 -51.536  1.00  0.00     0.017 A 
ENDBRANCH   1  16
TORSDOF 4
ENDMDL
MODEL 7
REMARK VINA RESULT:      -7.1      2.668      3.748
REMARK  4 active torsions:
REMARK  status: ('A' for Active; 'I' for Inactive)
REMARK    1  A    between atoms: C_4  and  C_5 
REMARK       I    between atoms: C_5  and  N_6 
REMARK    2  A    between atoms: N_6  and  C_7 
REMARK    3  A    between atoms: C_7  and  N_8 
REMARK    4  A    between atoms: N_8  and  C_9 
ROOT
HETATM    1  C   UNL     1     -43.477  55.233 -50.407  1.00  0.00     0.257 C 
HETATM    2  N   UNL     1     -43.609  56.610 -50.542  1.00  0.00    -0.299 N 
HETATM    3  O   UNL     1     -44.485  54.535 -50.322  1.00  0.00    -0.267 OA
HETATM    4  H   UNL     1     -44.577  56.840 -50.354  1.00  0.00     0.171 HD
ENDROOT
BRANCH   2   5
HETATM    5  C   UNL     1     -43.100  57.475 -51.540  1.00  0.00     0.180 C 
HETATM    6  S   UNL     1     -42.185  58.835 -51.224  1.00  0.00    -0.040 SA
BRANCH   5   7
HETATM    7  N   UNL     1     -43.492  56.984 -52.779  1.00  0.00    -0.318 N 
HETATM    8  H   UNL     1     -44.284  57.441 -53.213  1.00  0.00     0.170 HD
BRANCH   7   9
HETATM    9  C   UNL     1     -42.986  56.027 -53.665  1.00  0.00     0.129 A 
HETATM   10  N   UNL     1     -43.981  55.339 -54.271  1.00  0.00    -0.243 NA
HETATM   11  C   UNL     1     -43.634  54.360 -55.136  1.00  0.00     0.119 A 
HETATM   12  C   UNL     1     -42.327  54.024 -55.434  1.00  0.00     0.026 A 
HETATM   13  C   UNL     1     -41.307  54.733 -54.804  1.00  0.00    -0.057 A 
HETATM   14  C   UNL     1     -39.873  54.402 -55.091  1.00  0.00     0.048 C 
HETATM   15  C   UNL     1     -41.649  55.745 -53.898  1.00  0.00     0.057 A 
ENDBRANCH   7   9
ENDBRANCH   5   7
ENDBRANCH   2   5
BRANCH   1  16
HETATM   16  C   UNL     1     -42.127  54.619 -50.328  1.00  0.00     0.032 A 
HETATM   17  C   UNL     1     -41.694  53.660 -51.254  1.00  0.00     0.023 A 
HETATM   18  C   UNL     1     -40.405  53.115 -51.157  1.00  0.00    -0.061 A 
HETATM   19  C   UNL     1     -39.931  52.101 -52.155  1.00  0.00     0.048 C 
HETATM   20  C   UNL     1     -39.545  53.570 -50.149  1.00  0.00     0.007 A 
HETATM   21  C   UNL     1     -39.967  54.540 -49.239  1.00  0.00     0.002 A 
HETATM   22  C   UNL     1     -41.254  55.067 -49.330  1.00  0.00     0.017 A 
ENDBRANCH   1  16
TORSDOF 4
ENDMDL
MODEL 8
REMARK VINA RESULT:      -7.1      3.450      4.945
REMARK  4 active torsions:
REMARK  status: ('A' for Active; 'I' for Inactive)
REMARK    1  A    between atoms: C_4  and  C_5 
REMARK       I    between atoms: C_5  and  N_6 
REMARK    2  A    between atoms: N_6  and  C_7 
REMARK    3  A    between atoms: C_7  and  N_8 
REMARK    4  A    between atoms: N_8  and  C_9 
ROOT
HETATM    1  C   UNL     1     -43.594  54.900 -50.840  1.00  0.00     0.257 C 
HETATM    2  N   UNL     1     -43.851  55.981 -51.675  1.00  0.00    -0.299 N 
HETATM    3  O   UNL     1     -44.532  54.313 -50.305  1.00  0.00    -0.267 OA
HETATM    4  H   UNL     1     -44.824  56.233 -51.551  1.00  0.00     0.171 HD
ENDROOT
BRANCH   2   5
HETATM    5  C   UNL     1     -43.471  56.195 -53.022  1.00  0.00     0.180 C 
HETATM    6  S   UNL     1     -43.741  55.105 -54.256  1.00  0.00    -0.040 SA
BRANCH   5   7
HETATM    7  N   UNL     1     -42.860  57.440 -53.107  1.00  0.00    -0.318 N 
HETATM    8  H   UNL     1     -42.913  57.906 -54.004  1.00  0.00     0.170 HD
BRANCH   7   9
HETATM    9  C   UNL     1     -42.235  58.296 -52.194  1.00  0.00     0.129 A 
HETATM   10  N   UNL     1     -43.124  59.131 -51.609  1.00  0.00    -0.243 NA
HETATM   11  C   UNL     1     -42.651  60.034 -50.723  1.00  0.00     0.119 A 
HETATM   12  C   UNL     1     -41.316  60.152 -50.382  1.00  0.00     0.026 A 
HETATM   13  C   UNL     1     -40.405  59.293 -50.990  1.00  0.00    -0.057 A 
HETATM   14  C   UNL     1     -38.946  59.386 -50.658  1.00  0.00     0.048 C 
HETATM   15  C   UNL     1     -40.877  58.357 -51.919  1.00  0.00     0.057 A 
ENDBRANCH   7   9
ENDBRANCH   5   7
ENDBRANCH   2   5
BRANCH   1  16
HETATM   16  C   UNL     1     -42.193  54.486 -50.570  1.00  0.00     0.032 A 
HETATM   17  C   UNL     1     -41.578  53.445 -51.279  1.00  0.00     0.023 A 
HETATM   18  C   UNL     1     -40.248  53.093 -51.007  1.00  0.00    -0.061 A 
HETATM   19  C   UNL     1     -39.580  51.991 -51.774  1.00  0.00     0.048 C 
HETATM   20  C   UNL     1     -39.531  53.821 -50.047  1.00  0.00     0.007 A 
HETATM   21  C   UNL     1     -40.135  54.871 -49.356  1.00  0.00     0.002 A 
HETATM   22  C   UNL     1     -41.462  55.206 -49.618  1.00  0.00     0.017 A 
ENDBRANCH   1  16
TORSDOF 4
ENDMDL
MODEL 9
REMARK VINA RESULT:      -7.0      3.143      6.798
REMARK  4 active torsions:
REMARK  status: ('A' for Active; 'I' for Inactive)
REMARK    1  A    between atoms: C_4  and  C_5 
REMARK       I    between atoms: C_5  and  N_6 
REMARK    2  A    between atoms: N_6  and  C_7 
REMARK    3  A    between atoms: C_7  and  N_8 
REMARK    4  A    between atoms: N_8  and  C_9 
ROOT
HETATM    1  C   UNL     1     -43.340  55.418 -51.528  1.00  0.00     0.257 C 
HETATM    2  N   UNL     1     -43.410  54.817 -52.779  1.00  0.00    -0.299 N 
HETATM    3  O   UNL     1     -43.206  54.717 -50.528  1.00  0.00    -0.267 OA
HETATM    4  H   UNL     1     -43.527  53.822 -52.629  1.00  0.00     0.171 HD
ENDROOT
BRANCH   2   5
HETATM    5  C   UNL     1     -42.620  55.034 -53.933  1.00  0.00     0.180 C 
HETATM    6  S   UNL     1     -43.195  55.706 -55.349  1.00  0.00    -0.040 SA
BRANCH   5   7
HETATM    7  N   UNL     1     -41.328  54.601 -53.663  1.00  0.00    -0.318 N 
HETATM    8  H   UNL     1     -40.612  55.315 -53.633  1.00  0.00     0.170 HD
BRANCH   7   9
HETATM    9  C   UNL     1     -40.752  53.375 -53.314  1.00  0.00     0.129 A 
HETATM   10  N   UNL     1     -40.366  53.359 -52.018  1.00  0.00    -0.243 NA
HETATM   11  C   UNL     1     -39.766  52.242 -51.553  1.00  0.00     0.119 A 
HETATM   12  C   UNL     1     -39.527  51.119 -52.323  1.00  0.00     0.026 A 
HETATM   13  C   UNL     1     -39.923  51.141 -53.657  1.00  0.00    -0.057 A 
HETATM   14  C   UNL     1     -39.680  49.950 -54.535  1.00  0.00     0.048 C 
HETATM   15  C   UNL     1     -40.538  52.296 -54.159  1.00  0.00     0.057 A 
ENDBRANCH   7   9
ENDBRANCH   5   7
ENDBRANCH   2   5
BRANCH   1  16
HETATM   16  C   UNL     1     -43.465  56.893 -51.404  1.00  0.00     0.032 A 
HETATM   17  C   UNL     1     -44.713  57.527 -51.331  1.00  0.00     0.023 A 
HETATM   18  C   UNL     1     -44.791  58.921 -51.198  1.00  0.00    -0.061 A 
HETATM   19  C   UNL     1     -46.123  59.603 -51.101  1.00  0.00     0.048 C 
HETATM   20  C   UNL     1     -43.607  59.665 -51.098  1.00  0.00     0.007 A 
HETATM   21  C   UNL     1     -42.365  59.034 -51.150  1.00  0.00     0.002 A 
HETATM   22  C   UNL     1     -42.292  57.650 -51.299  1.00  0.00     0.017 A 
ENDBRANCH   1  16
TORSDOF 4
ENDMDL
MODEL 10
REMARK VINA RESULT:      -7.0      2.391      3.399
REMARK  4 active torsions:
REMARK  status: ('A' for Active; 'I' for Inactive)
REMARK    1  A    between atoms: C_4  and  C_5 
REMARK       I    between atoms: C_5  and  N_6 
REMARK    2  A    between atoms: N_6  and  C_7 
REMARK    3  A    between atoms: C_7  and  N_8 
REMARK    4  A    between atoms: N_8  and  C_9 
ROOT
HETATM    1  C   UNL     1     -43.072  54.775 -53.953  1.00  0.00     0.257 C 
HETATM    2  N   UNL     1     -42.906  56.155 -53.936  1.00  0.00    -0.299 N 
HETATM    3  O   UNL     1     -44.117  54.299 -54.391  1.00  0.00    -0.267 OA
HETATM    4  H   UNL     1     -43.808  56.570 -54.133  1.00  0.00     0.171 HD
ENDROOT
BRANCH   2   5
HETATM    5  C   UNL     1     -41.881  56.950 -54.502  1.00  0.00     0.180 C 
HETATM    6  S   UNL     1     -40.933  58.015 -53.634  1.00  0.00    -0.040 SA
BRANCH   5   7
HETATM    7  N   UNL     1     -41.822  56.676 -55.862  1.00  0.00    -0.318 N 
HETATM    8  H   UNL     1     -40.952  56.287 -56.205  1.00  0.00     0.170 HD
BRANCH   7   9
HETATM    9  C   UNL     1     -42.738  56.721 -56.918  1.00  0.00     0.129 A 
HETATM   10  N   UNL     1     -43.483  57.849 -56.880  1.00  0.00    -0.243 NA
HETATM   11  C   UNL     1     -44.431  58.010 -57.829  1.00  0.00     0.119 A 
HETATM   12  C   UNL     1     -44.682  57.092 -58.830  1.00  0.00     0.026 A 
HETATM   13  C   UNL     1     -43.916  55.930 -58.863  1.00  0.00    -0.057 A 
HETATM   14  C   UNL     1     -44.154  54.900 -59.926  1.00  0.00     0.048 C 
HETATM   15  C   UNL     1     -42.934  55.742 -57.881  1.00  0.00     0.057 A 
ENDBRANCH   7   9
ENDBRANCH   5   7
ENDBRANCH   2   5
BRANCH   1  16
HETATM   16  C   UNL     1     -42.009  53.891 -53.411  1.00  0.00     0.032 A 
HETATM   17  C   UNL     1     -41.473  52.833 -54.157  1.00  0.00     0.023 A 
HETATM   18  C   UNL     1     -40.459  52.029 -53.617  1.00  0.00    -0.061 A 
HETATM   19  C   UNL     1     -39.870  50.906 -54.418  1.00  0.00     0.048 C 
HETATM   20  C   UNL     1     -39.962  52.322 -52.340  1.00  0.00     0.007 A 
HETATM   21  C   UNL     1     -40.479  53.388 -51.604  1.00  0.00     0.002 A 
HETATM   22  C   UNL     1     -41.499  54.174 -52.138  1.00  0.00     0.017 A 
ENDBRANCH   1  16
TORSDOF 4
ENDMDL
