MODEL 1
REMARK VINA RESULT:     -10.0      0.000      0.000
REMARK  4 active torsions:
REMARK  status: ('A' for Active; 'I' for Inactive)
REMARK    1  A    between atoms: C_5  and  C_6 
REMARK    2  A    between atoms: C_6  and  C_7 
REMARK       I    between atoms: C_7  and  N_8 
REMARK    3  A    between atoms: N_8  and  C_9 
REMARK    4  A    between atoms: C_16  and  C_17 
REMARK       I    between atoms: C_17  and  N_18 
ROOT
HETATM    1  C   UNL     1     -42.565  56.173 -56.863  1.00  0.00     0.035 A 
HETATM    2  C   UNL     1     -43.199  55.570 -57.958  1.00  0.00     0.046 A 
HETATM    3  C   UNL     1     -44.225  56.262 -58.640  1.00  0.00     0.030 A 
HETATM    4  C   UNL     1     -44.594  57.524 -58.192  1.00  0.00     0.063 A 
HETATM    5  N   UNL     1     -45.594  57.928 -59.031  1.00  0.00    -0.277 N 
HETATM    6  H   UNL     1     -46.105  58.803 -58.999  1.00  0.00     0.189 HD
HETATM    7  N   UNL     1     -45.900  57.049 -59.999  1.00  0.00    -0.168 NA
HETATM    8  C   UNL     1     -45.059  56.013 -59.771  1.00  0.00     0.156 A 
HETATM    9  C   UNL     1     -43.990  58.153 -57.102  1.00  0.00     0.034 A 
HETATM   10  C   UNL     1     -42.963  57.454 -56.455  1.00  0.00     0.032 A 
ENDROOT
BRANCH   1  11
HETATM   11  N   UNL     1     -41.513  55.576 -56.138  1.00  0.00    -0.327 N 
HETATM   12  C   UNL     1     -41.574  54.454 -55.330  1.00  0.00     0.226 C 
HETATM   13  O   UNL     1     -42.586  53.831 -55.023  1.00  0.00    -0.273 OA
HETATM   14  H   UNL     1     -40.603  56.007 -56.240  1.00  0.00     0.169 HD
BRANCH  12  15
HETATM   15  C   UNL     1     -40.225  54.057 -54.744  1.00  0.00     0.142 C 
BRANCH  15  16
HETATM   16  C   UNL     1     -40.294  53.524 -53.325  1.00  0.00    -0.038 A 
HETATM   17  C   UNL     1     -40.043  52.156 -53.015  1.00  0.00    -0.019 A 
HETATM   18  C   UNL     1     -40.113  51.741 -51.660  1.00  0.00    -0.025 A 
HETATM   19  C   UNL     1     -39.729  51.173 -53.981  1.00  0.00     0.013 A 
HETATM   20  C   UNL     1     -39.868  50.399 -51.320  1.00  0.00     0.012 A 
HETATM   21  C   UNL     1     -40.429  52.671 -50.658  1.00  0.00     0.012 A 
HETATM   22  C   UNL     1     -39.557  49.456 -52.297  1.00  0.00     0.001 A 
HETATM   23  C   UNL     1     -39.487  49.843 -53.628  1.00  0.00     0.001 A 
HETATM   24  C   UNL     1     -40.684  54.003 -50.973  1.00  0.00     0.001 A 
HETATM   25  C   UNL     1     -40.618  54.426 -52.294  1.00  0.00     0.008 A 
ENDBRANCH  15  16
ENDBRANCH  12  15
ENDBRANCH   1  11
BRANCH   8  26
HETATM   26  C   UNL     1     -45.063  54.827 -60.641  1.00  0.00     0.270 C 
HETATM   27  N   UNL     1     -45.208  53.644 -59.968  1.00  0.00    -0.365 N 
HETATM   28  H   UNL     1     -45.315  53.669 -58.960  1.00  0.00     0.159 HD
HETATM   29  H   UNL     1     -45.246  52.780 -60.483  1.00  0.00     0.159 HD
HETATM   30  O   UNL     1     -44.957  54.852 -61.861  1.00  0.00    -0.266 OA
ENDBRANCH   8  26
TORSDOF 4
ENDMDL
MODEL 2
REMARK VINA RESULT:      -9.3      1.125      2.320
REMARK  4 active torsions:
REMARK  status: ('A' for Active; 'I' for Inactive)
REMARK    1  A    between atoms: C_5  and  C_6 
REMARK    2  A    between atoms: C_6  and  C_7 
REMARK       I    between atoms: C_7  and  N_8 
REMARK    3  A    between atoms: N_8  and  C_9 
REMARK    4  A    between atoms: C_16  and  C_17 
REMARK       I    between atoms: C_17  and  N_18 
ROOT
HETATM    1  C   UNL     1     -43.138  57.180 -56.935  1.00  0.00     0.035 A 
HETATM    2  C   UNL     1     -43.584  56.323 -57.950  1.00  0.00     0.046 A 
HETATM    3  C   UNL     1     -44.600  56.753 -58.831  1.00  0.00     0.030 A 
HETATM    4  C   UNL     1     -45.149  58.017 -58.655  1.00  0.00     0.063 A 
HETATM    5  N   UNL     1     -46.093  58.142 -59.635  1.00  0.00    -0.277 N 
HETATM    6  H   UNL     1     -46.697  58.938 -59.808  1.00  0.00     0.189 HD
HETATM    7  N   UNL     1     -46.198  57.078 -60.448  1.00  0.00    -0.168 NA
HETATM    8  C   UNL     1     -45.279  56.211 -59.965  1.00  0.00     0.156 A 
HETATM    9  C   UNL     1     -44.736  58.895 -57.652  1.00  0.00     0.034 A 
HETATM   10  C   UNL     1     -43.714  58.452 -56.804  1.00  0.00     0.032 A 
ENDROOT
BRANCH   1  11
HETATM   11  N   UNL     1     -42.110  56.853 -56.026  1.00  0.00    -0.327 N 
HETATM   12  C   UNL     1     -42.196  56.041 -54.908  1.00  0.00     0.226 C 
HETATM   13  O   UNL     1     -43.217  55.535 -54.453  1.00  0.00    -0.273 OA
HETATM   14  H   UNL     1     -41.198  57.242 -56.230  1.00  0.00     0.169 HD
BRANCH  12  15
HETATM   15  C   UNL     1     -40.867  55.865 -54.185  1.00  0.00     0.142 C 
BRANCH  15  16
HETATM   16  C   UNL     1     -40.567  54.436 -53.772  1.00  0.00    -0.038 A 
HETATM   17  C   UNL     1     -40.548  54.029 -52.406  1.00  0.00    -0.019 A 
HETATM   18  C   UNL     1     -40.274  52.670 -52.105  1.00  0.00    -0.025 A 
HETATM   19  C   UNL     1     -40.783  54.902 -51.320  1.00  0.00     0.013 A 
HETATM   20  C   UNL     1     -40.250  52.236 -50.768  1.00  0.00     0.012 A 
HETATM   21  C   UNL     1     -40.023  51.759 -53.142  1.00  0.00     0.012 A 
HETATM   22  C   UNL     1     -40.491  53.122 -49.720  1.00  0.00     0.001 A 
HETATM   23  C   UNL     1     -40.757  54.455 -49.996  1.00  0.00     0.001 A 
HETATM   24  C   UNL     1     -40.033  52.169 -54.472  1.00  0.00     0.001 A 
HETATM   25  C   UNL     1     -40.302  53.496 -54.785  1.00  0.00     0.008 A 
ENDBRANCH  15  16
ENDBRANCH  12  15
ENDBRANCH   1  11
BRANCH   8  26
HETATM   26  C   UNL     1     -45.062  54.902 -60.599  1.00  0.00     0.270 C 
HETATM   27  N   UNL     1     -45.129  53.845 -59.733  1.00  0.00    -0.365 N 
HETATM   28  H   UNL     1     -45.332  54.030 -58.757  1.00  0.00     0.159 HD
HETATM   29  H   UNL     1     -45.017  52.907 -60.082  1.00  0.00     0.159 HD
HETATM   30  O   UNL     1     -44.845  54.729 -61.793  1.00  0.00    -0.266 OA
ENDBRANCH   8  26
TORSDOF 4
ENDMDL
MODEL 3
REMARK VINA RESULT:      -9.2      3.706      5.283
REMARK  4 active torsions:
REMARK  status: ('A' for Active; 'I' for Inactive)
REMARK    1  A    between atoms: C_5  and  C_6 
REMARK    2  A    between atoms: C_6  and  C_7 
REMARK       I    between atoms: C_7  and  N_8 
REMARK    3  A    between atoms: N_8  and  C_9 
REMARK    4  A    between atoms: C_16  and  C_17 
REMARK       I    between atoms: C_17  and  N_18 
ROOT
HETATM    1  C   UNL     1     -43.165  57.487 -54.156  1.00  0.00     0.035 A 
HETATM    2  C   UNL     1     -43.661  57.998 -52.949  1.00  0.00     0.046 A 
HETATM    3  C   UNL     1     -44.668  58.989 -52.971  1.00  0.00     0.030 A 
HETATM    4  C   UNL     1     -45.129  59.448 -54.199  1.00  0.00     0.063 A 
HETATM    5  N   UNL     1     -46.075  60.389 -53.902  1.00  0.00    -0.277 N 
HETATM    6  H   UNL     1     -46.621  60.937 -54.556  1.00  0.00     0.189 HD
HETATM    7  N   UNL     1     -46.286  60.572 -52.588  1.00  0.00    -0.168 NA
HETATM    8  C   UNL     1     -45.424  59.712 -52.000  1.00  0.00     0.156 A 
HETATM    9  C   UNL     1     -44.654  58.968 -55.420  1.00  0.00     0.034 A 
HETATM   10  C   UNL     1     -43.671  57.972 -55.371  1.00  0.00     0.032 A 
ENDROOT
BRANCH   1  11
HETATM   11  N   UNL     1     -42.183  56.477 -54.237  1.00  0.00    -0.327 N 
HETATM   12  C   UNL     1     -42.382  55.110 -54.323  1.00  0.00     0.226 C 
HETATM   13  O   UNL     1     -43.458  54.524 -54.246  1.00  0.00    -0.273 OA
HETATM   14  H   UNL     1     -41.222  56.794 -54.257  1.00  0.00     0.169 HD
BRANCH  12  15
HETATM   15  C   UNL     1     -41.087  54.317 -54.452  1.00  0.00     0.142 C 
BRANCH  15  16
HETATM   16  C   UNL     1     -40.682  53.576 -53.192  1.00  0.00    -0.038 A 
HETATM   17  C   UNL     1     -40.291  52.206 -53.210  1.00  0.00    -0.019 A 
HETATM   18  C   UNL     1     -39.912  51.590 -51.990  1.00  0.00    -0.025 A 
HETATM   19  C   UNL     1     -40.261  51.410 -54.379  1.00  0.00     0.013 A 
HETATM   20  C   UNL     1     -39.520  50.240 -51.974  1.00  0.00     0.012 A 
HETATM   21  C   UNL     1     -39.931  52.328 -50.797  1.00  0.00     0.012 A 
HETATM   22  C   UNL     1     -39.497  49.484 -53.144  1.00  0.00     0.001 A 
HETATM   23  C   UNL     1     -39.868  50.069 -54.347  1.00  0.00     0.001 A 
HETATM   24  C   UNL     1     -40.325  53.663 -50.788  1.00  0.00     0.001 A 
HETATM   25  C   UNL     1     -40.698  54.282 -51.975  1.00  0.00     0.008 A 
ENDBRANCH  15  16
ENDBRANCH  12  15
ENDBRANCH   1  11
BRANCH   8  26
HETATM   26  C   UNL     1     -45.353  59.591 -50.536  1.00  0.00     0.270 C 
HETATM   27  N   UNL     1     -44.254  60.188 -49.980  1.00  0.00    -0.365 N 
HETATM   28  H   UNL     1     -43.601  60.666 -50.591  1.00  0.00     0.159 HD
HETATM   29  H   UNL     1     -44.133  60.177 -48.981  1.00  0.00     0.159 HD
HETATM   30  O   UNL     1     -46.185  59.022 -49.838  1.00  0.00    -0.266 OA
ENDBRANCH   8  26
TORSDOF 4
ENDMDL
MODEL 4
REMARK VINA RESULT:      -9.0      2.757      3.667
REMARK  4 active torsions:
REMARK  status: ('A' for Active; 'I' for Inactive)
REMARK    1  A    between atoms: C_5  and  C_6 
REMARK    2  A    between atoms: C_6  and  C_7 
REMARK       I    between atoms: C_7  and  N_8 
REMARK    3  A    between atoms: N_8  and  C_9 
REMARK    4  A    between atoms: C_16  and  C_17 
REMARK       I    between atoms: C_17  and  N_18 
ROOT
HETATM    1  C   UNL     1     -42.880  56.435 -57.490  1.00  0.00     0.035 A 
HETATM    2  C   UNL     1     -42.461  57.770 -57.419  1.00  0.00     0.046 A 
HETATM    3  C   UNL     1     -42.275  58.508 -58.609  1.00  0.00     0.030 A 
HETATM    4  C   UNL     1     -42.496  57.880 -59.828  1.00  0.00     0.063 A 
HETATM    5  N   UNL     1     -42.233  58.828 -60.777  1.00  0.00    -0.277 N 
HETATM    6  H   UNL     1     -42.287  58.720 -61.783  1.00  0.00     0.189 HD
HETATM    7  N   UNL     1     -41.877  60.026 -60.285  1.00  0.00    -0.168 NA
HETATM    8  C   UNL     1     -41.901  59.845 -58.945  1.00  0.00     0.156 A 
HETATM    9  C   UNL     1     -42.907  56.551 -59.938  1.00  0.00     0.034 A 
HETATM   10  C   UNL     1     -43.103  55.847 -58.743  1.00  0.00     0.032 A 
ENDROOT
BRANCH   1  11
HETATM   11  N   UNL     1     -43.121  55.626 -56.359  1.00  0.00    -0.327 N 
HETATM   12  C   UNL     1     -42.212  55.230 -55.393  1.00  0.00     0.226 C 
HETATM   13  O   UNL     1     -41.002  55.437 -55.404  1.00  0.00    -0.273 OA
HETATM   14  H   UNL     1     -44.077  55.320 -56.229  1.00  0.00     0.169 HD
BRANCH  12  15
HETATM   15  C   UNL     1     -42.837  54.401 -54.279  1.00  0.00     0.142 C 
BRANCH  15  16
HETATM   16  C   UNL     1     -41.875  54.026 -53.167  1.00  0.00    -0.038 A 
HETATM   17  C   UNL     1     -41.055  52.862 -53.233  1.00  0.00    -0.019 A 
HETATM   18  C   UNL     1     -40.170  52.591 -52.158  1.00  0.00    -0.025 A 
HETATM   19  C   UNL     1     -41.069  51.948 -54.311  1.00  0.00     0.013 A 
HETATM   20  C   UNL     1     -39.347  51.452 -52.193  1.00  0.00     0.012 A 
HETATM   21  C   UNL     1     -40.120  53.458 -51.056  1.00  0.00     0.012 A 
HETATM   22  C   UNL     1     -39.382  50.573 -53.273  1.00  0.00     0.001 A 
HETATM   23  C   UNL     1     -40.243  50.821 -54.332  1.00  0.00     0.001 A 
HETATM   24  C   UNL     1     -40.933  54.586 -50.996  1.00  0.00     0.001 A 
HETATM   25  C   UNL     1     -41.804  54.868 -52.042  1.00  0.00     0.008 A 
ENDBRANCH  15  16
ENDBRANCH  12  15
ENDBRANCH   1  11
BRANCH   8  26
HETATM   26  C   UNL     1     -41.582  60.946 -58.024  1.00  0.00     0.270 C 
HETATM   27  N   UNL     1     -42.609  61.288 -57.187  1.00  0.00    -0.365 N 
HETATM   28  H   UNL     1     -43.478  60.768 -57.248  1.00  0.00     0.159 HD
HETATM   29  H   UNL     1     -42.475  62.016 -56.505  1.00  0.00     0.159 HD
HETATM   30  O   UNL     1     -40.503  61.526 -57.972  1.00  0.00    -0.266 OA
ENDBRANCH   8  26
TORSDOF 4
ENDMDL
MODEL 5
REMARK VINA RESULT:      -9.0      2.063      3.291
REMARK  4 active torsions:
REMARK  status: ('A' for Active; 'I' for Inactive)
REMARK    1  A    between atoms: C_5  and  C_6 
REMARK    2  A    between atoms: C_6  and  C_7 
REMARK       I    between atoms: C_7  and  N_8 
REMARK    3  A    between atoms: N_8  and  C_9 
REMARK    4  A    between atoms: C_16  and  C_17 
REMARK       I    between atoms: C_17  and  N_18 
ROOT
HETATM    1  C   UNL     1     -42.741  56.494 -56.821  1.00  0.00     0.035 A 
HETATM    2  C   UNL     1     -43.284  57.611 -56.175  1.00  0.00     0.046 A 
HETATM    3  C   UNL     1     -44.339  58.327 -56.784  1.00  0.00     0.030 A 
HETATM    4  C   UNL     1     -44.800  57.911 -58.028  1.00  0.00     0.063 A 
HETATM    5  N   UNL     1     -45.798  58.785 -58.356  1.00  0.00    -0.277 N 
HETATM    6  H   UNL     1     -46.358  58.786 -59.200  1.00  0.00     0.189 HD
HETATM    7  N   UNL     1     -46.043  59.725 -57.428  1.00  0.00    -0.168 NA
HETATM    8  C   UNL     1     -45.149  59.453 -56.449  1.00  0.00     0.156 A 
HETATM    9  C   UNL     1     -44.278  56.807 -58.704  1.00  0.00     0.034 A 
HETATM   10  C   UNL     1     -43.246  56.104 -58.069  1.00  0.00     0.032 A 
ENDROOT
BRANCH   1  11
HETATM   11  N   UNL     1     -41.707  55.699 -56.280  1.00  0.00    -0.327 N 
HETATM   12  C   UNL     1     -41.834  54.529 -55.551  1.00  0.00     0.226 C 
HETATM   13  O   UNL     1     -42.883  54.024 -55.162  1.00  0.00    -0.273 OA
HETATM   14  H   UNL     1     -40.763  56.011 -56.468  1.00  0.00     0.169 HD
BRANCH  12  15
HETATM   15  C   UNL     1     -40.497  53.905 -55.173  1.00  0.00     0.142 C 
BRANCH  15  16
HETATM   16  C   UNL     1     -40.404  53.463 -53.724  1.00  0.00    -0.038 A 
HETATM   17  C   UNL     1     -40.100  52.119 -53.359  1.00  0.00    -0.019 A 
HETATM   18  C   UNL     1     -40.016  51.791 -51.981  1.00  0.00    -0.025 A 
HETATM   19  C   UNL     1     -39.879  51.079 -54.291  1.00  0.00     0.013 A 
HETATM   20  C   UNL     1     -39.717  50.475 -51.588  1.00  0.00     0.012 A 
HETATM   21  C   UNL     1     -40.235  52.779 -51.011  1.00  0.00     0.012 A 
HETATM   22  C   UNL     1     -39.500  49.474 -52.532  1.00  0.00     0.001 A 
HETATM   23  C   UNL     1     -39.581  49.776 -53.884  1.00  0.00     0.001 A 
HETATM   24  C   UNL     1     -40.542  54.087 -51.378  1.00  0.00     0.001 A 
HETATM   25  C   UNL     1     -40.626  54.426 -52.723  1.00  0.00     0.008 A 
ENDBRANCH  15  16
ENDBRANCH  12  15
ENDBRANCH   1  11
BRANCH   8  26
HETATM   26  C   UNL     1     -45.101  60.260 -55.221  1.00  0.00     0.270 C 
HETATM   27  N   UNL     1     -45.720  59.679 -54.148  1.00  0.00    -0.365 N 
HETATM   28  H   UNL     1     -46.137  58.763 -54.266  1.00  0.00     0.159 HD
HETATM   29  H   UNL     1     -45.716  60.148 -53.257  1.00  0.00     0.159 HD
HETATM   30  O   UNL     1     -44.558  61.355 -55.122  1.00  0.00    -0.266 OA
ENDBRANCH   8  26
TORSDOF 4
ENDMDL
MODEL 6
REMARK VINA RESULT:      -9.0      1.907      3.374
REMARK  4 active torsions:
REMARK  status: ('A' for Active; 'I' for Inactive)
REMARK    1  A    between atoms: C_5  and  C_6 
REMARK    2  A    between atoms: C_6  and  C_7 
REMARK       I    between atoms: C_7  and  N_8 
REMARK    3  A    between atoms: N_8  and  C_9 
REMARK    4  A    between atoms: C_16  and  C_17 
REMARK       I    between atoms: C_17  and  N_18 
ROOT
HETATM    1  C   UNL     1     -43.138  56.403 -57.736  1.00  0.00     0.035 A 
HETATM    2  C   UNL     1     -44.182  57.335 -57.786  1.00  0.00     0.046 A 
HETATM    3  C   UNL     1     -45.082  57.320 -58.875  1.00  0.00     0.030 A 
HETATM    4  C   UNL     1     -44.895  56.384 -59.885  1.00  0.00     0.063 A 
HETATM    5  N   UNL     1     -45.898  56.616 -60.784  1.00  0.00    -0.277 N 
HETATM    6  H   UNL     1     -46.070  56.122 -61.652  1.00  0.00     0.189 HD
HETATM    7  N   UNL     1     -46.735  57.609 -60.442  1.00  0.00    -0.168 NA
HETATM    8  C   UNL     1     -46.245  58.053 -59.262  1.00  0.00     0.156 A 
HETATM    9  C   UNL     1     -43.863  55.445 -59.873  1.00  0.00     0.034 A 
HETATM   10  C   UNL     1     -42.996  55.469 -58.773  1.00  0.00     0.032 A 
ENDROOT
BRANCH   1  11
HETATM   11  N   UNL     1     -42.208  56.320 -56.678  1.00  0.00    -0.327 N 
HETATM   12  C   UNL     1     -42.308  55.566 -55.522  1.00  0.00     0.226 C 
HETATM   13  O   UNL     1     -43.279  54.904 -55.166  1.00  0.00    -0.273 OA
HETATM   14  H   UNL     1     -41.359  56.859 -56.792  1.00  0.00     0.169 HD
BRANCH  12  15
HETATM   15  C   UNL     1     -41.085  55.676 -54.620  1.00  0.00     0.142 C 
BRANCH  15  16
HETATM   16  C   UNL     1     -40.679  54.373 -53.959  1.00  0.00    -0.038 A 
HETATM   17  C   UNL     1     -40.709  54.198 -52.544  1.00  0.00    -0.019 A 
HETATM   18  C   UNL     1     -40.328  52.942 -52.006  1.00  0.00    -0.025 A 
HETATM   19  C   UNL     1     -41.095  55.208 -51.633  1.00  0.00     0.013 A 
HETATM   20  C   UNL     1     -40.349  52.737 -50.615  1.00  0.00     0.012 A 
HETATM   21  C   UNL     1     -39.928  51.906 -52.861  1.00  0.00     0.012 A 
HETATM   22  C   UNL     1     -40.738  53.752 -49.744  1.00  0.00     0.001 A 
HETATM   23  C   UNL     1     -41.111  54.988 -50.253  1.00  0.00     0.001 A 
HETATM   24  C   UNL     1     -39.891  52.090 -54.240  1.00  0.00     0.001 A 
HETATM   25  C   UNL     1     -40.263  53.313 -54.785  1.00  0.00     0.008 A 
ENDBRANCH  15  16
ENDBRANCH  12  15
ENDBRANCH   1  11
BRANCH   8  26
HETATM   26  C   UNL     1     -46.900  59.147 -58.531  1.00  0.00     0.270 C 
HETATM   27  N   UNL     1     -47.643  58.734 -57.458  1.00  0.00    -0.365 N 
HETATM   28  H   UNL     1     -47.675  57.744 -57.243  1.00  0.00     0.159 HD
HETATM   29  H   UNL     1     -48.110  59.416 -56.883  1.00  0.00     0.159 HD
HETATM   30  O   UNL     1     -46.809  60.335 -58.817  1.00  0.00    -0.266 OA
ENDBRANCH   8  26
TORSDOF 4
ENDMDL
MODEL 7
REMARK VINA RESULT:      -9.0      2.623      4.282
REMARK  4 active torsions:
REMARK  status: ('A' for Active; 'I' for Inactive)
REMARK    1  A    between atoms: C_5  and  C_6 
REMARK    2  A    between atoms: C_6  and  C_7 
REMARK       I    between atoms: C_7  and  N_8 
REMARK    3  A    between atoms: N_8  and  C_9 
REMARK    4  A    between atoms: C_16  and  C_17 
REMARK       I    between atoms: C_17  and  N_18 
ROOT
HETATM    1  C   UNL     1     -42.834  56.157 -57.569  1.00  0.00     0.035 A 
HETATM    2  C   UNL     1     -42.418  57.471 -57.317  1.00  0.00     0.046 A 
HETATM    3  C   UNL     1     -42.325  58.392 -58.384  1.00  0.00     0.030 A 
HETATM    4  C   UNL     1     -42.631  57.961 -59.669  1.00  0.00     0.063 A 
HETATM    5  N   UNL     1     -42.445  59.052 -60.471  1.00  0.00    -0.277 N 
HETATM    6  H   UNL     1     -42.573  59.104 -61.475  1.00  0.00     0.189 HD
HETATM    7  N   UNL     1     -42.061  60.163 -59.820  1.00  0.00    -0.168 NA
HETATM    8  C   UNL     1     -41.985  59.771 -58.528  1.00  0.00     0.156 A 
HETATM    9  C   UNL     1     -43.041  56.659 -59.959  1.00  0.00     0.034 A 
HETATM   10  C   UNL     1     -43.145  55.771 -58.881  1.00  0.00     0.032 A 
ENDROOT
BRANCH   1  11
HETATM   11  N   UNL     1     -42.986  55.174 -56.568  1.00  0.00    -0.327 N 
HETATM   12  C   UNL     1     -42.121  54.887 -55.527  1.00  0.00     0.226 C 
HETATM   13  O   UNL     1     -41.010  55.378 -55.347  1.00  0.00    -0.273 OA
HETATM   14  H   UNL     1     -43.841  54.633 -56.604  1.00  0.00     0.169 HD
BRANCH  12  15
HETATM   15  C   UNL     1     -42.634  53.795 -54.597  1.00  0.00     0.142 C 
BRANCH  15  16
HETATM   16  C   UNL     1     -41.568  53.176 -53.714  1.00  0.00    -0.038 A 
HETATM   17  C   UNL     1     -41.371  53.584 -52.362  1.00  0.00    -0.019 A 
HETATM   18  C   UNL     1     -40.362  52.945 -51.598  1.00  0.00    -0.025 A 
HETATM   19  C   UNL     1     -42.122  54.600 -51.728  1.00  0.00     0.013 A 
HETATM   20  C   UNL     1     -40.143  53.322 -50.262  1.00  0.00     0.012 A 
HETATM   21  C   UNL     1     -39.578  51.936 -52.177  1.00  0.00     0.012 A 
HETATM   22  C   UNL     1     -40.905  54.325 -49.665  1.00  0.00     0.001 A 
HETATM   23  C   UNL     1     -41.894  54.964 -50.398  1.00  0.00     0.001 A 
HETATM   24  C   UNL     1     -39.771  51.552 -53.501  1.00  0.00     0.001 A 
HETATM   25  C   UNL     1     -40.756  52.167 -54.264  1.00  0.00     0.008 A 
ENDBRANCH  15  16
ENDBRANCH  12  15
ENDBRANCH   1  11
BRANCH   8  26
HETATM   26  C   UNL     1     -41.605  60.717 -57.468  1.00  0.00     0.270 C 
HETATM   27  N   UNL     1     -41.025  61.867 -57.930  1.00  0.00    -0.365 N 
HETATM   28  H   UNL     1     -40.916  61.987 -58.931  1.00  0.00     0.159 HD
HETATM   29  H   UNL     1     -40.753  62.585 -57.278  1.00  0.00     0.159 HD
HETATM   30  O   UNL     1     -41.782  60.535 -56.269  1.00  0.00    -0.266 OA
ENDBRANCH   8  26
TORSDOF 4
ENDMDL
MODEL 8
REMARK VINA RESULT:      -8.8      1.830      2.735
REMARK  4 active torsions:
REMARK  status: ('A' for Active; 'I' for Inactive)
REMARK    1  A    between atoms: C_5  and  C_6 
REMARK    2  A    between atoms: C_6  and  C_7 
REMARK       I    between atoms: C_7  and  N_8 
REMARK    3  A    between atoms: N_8  and  C_9 
REMARK    4  A    between atoms: C_16  and  C_17 
REMARK       I    between atoms: C_17  and  N_18 
ROOT
HETATM    1  C   UNL     1     -43.269  56.185 -58.007  1.00  0.00     0.035 A 
HETATM    2  C   UNL     1     -44.298  57.136 -58.020  1.00  0.00     0.046 A 
HETATM    3  C   UNL     1     -45.296  57.072 -59.018  1.00  0.00     0.030 A 
HETATM    4  C   UNL     1     -45.219  56.073 -59.979  1.00  0.00     0.063 A 
HETATM    5  N   UNL     1     -46.297  56.270 -60.795  1.00  0.00    -0.277 N 
HETATM    6  H   UNL     1     -46.558  55.727 -61.610  1.00  0.00     0.189 HD
HETATM    7  N   UNL     1     -47.083  57.301 -60.441  1.00  0.00    -0.168 NA
HETATM    8  C   UNL     1     -46.477  57.806 -59.342  1.00  0.00     0.156 A 
HETATM    9  C   UNL     1     -44.206  55.113 -60.002  1.00  0.00     0.034 A 
HETATM   10  C   UNL     1     -43.240  55.186 -58.991  1.00  0.00     0.032 A 
ENDROOT
BRANCH   1  11
HETATM   11  N   UNL     1     -42.246  56.147 -57.036  1.00  0.00    -0.327 N 
HETATM   12  C   UNL     1     -42.206  55.387 -55.880  1.00  0.00     0.226 C 
HETATM   13  O   UNL     1     -43.107  54.677 -55.443  1.00  0.00    -0.273 OA
HETATM   14  H   UNL     1     -41.438  56.727 -57.221  1.00  0.00     0.169 HD
BRANCH  12  15
HETATM   15  C   UNL     1     -40.915  55.557 -55.089  1.00  0.00     0.142 C 
BRANCH  15  16
HETATM   16  C   UNL     1     -40.981  55.034 -53.667  1.00  0.00    -0.038 A 
HETATM   17  C   UNL     1     -40.530  53.728 -53.316  1.00  0.00    -0.019 A 
HETATM   18  C   UNL     1     -40.613  53.321 -51.960  1.00  0.00    -0.025 A 
HETATM   19  C   UNL     1     -40.004  52.800 -54.244  1.00  0.00     0.013 A 
HETATM   20  C   UNL     1     -40.175  52.040 -51.581  1.00  0.00     0.012 A 
HETATM   21  C   UNL     1     -41.136  54.196 -50.997  1.00  0.00     0.012 A 
HETATM   22  C   UNL     1     -39.657  51.151 -52.520  1.00  0.00     0.001 A 
HETATM   23  C   UNL     1     -39.571  51.531 -53.852  1.00  0.00     0.001 A 
HETATM   24  C   UNL     1     -41.583  55.465 -51.351  1.00  0.00     0.001 A 
HETATM   25  C   UNL     1     -41.508  55.882 -52.674  1.00  0.00     0.008 A 
ENDBRANCH  15  16
ENDBRANCH  12  15
ENDBRANCH   1  11
BRANCH   8  26
HETATM   26  C   UNL     1     -47.044  58.958 -58.625  1.00  0.00     0.270 C 
HETATM   27  N   UNL     1     -47.594  58.643 -57.412  1.00  0.00    -0.365 N 
HETATM   28  H   UNL     1     -47.559  57.680 -57.099  1.00  0.00     0.159 HD
HETATM   29  H   UNL     1     -47.985  59.372 -56.838  1.00  0.00     0.159 HD
HETATM   30  O   UNL     1     -47.037  60.112 -59.037  1.00  0.00    -0.266 OA
ENDBRANCH   8  26
TORSDOF 4
ENDMDL
MODEL 9
REMARK VINA RESULT:      -8.6      1.627      2.782
REMARK  4 active torsions:
REMARK  status: ('A' for Active; 'I' for Inactive)
REMARK    1  A    between atoms: C_5  and  C_6 
REMARK    2  A    between atoms: C_6  and  C_7 
REMARK       I    between atoms: C_7  and  N_8 
REMARK    3  A    between atoms: N_8  and  C_9 
REMARK    4  A    between atoms: C_16  and  C_17 
REMARK       I    between atoms: C_17  and  N_18 
ROOT
HETATM    1  C   UNL     1     -42.889  56.520 -55.890  1.00  0.00     0.035 A 
HETATM    2  C   UNL     1     -43.262  56.896 -57.187  1.00  0.00     0.046 A 
HETATM    3  C   UNL     1     -44.429  57.668 -57.382  1.00  0.00     0.030 A 
HETATM    4  C   UNL     1     -45.191  58.021 -56.275  1.00  0.00     0.063 A 
HETATM    5  N   UNL     1     -46.239  58.745 -56.772  1.00  0.00    -0.277 N 
HETATM    6  H   UNL     1     -46.999  59.162 -56.248  1.00  0.00     0.189 HD
HETATM    7  N   UNL     1     -46.219  58.912 -58.104  1.00  0.00    -0.168 NA
HETATM    8  C   UNL     1     -45.104  58.253 -58.496  1.00  0.00     0.156 A 
HETATM    9  C   UNL     1     -44.854  57.659 -54.970  1.00  0.00     0.034 A 
HETATM   10  C   UNL     1     -43.683  56.910 -54.802  1.00  0.00     0.032 A 
ENDROOT
BRANCH   1  11
HETATM   11  N   UNL     1     -41.727  55.776 -55.592  1.00  0.00    -0.327 N 
HETATM   12  C   UNL     1     -41.642  54.428 -55.288  1.00  0.00     0.226 C 
HETATM   13  O   UNL     1     -42.583  53.657 -55.129  1.00  0.00    -0.273 OA
HETATM   14  H   UNL     1     -40.853  56.285 -55.627  1.00  0.00     0.169 HD
BRANCH  12  15
HETATM   15  C   UNL     1     -40.213  53.946 -55.074  1.00  0.00     0.142 C 
BRANCH  15  16
HETATM   16  C   UNL     1     -40.081  52.809 -54.078  1.00  0.00    -0.038 A 
HETATM   17  C   UNL     1     -40.233  53.008 -52.675  1.00  0.00    -0.019 A 
HETATM   18  C   UNL     1     -40.109  51.889 -51.812  1.00  0.00    -0.025 A 
HETATM   19  C   UNL     1     -40.497  54.264 -52.081  1.00  0.00     0.013 A 
HETATM   20  C   UNL     1     -40.255  52.051 -50.423  1.00  0.00     0.012 A 
HETATM   21  C   UNL     1     -39.838  50.621 -52.344  1.00  0.00     0.012 A 
HETATM   22  C   UNL     1     -40.520  53.302 -49.870  1.00  0.00     0.001 A 
HETATM   23  C   UNL     1     -40.642  54.409 -50.698  1.00  0.00     0.001 A 
HETATM   24  C   UNL     1     -39.680  50.439 -53.715  1.00  0.00     0.001 A 
HETATM   25  C   UNL     1     -39.799  51.523 -54.575  1.00  0.00     0.008 A 
ENDBRANCH  15  16
ENDBRANCH  12  15
ENDBRANCH   1  11
BRANCH   8  26
HETATM   26  C   UNL     1     -44.705  58.210 -59.910  1.00  0.00     0.270 C 
HETATM   27  N   UNL     1     -45.297  57.205 -60.626  1.00  0.00    -0.365 N 
HETATM   28  H   UNL     1     -45.955  56.596 -60.153  1.00  0.00     0.159 HD
HETATM   29  H   UNL     1     -45.102  57.112 -61.609  1.00  0.00     0.159 HD
HETATM   30  O   UNL     1     -43.922  58.989 -60.442  1.00  0.00    -0.266 OA
ENDBRANCH   8  26
TORSDOF 4
ENDMDL
MODEL 10
REMARK VINA RESULT:      -8.5      4.705      6.408
REMARK  4 active torsions:
REMARK  status: ('A' for Active; 'I' for Inactive)
REMARK    1  A    between atoms: C_5  and  C_6 
REMARK    2  A    between atoms: C_6  and  C_7 
REMARK       I    between atoms: C_7  and  N_8 
REMARK    3  A    between atoms: N_8  and  C_9 
REMARK    4  A    between atoms: C_16  and  C_17 
REMARK       I    between atoms: C_17  and  N_18 
ROOT
HETATM    1  C   UNL     1     -43.824  57.613 -52.362  1.00  0.00     0.035 A 
HETATM    2  C   UNL     1     -44.314  58.570 -51.464  1.00  0.00     0.046 A 
HETATM    3  C   UNL     1     -45.147  59.609 -51.935  1.00  0.00     0.030 A 
HETATM    4  C   UNL     1     -45.445  59.666 -53.291  1.00  0.00     0.063 A 
HETATM    5  N   UNL     1     -46.248  60.762 -53.441  1.00  0.00    -0.277 N 
HETATM    6  H   UNL     1     -46.654  61.112 -54.301  1.00  0.00     0.189 HD
HETATM    7  N   UNL     1     -46.516  61.416 -52.299  1.00  0.00    -0.168 NA
HETATM    8  C   UNL     1     -45.844  60.714 -51.358  1.00  0.00     0.156 A 
HETATM    9  C   UNL     1     -44.969  58.735 -54.216  1.00  0.00     0.034 A 
HETATM   10  C   UNL     1     -44.162  57.704 -53.720  1.00  0.00     0.032 A 
ENDROOT
BRANCH   1  11
HETATM   11  N   UNL     1     -43.011  56.524 -51.983  1.00  0.00    -0.327 N 
HETATM   12  C   UNL     1     -41.649  56.530 -51.739  1.00  0.00     0.226 C 
HETATM   13  O   UNL     1     -40.884  57.475 -51.905  1.00  0.00    -0.273 OA
HETATM   14  H   UNL     1     -43.487  55.640 -51.854  1.00  0.00     0.169 HD
BRANCH  12  15
HETATM   15  C   UNL     1     -41.108  55.177 -51.294  1.00  0.00     0.142 C 
BRANCH  15  16
HETATM   16  C   UNL     1     -40.741  54.247 -52.434  1.00  0.00    -0.038 A 
HETATM   17  C   UNL     1     -40.355  52.892 -52.214  1.00  0.00    -0.019 A 
HETATM   18  C   UNL     1     -40.041  52.083 -53.336  1.00  0.00    -0.025 A 
HETATM   19  C   UNL     1     -40.260  52.297 -50.935  1.00  0.00     0.013 A 
HETATM   20  C   UNL     1     -39.659  50.743 -53.154  1.00  0.00     0.012 A 
HETATM   21  C   UNL     1     -40.109  52.622 -54.629  1.00  0.00     0.012 A 
HETATM   22  C   UNL     1     -39.580  50.185 -51.879  1.00  0.00     0.001 A 
HETATM   23  C   UNL     1     -39.880  50.962 -50.770  1.00  0.00     0.001 A 
HETATM   24  C   UNL     1     -40.476  53.949 -54.833  1.00  0.00     0.001 A 
HETATM   25  C   UNL     1     -40.788  54.756 -53.745  1.00  0.00     0.008 A 
ENDBRANCH  15  16
ENDBRANCH  12  15
ENDBRANCH   1  11
BRANCH   8  26
HETATM   26  C   UNL     1     -45.894  61.102 -49.941  1.00  0.00     0.270 C 
HETATM   27  N   UNL     1     -45.887  62.455 -49.733  1.00  0.00    -0.365 N 
HETATM   28  H   UNL     1     -45.866  63.069 -50.539  1.00  0.00     0.159 HD
HETATM   29  H   UNL     1     -45.943  62.815 -48.795  1.00  0.00     0.159 HD
HETATM   30  O   UNL     1     -45.945  60.318 -49.000  1.00  0.00    -0.266 OA
ENDBRANCH   8  26
TORSDOF 4
ENDMDL
