MODEL 1
REMARK VINA RESULT:      -8.1      0.000      0.000
REMARK  6 active torsions:
REMARK  status: ('A' for Active; 'I' for Inactive)
REMARK    1  A    between atoms: C_4  and  O_5 
REMARK    2  A    between atoms: O_5  and  C_6 
REMARK    3  A    between atoms: C_6  and  C_7 
REMARK    4  A    between atoms: C_11  and  C_12 
REMARK    5  A    between atoms: C_12  and  N_13 
REMARK       I    between atoms: N_13  and  C_14 
REMARK       I    between atoms: C_14  and  N_15 
REMARK    6  A    between atoms: N_15  and  C_16 
ROOT
HETATM    1  C   UNL     1     -43.499  54.361 -54.076  1.00  0.00     0.165 C 
ENDROOT
BRANCH   1   2
HETATM    2  C   UNL     1     -42.481  54.298 -52.965  1.00  0.00    -0.007 A 
HETATM    3  C   UNL     1     -41.407  53.392 -53.001  1.00  0.00     0.077 A 
HETATM    4  C   UNL     1     -40.490  53.354 -51.944  1.00  0.00     0.044 A 
HETATM    5  C   UNL     1     -40.610  54.234 -50.859  1.00  0.00    -0.059 A 
HETATM    6  C   UNL     1     -39.613  54.209 -49.737  1.00  0.00     0.048 C 
HETATM    7  C   UNL     1     -41.648  55.170 -50.851  1.00  0.00     0.007 A 
HETATM    8  C   UNL     1     -42.578  55.198 -51.891  1.00  0.00     0.012 A 
BRANCH   3   9
HETATM    9  O   UNL     1     -41.353  52.565 -54.090  1.00  0.00    -0.342 OA
BRANCH   9  10
HETATM   10  C   UNL     1     -40.109  51.903 -54.345  1.00  0.00     0.293 C 
BRANCH  10  11
HETATM   11  C   UNL     1     -40.299  50.394 -54.301  1.00  0.00     0.408 C 
HETATM   12  F   UNL     1     -39.429  49.760 -55.118  1.00  0.00    -0.169 F 
HETATM   13  F   UNL     1     -40.080  49.933 -53.046  1.00  0.00    -0.169 F 
HETATM   14  F   UNL     1     -41.550  50.033 -54.652  1.00  0.00    -0.169 F 
ENDBRANCH  10  11
ENDBRANCH   9  10
ENDBRANCH   3   9
ENDBRANCH   1   2
BRANCH   1  15
HETATM   15  N   UNL     1     -42.858  54.566 -55.358  1.00  0.00    -0.339 N 
HETATM   16  C   UNL     1     -43.112  55.736 -56.041  1.00  0.00     0.321 C 
HETATM   17  N   UNL     1     -42.466  55.736 -57.257  1.00  0.00    -0.307 N 
HETATM   18  O   UNL     1     -43.806  56.636 -55.590  1.00  0.00    -0.247 OA
HETATM   19  H   UNL     1     -41.659  55.134 -57.302  1.00  0.00     0.170 HD
HETATM   20  H   UNL     1     -42.812  53.750 -55.950  1.00  0.00     0.164 HD
BRANCH  17  21
HETATM   21  C   UNL     1     -42.662  56.660 -58.308  1.00  0.00     0.059 A 
HETATM   22  C   UNL     1     -43.455  56.303 -59.413  1.00  0.00    -0.032 A 
HETATM   23  C   UNL     1     -44.058  54.936 -59.567  1.00  0.00     0.050 C 
HETATM   24  C   UNL     1     -43.680  57.257 -60.415  1.00  0.00     0.028 A 
HETATM   25  C   UNL     1     -43.117  58.517 -60.289  1.00  0.00     0.117 A 
HETATM   26  N   UNL     1     -42.352  58.889 -59.247  1.00  0.00    -0.271 NA
HETATM   27  C   UNL     1     -42.139  57.955 -58.284  1.00  0.00     0.146 A 
ENDBRANCH  17  21
ENDBRANCH   1  15
TORSDOF 6
ENDMDL
MODEL 2
REMARK VINA RESULT:      -8.0      3.768      5.661
REMARK  6 active torsions:
REMARK  status: ('A' for Active; 'I' for Inactive)
REMARK    1  A    between atoms: C_4  and  O_5 
REMARK    2  A    between atoms: O_5  and  C_6 
REMARK    3  A    between atoms: C_6  and  C_7 
REMARK    4  A    between atoms: C_11  and  C_12 
REMARK    5  A    between atoms: C_12  and  N_13 
REMARK       I    between atoms: N_13  and  C_14 
REMARK       I    between atoms: C_14  and  N_15 
REMARK    6  A    between atoms: N_15  and  C_16 
ROOT
HETATM    1  C   UNL     1     -41.028  54.757 -51.284  1.00  0.00     0.165 C 
ENDROOT
BRANCH   1   2
HETATM    2  C   UNL     1     -40.620  53.548 -52.090  1.00  0.00    -0.007 A 
HETATM    3  C   UNL     1     -40.723  53.528 -53.492  1.00  0.00     0.077 A 
HETATM    4  C   UNL     1     -40.347  52.383 -54.203  1.00  0.00     0.044 A 
HETATM    5  C   UNL     1     -39.837  51.260 -53.536  1.00  0.00    -0.059 A 
HETATM    6  C   UNL     1     -39.412  50.041 -54.301  1.00  0.00     0.048 C 
HETATM    7  C   UNL     1     -39.686  51.302 -52.147  1.00  0.00     0.007 A 
HETATM    8  C   UNL     1     -40.079  52.433 -51.430  1.00  0.00     0.012 A 
BRANCH   3   9
HETATM    9  O   UNL     1     -41.229  54.658 -54.074  1.00  0.00    -0.342 OA
BRANCH   9  10
HETATM   10  C   UNL     1     -41.536  54.591 -55.471  1.00  0.00     0.293 C 
BRANCH  10  11
HETATM   11  C   UNL     1     -43.041  54.647 -55.682  1.00  0.00     0.408 C 
HETATM   12  F   UNL     1     -43.689  54.995 -54.549  1.00  0.00    -0.169 F 
HETATM   13  F   UNL     1     -43.347  55.574 -56.621  1.00  0.00    -0.169 F 
HETATM   14  F   UNL     1     -43.534  53.464 -56.106  1.00  0.00    -0.169 F 
ENDBRANCH  10  11
ENDBRANCH   9  10
ENDBRANCH   3   9
ENDBRANCH   1   2
BRANCH   1  15
HETATM   15  N   UNL     1     -42.395  55.138 -51.573  1.00  0.00    -0.339 N 
HETATM   16  C   UNL     1     -42.691  56.478 -51.701  1.00  0.00     0.321 C 
HETATM   17  N   UNL     1     -44.038  56.657 -51.920  1.00  0.00    -0.307 N 
HETATM   18  O   UNL     1     -41.844  57.359 -51.642  1.00  0.00    -0.247 OA
HETATM   19  H   UNL     1     -44.506  55.859 -52.321  1.00  0.00     0.170 HD
HETATM   20  H   UNL     1     -43.100  54.609 -51.083  1.00  0.00     0.164 HD
BRANCH  17  21
HETATM   21  C   UNL     1     -44.736  57.885 -51.885  1.00  0.00     0.059 A 
HETATM   22  C   UNL     1     -44.834  58.666 -53.051  1.00  0.00    -0.032 A 
HETATM   23  C   UNL     1     -44.160  58.285 -54.338  1.00  0.00     0.050 C 
HETATM   24  C   UNL     1     -45.579  59.853 -53.004  1.00  0.00     0.028 A 
HETATM   25  C   UNL     1     -46.193  60.220 -51.818  1.00  0.00     0.117 A 
HETATM   26  N   UNL     1     -46.117  59.497 -50.686  1.00  0.00    -0.271 NA
HETATM   27  C   UNL     1     -45.390  58.352 -50.743  1.00  0.00     0.146 A 
ENDBRANCH  17  21
ENDBRANCH   1  15
TORSDOF 6
ENDMDL
MODEL 3
REMARK VINA RESULT:      -8.0      3.844      5.274
REMARK  6 active torsions:
REMARK  status: ('A' for Active; 'I' for Inactive)
REMARK    1  A    between atoms: C_4  and  O_5 
REMARK    2  A    between atoms: O_5  and  C_6 
REMARK    3  A    between atoms: C_6  and  C_7 
REMARK    4  A    between atoms: C_11  and  C_12 
REMARK    5  A    between atoms: C_12  and  N_13 
REMARK       I    between atoms: N_13  and  C_14 
REMARK       I    between atoms: C_14  and  N_15 
REMARK    6  A    between atoms: N_15  and  C_16 
ROOT
HETATM    1  C   UNL     1     -40.985  53.592 -54.690  1.00  0.00     0.165 C 
ENDROOT
BRANCH   1   2
HETATM    2  C   UNL     1     -40.492  52.553 -53.712  1.00  0.00    -0.007 A 
HETATM    3  C   UNL     1     -40.316  52.850 -52.350  1.00  0.00     0.077 A 
HETATM    4  C   UNL     1     -39.844  51.863 -51.476  1.00  0.00     0.044 A 
HETATM    5  C   UNL     1     -39.573  50.567 -51.938  1.00  0.00    -0.059 A 
HETATM    6  C   UNL     1     -39.090  49.503 -50.996  1.00  0.00     0.048 C 
HETATM    7  C   UNL     1     -39.801  50.261 -53.282  1.00  0.00     0.007 A 
HETATM    8  C   UNL     1     -40.250  51.246 -54.163  1.00  0.00     0.012 A 
BRANCH   3   9
HETATM    9  O   UNL     1     -40.599  54.134 -51.972  1.00  0.00    -0.342 OA
BRANCH   9  10
HETATM   10  C   UNL     1     -41.382  54.307 -50.785  1.00  0.00     0.293 C 
BRANCH  10  11
HETATM   11  C   UNL     1     -40.614  55.134 -49.765  1.00  0.00     0.408 C 
HETATM   12  F   UNL     1     -39.346  54.690 -49.619  1.00  0.00    -0.169 F 
HETATM   13  F   UNL     1     -40.544  56.425 -50.168  1.00  0.00    -0.169 F 
HETATM   14  F   UNL     1     -41.210  55.119 -48.554  1.00  0.00    -0.169 F 
ENDBRANCH  10  11
ENDBRANCH   9  10
ENDBRANCH   3   9
ENDBRANCH   1   2
BRANCH   1  15
HETATM   15  N   UNL     1     -42.296  54.079 -54.315  1.00  0.00    -0.339 N 
HETATM   16  C   UNL     1     -42.566  55.422 -54.464  1.00  0.00     0.321 C 
HETATM   17  N   UNL     1     -43.833  55.714 -54.010  1.00  0.00    -0.307 N 
HETATM   18  O   UNL     1     -41.773  56.213 -54.954  1.00  0.00    -0.247 OA
HETATM   19  H   UNL     1     -44.468  54.931 -54.012  1.00  0.00     0.170 HD
HETATM   20  H   UNL     1     -42.678  53.676 -53.473  1.00  0.00     0.164 HD
BRANCH  17  21
HETATM   21  C   UNL     1     -44.372  57.004 -53.806  1.00  0.00     0.059 A 
HETATM   22  C   UNL     1     -44.404  57.551 -52.511  1.00  0.00    -0.032 A 
HETATM   23  C   UNL     1     -43.950  56.787 -51.300  1.00  0.00     0.050 C 
HETATM   24  C   UNL     1     -44.892  58.854 -52.344  1.00  0.00     0.028 A 
HETATM   25  C   UNL     1     -45.326  59.562 -53.453  1.00  0.00     0.117 A 
HETATM   26  N   UNL     1     -45.311  59.068 -54.704  1.00  0.00    -0.271 NA
HETATM   27  C   UNL     1     -44.839  57.803 -54.852  1.00  0.00     0.146 A 
ENDBRANCH  17  21
ENDBRANCH   1  15
TORSDOF 6
ENDMDL
MODEL 4
REMARK VINA RESULT:      -7.9      2.725      3.919
REMARK  6 active torsions:
REMARK  status: ('A' for Active; 'I' for Inactive)
REMARK    1  A    between atoms: C_4  and  O_5 
REMARK    2  A    between atoms: O_5  and  C_6 
REMARK    3  A    between atoms: C_6  and  C_7 
REMARK    4  A    between atoms: C_11  and  C_12 
REMARK    5  A    between atoms: C_12  and  N_13 
REMARK       I    between atoms: N_13  and  C_14 
REMARK       I    between atoms: C_14  and  N_15 
REMARK    6  A    between atoms: N_15  and  C_16 
ROOT
HETATM    1  C   UNL     1     -41.274  55.696 -54.251  1.00  0.00     0.165 C 
ENDROOT
BRANCH   1   2
HETATM    2  C   UNL     1     -40.805  54.359 -53.733  1.00  0.00    -0.007 A 
HETATM    3  C   UNL     1     -40.779  54.070 -52.358  1.00  0.00     0.077 A 
HETATM    4  C   UNL     1     -40.325  52.823 -51.915  1.00  0.00     0.044 A 
HETATM    5  C   UNL     1     -39.923  51.840 -52.830  1.00  0.00    -0.059 A 
HETATM    6  C   UNL     1     -39.459  50.494 -52.356  1.00  0.00     0.048 C 
HETATM    7  C   UNL     1     -40.001  52.111 -54.200  1.00  0.00     0.007 A 
HETATM    8  C   UNL     1     -40.433  53.360 -54.647  1.00  0.00     0.012 A 
BRANCH   3   9
HETATM    9  O   UNL     1     -41.185  55.077 -51.524  1.00  0.00    -0.342 OA
BRANCH   9  10
HETATM   10  C   UNL     1     -42.140  54.740 -50.512  1.00  0.00     0.293 C 
BRANCH  10  11
HETATM   11  C   UNL     1     -43.547  54.759 -51.089  1.00  0.00     0.408 C 
HETATM   12  F   UNL     1     -43.731  55.813 -51.915  1.00  0.00    -0.169 F 
HETATM   13  F   UNL     1     -43.770  53.637 -51.814  1.00  0.00    -0.169 F 
HETATM   14  F   UNL     1     -44.488  54.810 -50.123  1.00  0.00    -0.169 F 
ENDBRANCH  10  11
ENDBRANCH   9  10
ENDBRANCH   3   9
ENDBRANCH   1   2
BRANCH   1  15
HETATM   15  N   UNL     1     -41.332  55.703 -55.698  1.00  0.00    -0.339 N 
HETATM   16  C   UNL     1     -42.544  55.945 -56.307  1.00  0.00     0.321 C 
HETATM   17  N   UNL     1     -42.423  55.860 -57.676  1.00  0.00    -0.307 N 
HETATM   18  O   UNL     1     -43.562  56.215 -55.686  1.00  0.00    -0.247 OA
HETATM   19  H   UNL     1     -41.491  56.020 -58.024  1.00  0.00     0.170 HD
HETATM   20  H   UNL     1     -40.782  54.989 -56.152  1.00  0.00     0.164 HD
BRANCH  17  21
HETATM   21  C   UNL     1     -43.484  55.835 -58.610  1.00  0.00     0.059 A 
HETATM   22  C   UNL     1     -43.985  57.042 -59.129  1.00  0.00    -0.032 A 
HETATM   23  C   UNL     1     -43.486  58.385 -58.679  1.00  0.00     0.050 C 
HETATM   24  C   UNL     1     -44.999  56.987 -60.096  1.00  0.00     0.028 A 
HETATM   25  C   UNL     1     -45.475  55.753 -60.509  1.00  0.00     0.117 A 
HETATM   26  N   UNL     1     -45.019  54.582 -60.030  1.00  0.00    -0.271 NA
HETATM   27  C   UNL     1     -44.040  54.648 -59.091  1.00  0.00     0.146 A 
ENDBRANCH  17  21
ENDBRANCH   1  15
TORSDOF 6
ENDMDL
MODEL 5
REMARK VINA RESULT:      -7.7      2.630      3.289
REMARK  6 active torsions:
REMARK  status: ('A' for Active; 'I' for Inactive)
REMARK    1  A    between atoms: C_4  and  O_5 
REMARK    2  A    between atoms: O_5  and  C_6 
REMARK    3  A    between atoms: C_6  and  C_7 
REMARK    4  A    between atoms: C_11  and  C_12 
REMARK    5  A    between atoms: C_12  and  N_13 
REMARK       I    between atoms: N_13  and  C_14 
REMARK       I    between atoms: C_14  and  N_15 
REMARK    6  A    between atoms: N_15  and  C_16 
ROOT
HETATM    1  C   UNL     1     -42.650  53.916 -53.892  1.00  0.00     0.165 C 
ENDROOT
BRANCH   1   2
HETATM    2  C   UNL     1     -42.016  53.893 -52.523  1.00  0.00    -0.007 A 
HETATM    3  C   UNL     1     -40.777  53.270 -52.297  1.00  0.00     0.077 A 
HETATM    4  C   UNL     1     -40.226  53.258 -51.010  1.00  0.00     0.044 A 
HETATM    5  C   UNL     1     -40.883  53.889 -49.944  1.00  0.00    -0.059 A 
HETATM    6  C   UNL     1     -40.281  53.897 -48.569  1.00  0.00     0.048 C 
HETATM    7  C   UNL     1     -42.089  54.554 -50.183  1.00  0.00     0.007 A 
HETATM    8  C   UNL     1     -42.653  54.551 -51.460  1.00  0.00     0.012 A 
BRANCH   3   9
HETATM    9  O   UNL     1     -40.194  52.674 -53.383  1.00  0.00    -0.342 OA
BRANCH   9  10
HETATM   10  C   UNL     1     -39.373  51.528 -53.136  1.00  0.00     0.293 C 
BRANCH  10  11
HETATM   11  C   UNL     1     -39.918  50.320 -53.883  1.00  0.00     0.408 C 
HETATM   12  F   UNL     1     -39.033  49.858 -54.793  1.00  0.00    -0.169 F 
HETATM   13  F   UNL     1     -40.168  49.309 -53.017  1.00  0.00    -0.169 F 
HETATM   14  F   UNL     1     -41.073  50.601 -54.521  1.00  0.00    -0.169 F 
ENDBRANCH  10  11
ENDBRANCH   9  10
ENDBRANCH   3   9
ENDBRANCH   1   2
BRANCH   1  15
HETATM   15  N   UNL     1     -43.829  54.756 -53.905  1.00  0.00    -0.339 N 
HETATM   16  C   UNL     1     -43.796  55.924 -54.637  1.00  0.00     0.321 C 
HETATM   17  N   UNL     1     -44.975  56.619 -54.492  1.00  0.00    -0.307 N 
HETATM   18  O   UNL     1     -42.840  56.256 -55.324  1.00  0.00    -0.247 OA
HETATM   19  H   UNL     1     -45.766  56.051 -54.233  1.00  0.00     0.170 HD
HETATM   20  H   UNL     1     -44.304  54.843 -53.019  1.00  0.00     0.164 HD
BRANCH  17  21
HETATM   21  C   UNL     1     -45.222  57.946 -54.913  1.00  0.00     0.059 A 
HETATM   22  C   UNL     1     -45.021  59.011 -54.018  1.00  0.00    -0.032 A 
HETATM   23  C   UNL     1     -44.617  58.800 -52.587  1.00  0.00     0.050 C 
HETATM   24  C   UNL     1     -45.218  60.321 -54.477  1.00  0.00     0.028 A 
HETATM   25  C   UNL     1     -45.604  60.526 -55.792  1.00  0.00     0.117 A 
HETATM   26  N   UNL     1     -45.807  59.529 -56.672  1.00  0.00    -0.271 NA
HETATM   27  C   UNL     1     -45.616  58.265 -56.214  1.00  0.00     0.146 A 
ENDBRANCH  17  21
ENDBRANCH   1  15
TORSDOF 6
ENDMDL
MODEL 6
REMARK VINA RESULT:      -7.7      3.975      5.762
REMARK  6 active torsions:
REMARK  status: ('A' for Active; 'I' for Inactive)
REMARK    1  A    between atoms: C_4  and  O_5 
REMARK    2  A    between atoms: O_5  and  C_6 
REMARK    3  A    between atoms: C_6  and  C_7 
REMARK    4  A    between atoms: C_11  and  C_12 
REMARK    5  A    between atoms: C_12  and  N_13 
REMARK       I    between atoms: N_13  and  C_14 
REMARK       I    between atoms: C_14  and  N_15 
REMARK    6  A    between atoms: N_15  and  C_16 
ROOT
HETATM    1  C   UNL     1     -41.330  54.243 -50.846  1.00  0.00     0.165 C 
ENDROOT
BRANCH   1   2
HETATM    2  C   UNL     1     -40.841  53.200 -51.821  1.00  0.00    -0.007 A 
HETATM    3  C   UNL     1     -41.212  53.227 -53.177  1.00  0.00     0.077 A 
HETATM    4  C   UNL     1     -40.749  52.234 -54.047  1.00  0.00     0.044 A 
HETATM    5  C   UNL     1     -39.889  51.225 -53.591  1.00  0.00    -0.059 A 
HETATM    6  C   UNL     1     -39.374  50.174 -54.531  1.00  0.00     0.048 C 
HETATM    7  C   UNL     1     -39.479  51.230 -52.255  1.00  0.00     0.007 A 
HETATM    8  C   UNL     1     -39.955  52.205 -51.377  1.00  0.00     0.012 A 
BRANCH   3   9
HETATM    9  O   UNL     1     -42.052  54.241 -53.550  1.00  0.00    -0.342 OA
BRANCH   9  10
HETATM   10  C   UNL     1     -41.704  54.976 -54.728  1.00  0.00     0.293 C 
BRANCH  10  11
HETATM   11  C   UNL     1     -42.846  54.934 -55.731  1.00  0.00     0.408 C 
HETATM   12  F   UNL     1     -43.494  53.749 -55.698  1.00  0.00    -0.169 F 
HETATM   13  F   UNL     1     -43.755  55.897 -55.445  1.00  0.00    -0.169 F 
HETATM   14  F   UNL     1     -42.416  55.146 -56.993  1.00  0.00    -0.169 F 
ENDBRANCH  10  11
ENDBRANCH   9  10
ENDBRANCH   3   9
ENDBRANCH   1   2
BRANCH   1  15
HETATM   15  N   UNL     1     -40.814  55.553 -51.185  1.00  0.00    -0.339 N 
HETATM   16  C   UNL     1     -41.655  56.640 -51.071  1.00  0.00     0.321 C 
HETATM   17  N   UNL     1     -41.018  57.788 -51.483  1.00  0.00    -0.307 N 
HETATM   18  O   UNL     1     -42.797  56.559 -50.641  1.00  0.00    -0.247 OA
HETATM   19  H   UNL     1     -40.012  57.751 -51.429  1.00  0.00     0.170 HD
HETATM   20  H   UNL     1     -40.217  55.582 -51.997  1.00  0.00     0.164 HD
BRANCH  17  21
HETATM   21  C   UNL     1     -41.623  59.045 -51.709  1.00  0.00     0.059 A 
HETATM   22  C   UNL     1     -41.941  59.442 -53.020  1.00  0.00    -0.032 A 
HETATM   23  C   UNL     1     -41.597  58.609 -54.222  1.00  0.00     0.050 C 
HETATM   24  C   UNL     1     -42.592  60.669 -53.212  1.00  0.00     0.028 A 
HETATM   25  C   UNL     1     -42.900  61.451 -52.111  1.00  0.00     0.117 A 
HETATM   26  N   UNL     1     -42.609  61.101 -50.845  1.00  0.00    -0.271 NA
HETATM   27  C   UNL     1     -41.975  59.913 -50.672  1.00  0.00     0.146 A 
ENDBRANCH  17  21
ENDBRANCH   1  15
TORSDOF 6
ENDMDL
MODEL 7
REMARK VINA RESULT:      -7.6      1.777      2.171
REMARK  6 active torsions:
REMARK  status: ('A' for Active; 'I' for Inactive)
REMARK    1  A    between atoms: C_4  and  O_5 
REMARK    2  A    between atoms: O_5  and  C_6 
REMARK    3  A    between atoms: C_6  and  C_7 
REMARK    4  A    between atoms: C_11  and  C_12 
REMARK    5  A    between atoms: C_12  and  N_13 
REMARK       I    between atoms: N_13  and  C_14 
REMARK       I    between atoms: C_14  and  N_15 
REMARK    6  A    between atoms: N_15  and  C_16 
ROOT
HETATM    1  C   UNL     1     -40.891  54.533 -55.156  1.00  0.00     0.165 C 
ENDROOT
BRANCH   1   2
HETATM    2  C   UNL     1     -41.011  54.553 -53.651  1.00  0.00    -0.007 A 
HETATM    3  C   UNL     1     -40.859  53.384 -52.885  1.00  0.00     0.077 A 
HETATM    4  C   UNL     1     -40.990  53.441 -51.493  1.00  0.00     0.044 A 
HETATM    5  C   UNL     1     -41.241  54.659 -50.846  1.00  0.00    -0.059 A 
HETATM    6  C   UNL     1     -41.358  54.723 -49.351  1.00  0.00     0.048 C 
HETATM    7  C   UNL     1     -41.338  55.828 -51.605  1.00  0.00     0.007 A 
HETATM    8  C   UNL     1     -41.230  55.775 -52.996  1.00  0.00     0.012 A 
BRANCH   3   9
HETATM    9  O   UNL     1     -40.616  52.233 -53.585  1.00  0.00    -0.342 OA
BRANCH   9  10
HETATM   10  C   UNL     1     -39.588  51.371 -53.085  1.00  0.00     0.293 C 
BRANCH  10  11
HETATM   11  C   UNL     1     -39.719  49.986 -53.699  1.00  0.00     0.408 C 
HETATM   12  F   UNL     1     -39.712  49.020 -52.754  1.00  0.00    -0.169 F 
HETATM   13  F   UNL     1     -40.890  49.882 -54.372  1.00  0.00    -0.169 F 
HETATM   14  F   UNL     1     -38.725  49.728 -54.575  1.00  0.00    -0.169 F 
ENDBRANCH  10  11
ENDBRANCH   9  10
ENDBRANCH   3   9
ENDBRANCH   1   2
BRANCH   1  15
HETATM   15  N   UNL     1     -41.413  55.753 -55.735  1.00  0.00    -0.339 N 
HETATM   16  C   UNL     1     -42.581  55.688 -56.465  1.00  0.00     0.321 C 
HETATM   17  N   UNL     1     -42.897  56.924 -56.982  1.00  0.00    -0.307 N 
HETATM   18  O   UNL     1     -43.230  54.660 -56.596  1.00  0.00    -0.247 OA
HETATM   19  H   UNL     1     -42.503  57.702 -56.477  1.00  0.00     0.170 HD
HETATM   20  H   UNL     1     -40.719  56.371 -56.129  1.00  0.00     0.164 HD
BRANCH  17  21
HETATM   21  C   UNL     1     -43.892  57.197 -57.948  1.00  0.00     0.059 A 
HETATM   22  C   UNL     1     -45.070  57.864 -57.567  1.00  0.00    -0.032 A 
HETATM   23  C   UNL     1     -45.359  58.246 -56.144  1.00  0.00     0.050 C 
HETATM   24  C   UNL     1     -46.016  58.173 -58.555  1.00  0.00     0.028 A 
HETATM   25  C   UNL     1     -45.765  57.813 -59.869  1.00  0.00     0.117 A 
HETATM   26  N   UNL     1     -44.650  57.172 -60.265  1.00  0.00    -0.271 NA
HETATM   27  C   UNL     1     -43.743  56.875 -59.299  1.00  0.00     0.146 A 
ENDBRANCH  17  21
ENDBRANCH   1  15
TORSDOF 6
ENDMDL
MODEL 8
REMARK VINA RESULT:      -7.5      2.744      3.713
REMARK  6 active torsions:
REMARK  status: ('A' for Active; 'I' for Inactive)
REMARK    1  A    between atoms: C_4  and  O_5 
REMARK    2  A    between atoms: O_5  and  C_6 
REMARK    3  A    between atoms: C_6  and  C_7 
REMARK    4  A    between atoms: C_11  and  C_12 
REMARK    5  A    between atoms: C_12  and  N_13 
REMARK       I    between atoms: N_13  and  C_14 
REMARK       I    between atoms: C_14  and  N_15 
REMARK    6  A    between atoms: N_15  and  C_16 
ROOT
HETATM    1  C   UNL     1     -41.313  55.927 -54.738  1.00  0.00     0.165 C 
ENDROOT
BRANCH   1   2
HETATM    2  C   UNL     1     -40.873  54.634 -54.096  1.00  0.00    -0.007 A 
HETATM    3  C   UNL     1     -41.015  54.413 -52.715  1.00  0.00     0.077 A 
HETATM    4  C   UNL     1     -40.583  53.206 -52.154  1.00  0.00     0.044 A 
HETATM    5  C   UNL     1     -40.036  52.196 -52.958  1.00  0.00    -0.059 A 
HETATM    6  C   UNL     1     -39.595  50.893 -52.359  1.00  0.00     0.048 C 
HETATM    7  C   UNL     1     -39.945  52.398 -54.338  1.00  0.00     0.007 A 
HETATM    8  C   UNL     1     -40.355  53.608 -54.901  1.00  0.00     0.012 A 
BRANCH   3   9
HETATM    9  O   UNL     1     -41.556  55.442 -51.993  1.00  0.00    -0.342 OA
BRANCH   9  10
HETATM   10  C   UNL     1     -42.984  55.545 -51.974  1.00  0.00     0.293 C 
BRANCH  10  11
HETATM   11  C   UNL     1     -43.556  54.713 -50.836  1.00  0.00     0.408 C 
HETATM   12  F   UNL     1     -43.891  53.471 -51.247  1.00  0.00    -0.169 F 
HETATM   13  F   UNL     1     -42.638  54.577 -49.850  1.00  0.00    -0.169 F 
HETATM   14  F   UNL     1     -44.650  55.288 -50.292  1.00  0.00    -0.169 F 
ENDBRANCH  10  11
ENDBRANCH   9  10
ENDBRANCH   3   9
ENDBRANCH   1   2
BRANCH   1  15
HETATM   15  N   UNL     1     -41.638  55.729 -56.135  1.00  0.00    -0.339 N 
HETATM   16  C   UNL     1     -42.626  56.509 -56.698  1.00  0.00     0.321 C 
HETATM   17  N   UNL     1     -42.838  56.149 -58.009  1.00  0.00    -0.307 N 
HETATM   18  O   UNL     1     -43.199  57.402 -56.090  1.00  0.00    -0.247 OA
HETATM   19  H   UNL     1     -42.053  55.697 -58.451  1.00  0.00     0.170 HD
HETATM   20  H   UNL     1     -41.655  54.767 -56.439  1.00  0.00     0.164 HD
BRANCH  17  21
HETATM   21  C   UNL     1     -43.906  56.575 -58.831  1.00  0.00     0.059 A 
HETATM   22  C   UNL     1     -44.689  55.622 -59.507  1.00  0.00    -0.032 A 
HETATM   23  C   UNL     1     -44.398  54.150 -59.453  1.00  0.00     0.050 C 
HETATM   24  C   UNL     1     -45.778  56.067 -60.271  1.00  0.00     0.028 A 
HETATM   25  C   UNL     1     -46.047  57.425 -60.338  1.00  0.00     0.117 A 
HETATM   26  N   UNL     1     -45.317  58.361 -59.706  1.00  0.00    -0.271 NA
HETATM   27  C   UNL     1     -44.263  57.917 -58.972  1.00  0.00     0.146 A 
ENDBRANCH  17  21
ENDBRANCH   1  15
TORSDOF 6
ENDMDL
MODEL 9
REMARK VINA RESULT:      -7.4      2.652      3.684
REMARK  6 active torsions:
REMARK  status: ('A' for Active; 'I' for Inactive)
REMARK    1  A    between atoms: C_4  and  O_5 
REMARK    2  A    between atoms: O_5  and  C_6 
REMARK    3  A    between atoms: C_6  and  C_7 
REMARK    4  A    between atoms: C_11  and  C_12 
REMARK    5  A    between atoms: C_12  and  N_13 
REMARK       I    between atoms: N_13  and  C_14 
REMARK       I    between atoms: C_14  and  N_15 
REMARK    6  A    between atoms: N_15  and  C_16 
ROOT
HETATM    1  C   UNL     1     -43.028  55.612 -53.603  1.00  0.00     0.165 C 
ENDROOT
BRANCH   1   2
HETATM    2  C   UNL     1     -42.074  54.444 -53.537  1.00  0.00    -0.007 A 
HETATM    3  C   UNL     1     -41.265  54.218 -52.410  1.00  0.00     0.077 A 
HETATM    4  C   UNL     1     -40.384  53.131 -52.391  1.00  0.00     0.044 A 
HETATM    5  C   UNL     1     -40.319  52.242 -53.474  1.00  0.00    -0.059 A 
HETATM    6  C   UNL     1     -39.390  51.063 -53.444  1.00  0.00     0.048 C 
HETATM    7  C   UNL     1     -41.163  52.439 -54.570  1.00  0.00     0.007 A 
HETATM    8  C   UNL     1     -42.028  53.534 -54.604  1.00  0.00     0.012 A 
BRANCH   3   9
HETATM    9  O   UNL     1     -41.382  55.125 -51.392  1.00  0.00    -0.342 OA
BRANCH   9  10
HETATM   10  C   UNL     1     -41.908  54.647 -50.149  1.00  0.00     0.293 C 
BRANCH  10  11
HETATM   11  C   UNL     1     -40.779  54.407 -49.159  1.00  0.00     0.408 C 
HETATM   12  F   UNL     1     -39.605  54.897 -49.614  1.00  0.00    -0.169 F 
HETATM   13  F   UNL     1     -41.047  55.029 -47.986  1.00  0.00    -0.169 F 
HETATM   14  F   UNL     1     -40.615  53.095 -48.891  1.00  0.00    -0.169 F 
ENDBRANCH  10  11
ENDBRANCH   9  10
ENDBRANCH   3   9
ENDBRANCH   1   2
BRANCH   1  15
HETATM   15  N   UNL     1     -43.704  55.660 -54.882  1.00  0.00    -0.339 N 
HETATM   16  C   UNL     1     -43.303  56.603 -55.804  1.00  0.00     0.321 C 
HETATM   17  N   UNL     1     -44.086  56.539 -56.934  1.00  0.00    -0.307 N 
HETATM   18  O   UNL     1     -42.363  57.363 -55.617  1.00  0.00    -0.247 OA
HETATM   19  H   UNL     1     -44.528  55.646 -57.086  1.00  0.00     0.170 HD
HETATM   20  H   UNL     1     -44.703  55.525 -54.844  1.00  0.00     0.164 HD
BRANCH  17  21
HETATM   21  C   UNL     1     -44.112  57.479 -57.989  1.00  0.00     0.059 A 
HETATM   22  C   UNL     1     -43.580  57.135 -59.244  1.00  0.00    -0.032 A 
HETATM   23  C   UNL     1     -42.908  55.816 -59.504  1.00  0.00     0.050 C 
HETATM   24  C   UNL     1     -43.669  58.065 -60.290  1.00  0.00     0.028 A 
HETATM   25  C   UNL     1     -44.274  59.289 -60.057  1.00  0.00     0.117 A 
HETATM   26  N   UNL     1     -44.791  59.649 -58.868  1.00  0.00    -0.271 NA
HETATM   27  C   UNL     1     -44.695  58.741 -57.863  1.00  0.00     0.146 A 
ENDBRANCH  17  21
ENDBRANCH   1  15
TORSDOF 6
ENDMDL
MODEL 10
REMARK VINA RESULT:      -7.3      3.274      4.145
REMARK  6 active torsions:
REMARK  status: ('A' for Active; 'I' for Inactive)
REMARK    1  A    between atoms: C_4  and  O_5 
REMARK    2  A    between atoms: O_5  and  C_6 
REMARK    3  A    between atoms: C_6  and  C_7 
REMARK    4  A    between atoms: C_11  and  C_12 
REMARK    5  A    between atoms: C_12  and  N_13 
REMARK       I    between atoms: N_13  and  C_14 
REMARK       I    between atoms: C_14  and  N_15 
REMARK    6  A    between atoms: N_15  and  C_16 
ROOT
HETATM    1  C   UNL     1     -43.257  55.302 -53.585  1.00  0.00     0.165 C 
ENDROOT
BRANCH   1   2
HETATM    2  C   UNL     1     -42.202  54.297 -53.192  1.00  0.00    -0.007 A 
HETATM    3  C   UNL     1     -41.766  54.171 -51.862  1.00  0.00     0.077 A 
HETATM    4  C   UNL     1     -40.775  53.236 -51.538  1.00  0.00     0.044 A 
HETATM    5  C   UNL     1     -40.232  52.397 -52.521  1.00  0.00    -0.059 A 
HETATM    6  C   UNL     1     -39.187  51.379 -52.170  1.00  0.00     0.048 C 
HETATM    7  C   UNL     1     -40.706  52.488 -53.833  1.00  0.00     0.007 A 
HETATM    8  C   UNL     1     -41.678  53.433 -54.167  1.00  0.00     0.012 A 
BRANCH   3   9
HETATM    9  O   UNL     1     -42.340  55.021 -50.956  1.00  0.00    -0.342 OA
BRANCH   9  10
HETATM   10  C   UNL     1     -41.462  55.886 -50.226  1.00  0.00     0.293 C 
BRANCH  10  11
HETATM   11  C   UNL     1     -41.500  57.289 -50.811  1.00  0.00     0.408 C 
HETATM   12  F   UNL     1     -40.831  57.357 -51.983  1.00  0.00    -0.169 F 
HETATM   13  F   UNL     1     -42.780  57.659 -51.056  1.00  0.00    -0.169 F 
HETATM   14  F   UNL     1     -40.971  58.200 -49.968  1.00  0.00    -0.169 F 
ENDBRANCH  10  11
ENDBRANCH   9  10
ENDBRANCH   3   9
ENDBRANCH   1   2
BRANCH   1  15
HETATM   15  N   UNL     1     -43.667  55.113 -54.961  1.00  0.00    -0.339 N 
HETATM   16  C   UNL     1     -43.128  55.938 -55.927  1.00  0.00     0.321 C 
HETATM   17  N   UNL     1     -43.668  55.653 -57.160  1.00  0.00    -0.307 N 
HETATM   18  O   UNL     1     -42.276  56.781 -55.686  1.00  0.00    -0.247 OA
HETATM   19  H   UNL     1     -44.035  54.719 -57.252  1.00  0.00     0.170 HD
HETATM   20  H   UNL     1     -44.647  54.916 -55.093  1.00  0.00     0.164 HD
BRANCH  17  21
HETATM   21  C   UNL     1     -43.521  56.425 -58.336  1.00  0.00     0.059 A 
HETATM   22  C   UNL     1     -44.276  57.600 -58.499  1.00  0.00    -0.032 A 
HETATM   23  C   UNL     1     -45.303  58.047 -57.498  1.00  0.00     0.050 C 
HETATM   24  C   UNL     1     -44.070  58.376 -59.648  1.00  0.00     0.028 A 
HETATM   25  C   UNL     1     -43.135  57.965 -60.584  1.00  0.00     0.117 A 
HETATM   26  N   UNL     1     -42.399  56.847 -60.459  1.00  0.00    -0.271 NA
HETATM   27  C   UNL     1     -42.610  56.101 -59.343  1.00  0.00     0.146 A 
ENDBRANCH  17  21
ENDBRANCH   1  15
TORSDOF 6
ENDMDL
