MODEL 1
REMARK VINA RESULT:      -9.3      0.000      0.000
REMARK  6 active torsions:
REMARK  status: ('A' for Active; 'I' for Inactive)
REMARK    1  A    between atoms: O_2  and  C_3 
REMARK    2  A    between atoms: C_5  and  N_6 
REMARK    3  A    between atoms: C_7  and  O_8 
REMARK    4  A    between atoms: C_7  and  C_9 
REMARK       I    between atoms: C_9  and  N_10 
REMARK    5  A    between atoms: N_10  and  C_11 
REMARK    6  A    between atoms: C_11  and  C_12 
ROOT
HETATM    1  N   UNL     1     -42.624  56.723 -54.232  1.00  0.00    -0.254 N 
HETATM    2  C   UNL     1     -42.847  55.443 -53.538  1.00  0.00     0.256 C 
HETATM    3  C   UNL     1     -42.449  55.482 -52.075  1.00  0.00     0.034 A 
HETATM    4  C   UNL     1     -41.475  56.391 -51.686  1.00  0.00     0.048 A 
HETATM    5  N   UNL     1     -40.996  57.290 -52.627  1.00  0.00    -0.308 N 
HETATM    6  C   UNL     1     -41.552  57.522 -53.853  1.00  0.00     0.330 C 
HETATM    7  O   UNL     1     -41.036  58.409 -54.532  1.00  0.00    -0.246 OA
HETATM    8  C   UNL     1     -42.928  54.564 -51.125  1.00  0.00     0.015 A 
HETATM    9  C   UNL     1     -42.439  54.577 -49.817  1.00  0.00     0.001 A 
HETATM   10  C   UNL     1     -41.455  55.493 -49.450  1.00  0.00     0.002 A 
HETATM   11  C   UNL     1     -40.967  56.402 -50.387  1.00  0.00     0.030 A 
HETATM   12  H   UNL     1     -40.275  57.954 -52.370  1.00  0.00     0.170 HD
ENDROOT
BRANCH   2  13
HETATM   13  O   UNL     1     -44.248  55.145 -53.539  1.00  0.00    -0.359 OA
HETATM   14  H   UNL     1     -44.525  55.233 -52.607  1.00  0.00     0.213 HD
ENDBRANCH   2  13
BRANCH   2  15
HETATM   15  C   UNL     1     -42.031  54.281 -54.243  1.00  0.00     0.279 C 
HETATM   16  N   UNL     1     -40.786  53.988 -53.734  1.00  0.00    -0.352 N 
HETATM   17  H   UNL     1     -40.395  54.571 -53.003  1.00  0.00     0.162 HD
HETATM   18  O   UNL     1     -42.540  53.633 -55.164  1.00  0.00    -0.268 OA
BRANCH  16  19
HETATM   19  C   UNL     1     -40.019  52.855 -54.189  1.00  0.00     0.163 C 
BRANCH  19  20
HETATM   20  C   UNL     1     -39.893  51.819 -53.103  1.00  0.00    -0.019 A 
HETATM   21  C   UNL     1     -39.728  50.452 -53.383  1.00  0.00     0.042 A 
HETATM   22 CL   UNL     1     -39.654  49.854 -55.002  1.00  0.00    -0.084 Cl
HETATM   23  C   UNL     1     -39.627  49.520 -52.345  1.00  0.00     0.024 A 
HETATM   24  C   UNL     1     -39.693  49.938 -51.017  1.00  0.00     0.002 A 
HETATM   25  C   UNL     1     -39.864  51.288 -50.724  1.00  0.00     0.001 A 
HETATM   26  C   UNL     1     -39.967  52.221 -51.757  1.00  0.00     0.010 A 
ENDBRANCH  19  20
ENDBRANCH  16  19
ENDBRANCH   2  15
BRANCH   1  27
HETATM   27  C   UNL     1     -43.389  57.069 -55.410  1.00  0.00     0.045 A 
HETATM   28  C   UNL     1     -42.974  56.621 -56.677  1.00  0.00     0.066 A 
HETATM   29  C   UNL     1     -43.656  56.966 -57.853  1.00  0.00     0.070 A 
HETATM   30  C   UNL     1     -44.784  57.774 -57.774  1.00  0.00     0.037 A 
HETATM   31  C   UNL     1     -45.219  58.230 -56.531  1.00  0.00     0.005 A 
HETATM   32  C   UNL     1     -44.528  57.884 -55.364  1.00  0.00     0.030 A 
BRANCH  29  33
HETATM   33  O   UNL     1     -43.107  56.461 -59.001  1.00  0.00    -0.356 OA
HETATM   34  C   UNL     1     -43.780  55.367 -59.611  1.00  0.00     0.210 C 
ENDBRANCH  29  33
ENDBRANCH   1  27
TORSDOF 6
ENDMDL
MODEL 2
REMARK VINA RESULT:      -8.8      1.616      2.042
REMARK  6 active torsions:
REMARK  status: ('A' for Active; 'I' for Inactive)
REMARK    1  A    between atoms: O_2  and  C_3 
REMARK    2  A    between atoms: C_5  and  N_6 
REMARK    3  A    between atoms: C_7  and  O_8 
REMARK    4  A    between atoms: C_7  and  C_9 
REMARK       I    between atoms: C_9  and  N_10 
REMARK    5  A    between atoms: N_10  and  C_11 
REMARK    6  A    between atoms: C_11  and  C_12 
ROOT
HETATM    1  N   UNL     1     -43.439  57.400 -55.937  1.00  0.00    -0.254 N 
HETATM    2  C   UNL     1     -43.608  56.410 -54.860  1.00  0.00     0.256 C 
HETATM    3  C   UNL     1     -43.142  56.916 -53.507  1.00  0.00     0.034 A 
HETATM    4  C   UNL     1     -42.166  57.902 -53.479  1.00  0.00     0.048 A 
HETATM    5  N   UNL     1     -41.747  58.453 -54.681  1.00  0.00    -0.308 N 
HETATM    6  C   UNL     1     -42.364  58.278 -55.887  1.00  0.00     0.330 C 
HETATM    7  O   UNL     1     -41.895  58.902 -56.839  1.00  0.00    -0.246 OA
HETATM    8  C   UNL     1     -43.561  56.351 -52.291  1.00  0.00     0.015 A 
HETATM    9  C   UNL     1     -43.011  56.782 -51.082  1.00  0.00     0.001 A 
HETATM   10  C   UNL     1     -42.027  57.769 -51.077  1.00  0.00     0.002 A 
HETATM   11  C   UNL     1     -41.598  58.330 -52.279  1.00  0.00     0.030 A 
HETATM   12  H   UNL     1     -41.026  59.164 -54.686  1.00  0.00     0.170 HD
ENDROOT
BRANCH   2  13
HETATM   13  O   UNL     1     -45.003  56.126 -54.695  1.00  0.00    -0.359 OA
HETATM   14  H   UNL     1     -45.081  55.162 -54.825  1.00  0.00     0.213 HD
ENDBRANCH   2  13
BRANCH   2  15
HETATM   15  C   UNL     1     -42.808  55.084 -55.195  1.00  0.00     0.279 C 
HETATM   16  N   UNL     1     -41.503  55.010 -54.761  1.00  0.00    -0.352 N 
HETATM   17  H   UNL     1     -41.072  55.820 -54.333  1.00  0.00     0.162 HD
HETATM   18  O   UNL     1     -43.372  54.142 -55.762  1.00  0.00    -0.268 OA
BRANCH  16  19
HETATM   19  C   UNL     1     -40.727  53.798 -54.869  1.00  0.00     0.163 C 
BRANCH  19  20
HETATM   20  C   UNL     1     -40.430  53.226 -53.508  1.00  0.00    -0.019 A 
HETATM   21  C   UNL     1     -40.016  51.896 -53.326  1.00  0.00     0.042 A 
HETATM   22 CL   UNL     1     -39.813  50.812 -54.657  1.00  0.00    -0.084 Cl
HETATM   23  C   UNL     1     -39.762  51.398 -52.044  1.00  0.00     0.024 A 
HETATM   24  C   UNL     1     -39.921  52.219 -50.928  1.00  0.00     0.002 A 
HETATM   25  C   UNL     1     -40.338  53.536 -51.092  1.00  0.00     0.001 A 
HETATM   26  C   UNL     1     -40.594  54.036 -52.371  1.00  0.00     0.010 A 
ENDBRANCH  19  20
ENDBRANCH  16  19
ENDBRANCH   2  15
BRANCH   1  27
HETATM   27  C   UNL     1     -44.265  57.350 -57.124  1.00  0.00     0.045 A 
HETATM   28  C   UNL     1     -43.860  56.583 -58.232  1.00  0.00     0.066 A 
HETATM   29  C   UNL     1     -44.602  56.538 -59.420  1.00  0.00     0.070 A 
HETATM   30  C   UNL     1     -45.782  57.268 -59.517  1.00  0.00     0.037 A 
HETATM   31  C   UNL     1     -46.207  58.033 -58.433  1.00  0.00     0.005 A 
HETATM   32  C   UNL     1     -45.456  58.077 -57.253  1.00  0.00     0.030 A 
BRANCH  29  33
HETATM   33  O   UNL     1     -44.057  55.758 -60.405  1.00  0.00    -0.356 OA
HETATM   34  C   UNL     1     -44.952  54.950 -61.158  1.00  0.00     0.210 C 
ENDBRANCH  29  33
ENDBRANCH   1  27
TORSDOF 6
ENDMDL
MODEL 3
REMARK VINA RESULT:      -8.6      2.558      6.735
REMARK  6 active torsions:
REMARK  status: ('A' for Active; 'I' for Inactive)
REMARK    1  A    between atoms: O_2  and  C_3 
REMARK    2  A    between atoms: C_5  and  N_6 
REMARK    3  A    between atoms: C_7  and  O_8 
REMARK    4  A    between atoms: C_7  and  C_9 
REMARK       I    between atoms: C_9  and  N_10 
REMARK    5  A    between atoms: N_10  and  C_11 
REMARK    6  A    between atoms: C_11  and  C_12 
ROOT
HETATM    1  N   UNL     1     -42.459  55.202 -52.154  1.00  0.00    -0.254 N 
HETATM    2  C   UNL     1     -42.433  56.265 -53.172  1.00  0.00     0.256 C 
HETATM    3  C   UNL     1     -43.110  57.544 -52.715  1.00  0.00     0.034 A 
HETATM    4  C   UNL     1     -44.100  57.450 -51.748  1.00  0.00     0.048 A 
HETATM    5  N   UNL     1     -44.345  56.213 -51.169  1.00  0.00    -0.308 N 
HETATM    6  C   UNL     1     -43.548  55.110 -51.296  1.00  0.00     0.330 C 
HETATM    7  O   UNL     1     -43.881  54.115 -50.654  1.00  0.00    -0.246 OA
HETATM    8  C   UNL     1     -42.868  58.794 -53.309  1.00  0.00     0.015 A 
HETATM    9  C   UNL     1     -43.604  59.916 -52.922  1.00  0.00     0.001 A 
HETATM   10  C   UNL     1     -44.599  59.798 -51.954  1.00  0.00     0.002 A 
HETATM   11  C   UNL     1     -44.853  58.560 -51.366  1.00  0.00     0.030 A 
HETATM   12  H   UNL     1     -45.072  56.117 -50.470  1.00  0.00     0.170 HD
ENDROOT
BRANCH   2  13
HETATM   13  O   UNL     1     -41.074  56.633 -53.436  1.00  0.00    -0.359 OA
HETATM   14  H   UNL     1     -40.716  56.910 -52.572  1.00  0.00     0.213 HD
ENDBRANCH   2  13
BRANCH   2  15
HETATM   15  C   UNL     1     -43.145  55.777 -54.502  1.00  0.00     0.279 C 
HETATM   16  N   UNL     1     -42.410  55.832 -55.665  1.00  0.00    -0.352 N 
HETATM   17  H   UNL     1     -41.492  56.259 -55.657  1.00  0.00     0.162 HD
HETATM   18  O   UNL     1     -44.287  55.308 -54.460  1.00  0.00    -0.268 OA
BRANCH  16  19
HETATM   19  C   UNL     1     -42.894  55.273 -56.904  1.00  0.00     0.163 C 
BRANCH  19  20
HETATM   20  C   UNL     1     -42.930  56.318 -57.988  1.00  0.00    -0.019 A 
HETATM   21  C   UNL     1     -43.519  56.080 -59.242  1.00  0.00     0.042 A 
HETATM   22 CL   UNL     1     -44.254  54.566 -59.634  1.00  0.00    -0.084 Cl
HETATM   23  C   UNL     1     -43.520  57.072 -60.227  1.00  0.00     0.024 A 
HETATM   24  C   UNL     1     -42.930  58.311 -59.977  1.00  0.00     0.002 A 
HETATM   25  C   UNL     1     -42.335  58.558 -58.743  1.00  0.00     0.001 A 
HETATM   26  C   UNL     1     -42.331  57.569 -57.757  1.00  0.00     0.010 A 
ENDBRANCH  19  20
ENDBRANCH  16  19
ENDBRANCH   2  15
BRANCH   1  27
HETATM   27  C   UNL     1     -41.462  54.153 -52.154  1.00  0.00     0.045 A 
HETATM   28  C   UNL     1     -41.364  53.274 -53.248  1.00  0.00     0.066 A 
HETATM   29  C   UNL     1     -40.445  52.216 -53.277  1.00  0.00     0.070 A 
HETATM   30  C   UNL     1     -39.595  52.021 -52.194  1.00  0.00     0.037 A 
HETATM   31  C   UNL     1     -39.669  52.879 -51.099  1.00  0.00     0.005 A 
HETATM   32  C   UNL     1     -40.594  53.929 -51.077  1.00  0.00     0.030 A 
BRANCH  29  33
HETATM   33  O   UNL     1     -40.494  51.447 -54.409  1.00  0.00    -0.356 OA
HETATM   34  C   UNL     1     -39.880  50.167 -54.346  1.00  0.00     0.210 C 
ENDBRANCH  29  33
ENDBRANCH   1  27
TORSDOF 6
ENDMDL
MODEL 4
REMARK VINA RESULT:      -8.2      3.229      6.920
REMARK  6 active torsions:
REMARK  status: ('A' for Active; 'I' for Inactive)
REMARK    1  A    between atoms: O_2  and  C_3 
REMARK    2  A    between atoms: C_5  and  N_6 
REMARK    3  A    between atoms: C_7  and  O_8 
REMARK    4  A    between atoms: C_7  and  C_9 
REMARK       I    between atoms: C_9  and  N_10 
REMARK    5  A    between atoms: N_10  and  C_11 
REMARK    6  A    between atoms: C_11  and  C_12 
ROOT
HETATM    1  N   UNL     1     -42.560  56.444 -53.313  1.00  0.00    -0.254 N 
HETATM    2  C   UNL     1     -42.023  57.743 -52.875  1.00  0.00     0.256 C 
HETATM    3  C   UNL     1     -43.000  58.535 -52.025  1.00  0.00     0.034 A 
HETATM    4  C   UNL     1     -44.356  58.297 -52.196  1.00  0.00     0.048 A 
HETATM    5  N   UNL     1     -44.747  57.276 -53.050  1.00  0.00    -0.308 N 
HETATM    6  C   UNL     1     -43.919  56.324 -53.573  1.00  0.00     0.330 C 
HETATM    7  O   UNL     1     -44.450  55.449 -54.256  1.00  0.00    -0.246 OA
HETATM    8  C   UNL     1     -42.602  59.575 -51.168  1.00  0.00     0.015 A 
HETATM    9  C   UNL     1     -43.556  60.344 -50.498  1.00  0.00     0.001 A 
HETATM   10  C   UNL     1     -44.913  60.093 -50.690  1.00  0.00     0.002 A 
HETATM   11  C   UNL     1     -45.318  59.069 -51.545  1.00  0.00     0.030 A 
HETATM   12  H   UNL     1     -45.732  57.093 -53.201  1.00  0.00     0.170 HD
ENDROOT
BRANCH   2  13
HETATM   13  O   UNL     1     -40.885  57.524 -52.034  1.00  0.00    -0.359 OA
HETATM   14  H   UNL     1     -40.163  58.033 -52.449  1.00  0.00     0.213 HD
ENDBRANCH   2  13
BRANCH   2  15
HETATM   15  C   UNL     1     -41.625  58.630 -54.127  1.00  0.00     0.279 C 
HETATM   16  N   UNL     1     -42.346  58.442 -55.286  1.00  0.00    -0.352 N 
HETATM   17  H   UNL     1     -43.030  57.697 -55.334  1.00  0.00     0.162 HD
HETATM   18  O   UNL     1     -40.748  59.494 -54.025  1.00  0.00    -0.268 OA
BRANCH  16  19
HETATM   19  C   UNL     1     -42.180  59.295 -56.437  1.00  0.00     0.163 C 
BRANCH  19  20
HETATM   20  C   UNL     1     -42.291  58.502 -57.714  1.00  0.00    -0.019 A 
HETATM   21  C   UNL     1     -42.056  59.073 -58.976  1.00  0.00     0.042 A 
HETATM   22 CL   UNL     1     -41.617  60.734 -59.159  1.00  0.00    -0.084 Cl
HETATM   23  C   UNL     1     -42.181  58.307 -60.139  1.00  0.00     0.024 A 
HETATM   24  C   UNL     1     -42.547  56.963 -60.058  1.00  0.00     0.002 A 
HETATM   25  C   UNL     1     -42.791  56.386 -58.815  1.00  0.00     0.001 A 
HETATM   26  C   UNL     1     -42.668  57.149 -57.652  1.00  0.00     0.010 A 
ENDBRANCH  19  20
ENDBRANCH  16  19
ENDBRANCH   2  15
BRANCH   1  27
HETATM   27  C   UNL     1     -41.671  55.351 -53.648  1.00  0.00     0.045 A 
HETATM   28  C   UNL     1     -41.409  54.343 -52.703  1.00  0.00     0.066 A 
HETATM   29  C   UNL     1     -40.522  53.288 -52.963  1.00  0.00     0.070 A 
HETATM   30  C   UNL     1     -39.878  53.225 -54.194  1.00  0.00     0.037 A 
HETATM   31  C   UNL     1     -40.123  54.211 -55.149  1.00  0.00     0.005 A 
HETATM   32  C   UNL     1     -41.006  55.262 -54.878  1.00  0.00     0.030 A 
BRANCH  29  33
HETATM   33  O   UNL     1     -40.367  52.403 -51.929  1.00  0.00    -0.356 OA
HETATM   34  C   UNL     1     -39.432  51.350 -52.116  1.00  0.00     0.210 C 
ENDBRANCH  29  33
ENDBRANCH   1  27
TORSDOF 6
ENDMDL
MODEL 5
REMARK VINA RESULT:      -8.2      3.117      7.005
REMARK  6 active torsions:
REMARK  status: ('A' for Active; 'I' for Inactive)
REMARK    1  A    between atoms: O_2  and  C_3 
REMARK    2  A    between atoms: C_5  and  N_6 
REMARK    3  A    between atoms: C_7  and  O_8 
REMARK    4  A    between atoms: C_7  and  C_9 
REMARK       I    between atoms: C_9  and  N_10 
REMARK    5  A    between atoms: N_10  and  C_11 
REMARK    6  A    between atoms: C_11  and  C_12 
ROOT
HETATM    1  N   UNL     1     -43.311  57.755 -53.320  1.00  0.00    -0.254 N 
HETATM    2  C   UNL     1     -43.635  56.764 -54.360  1.00  0.00     0.256 C 
HETATM    3  C   UNL     1     -42.738  55.541 -54.317  1.00  0.00     0.034 A 
HETATM    4  C   UNL     1     -41.467  55.680 -53.777  1.00  0.00     0.048 A 
HETATM    5  N   UNL     1     -41.120  56.896 -53.206  1.00  0.00    -0.308 N 
HETATM    6  C   UNL     1     -41.990  57.910 -52.919  1.00  0.00     0.330 C 
HETATM    7  O   UNL     1     -41.519  58.891 -52.345  1.00  0.00    -0.246 OA
HETATM    8  C   UNL     1     -43.087  54.313 -54.904  1.00  0.00     0.015 A 
HETATM    9  C   UNL     1     -42.175  53.256 -54.932  1.00  0.00     0.001 A 
HETATM   10  C   UNL     1     -40.901  53.420 -54.391  1.00  0.00     0.002 A 
HETATM   11  C   UNL     1     -40.542  54.637 -53.814  1.00  0.00     0.030 A 
HETATM   12  H   UNL     1     -40.194  57.026 -52.818  1.00  0.00     0.170 HD
ENDROOT
BRANCH   2  13
HETATM   13  O   UNL     1     -44.960  56.267 -54.142  1.00  0.00    -0.359 OA
HETATM   14  H   UNL     1     -45.550  56.945 -54.523  1.00  0.00     0.213 HD
ENDBRANCH   2  13
BRANCH   2  15
HETATM   15  C   UNL     1     -43.516  57.414 -55.801  1.00  0.00     0.279 C 
HETATM   16  N   UNL     1     -44.660  57.462 -56.566  1.00  0.00    -0.352 N 
HETATM   17  H   UNL     1     -45.502  57.009 -56.234  1.00  0.00     0.162 HD
HETATM   18  O   UNL     1     -42.447  57.911 -56.174  1.00  0.00    -0.268 OA
BRANCH  16  19
HETATM   19  C   UNL     1     -44.711  58.165 -57.824  1.00  0.00     0.163 C 
BRANCH  19  20
HETATM   20  C   UNL     1     -45.198  57.261 -58.927  1.00  0.00    -0.019 A 
HETATM   21  C   UNL     1     -44.328  56.441 -59.665  1.00  0.00     0.042 A 
HETATM   22 CL   UNL     1     -42.627  56.404 -59.360  1.00  0.00    -0.084 Cl
HETATM   23  C   UNL     1     -44.817  55.625 -60.690  1.00  0.00     0.024 A 
HETATM   24  C   UNL     1     -46.178  55.620 -60.994  1.00  0.00     0.002 A 
HETATM   25  C   UNL     1     -47.051  56.434 -60.276  1.00  0.00     0.001 A 
HETATM   26  C   UNL     1     -46.565  57.251 -59.254  1.00  0.00     0.010 A 
ENDBRANCH  19  20
ENDBRANCH  16  19
ENDBRANCH   2  15
BRANCH   1  27
HETATM   27  C   UNL     1     -44.313  58.685 -52.847  1.00  0.00     0.045 A 
HETATM   28  C   UNL     1     -44.747  58.634 -51.510  1.00  0.00     0.066 A 
HETATM   29  C   UNL     1     -45.747  59.483 -51.015  1.00  0.00     0.070 A 
HETATM   30  C   UNL     1     -46.333  60.414 -51.865  1.00  0.00     0.037 A 
HETATM   31  C   UNL     1     -45.919  60.488 -53.194  1.00  0.00     0.005 A 
HETATM   32  C   UNL     1     -44.925  59.632 -53.679  1.00  0.00     0.030 A 
BRANCH  29  33
HETATM   33  O   UNL     1     -46.062  59.288 -49.697  1.00  0.00    -0.356 OA
HETATM   34  C   UNL     1     -45.652  60.293 -48.780  1.00  0.00     0.210 C 
ENDBRANCH  29  33
ENDBRANCH   1  27
TORSDOF 6
ENDMDL
MODEL 6
REMARK VINA RESULT:      -7.9      2.715      3.829
REMARK  6 active torsions:
REMARK  status: ('A' for Active; 'I' for Inactive)
REMARK    1  A    between atoms: O_2  and  C_3 
REMARK    2  A    between atoms: C_5  and  N_6 
REMARK    3  A    between atoms: C_7  and  O_8 
REMARK    4  A    between atoms: C_7  and  C_9 
REMARK       I    between atoms: C_9  and  N_10 
REMARK    5  A    between atoms: N_10  and  C_11 
REMARK    6  A    between atoms: C_11  and  C_12 
ROOT
HETATM    1  N   UNL     1     -44.921  58.567 -55.836  1.00  0.00    -0.254 N 
HETATM    2  C   UNL     1     -44.488  57.703 -54.725  1.00  0.00     0.256 C 
HETATM    3  C   UNL     1     -44.745  58.315 -53.360  1.00  0.00     0.034 A 
HETATM    4  C   UNL     1     -44.800  59.698 -53.264  1.00  0.00     0.048 A 
HETATM    5  N   UNL     1     -44.727  60.446 -54.430  1.00  0.00    -0.308 N 
HETATM    6  C   UNL     1     -44.834  59.946 -55.696  1.00  0.00     0.330 C 
HETATM    7  O   UNL     1     -44.819  60.766 -56.614  1.00  0.00    -0.246 OA
HETATM    8  C   UNL     1     -44.808  57.556 -52.179  1.00  0.00     0.015 A 
HETATM    9  C   UNL     1     -44.933  58.185 -50.939  1.00  0.00     0.001 A 
HETATM   10  C   UNL     1     -44.979  59.576 -50.864  1.00  0.00     0.002 A 
HETATM   11  C   UNL     1     -44.908  60.338 -52.029  1.00  0.00     0.030 A 
HETATM   12  H   UNL     1     -44.752  61.458 -54.383  1.00  0.00     0.170 HD
ENDROOT
BRANCH   2  13
HETATM   13  O   UNL     1     -45.252  56.491 -54.744  1.00  0.00    -0.359 OA
HETATM   14  H   UNL     1     -45.140  56.137 -55.646  1.00  0.00     0.213 HD
ENDBRANCH   2  13
BRANCH   2  15
HETATM   15  C   UNL     1     -42.939  57.385 -54.840  1.00  0.00     0.279 C 
HETATM   16  N   UNL     1     -42.565  56.060 -54.814  1.00  0.00    -0.352 N 
HETATM   17  H   UNL     1     -43.262  55.348 -54.631  1.00  0.00     0.162 HD
HETATM   18  O   UNL     1     -42.127  58.300 -55.015  1.00  0.00    -0.268 OA
BRANCH  16  19
HETATM   19  C   UNL     1     -41.208  55.642 -55.066  1.00  0.00     0.163 C 
BRANCH  19  20
HETATM   20  C   UNL     1     -40.832  54.476 -54.189  1.00  0.00    -0.019 A 
HETATM   21  C   UNL     1     -40.836  54.558 -52.786  1.00  0.00     0.042 A 
HETATM   22 CL   UNL     1     -41.277  56.009 -51.958  1.00  0.00    -0.084 Cl
HETATM   23  C   UNL     1     -40.469  53.457 -52.007  1.00  0.00     0.024 A 
HETATM   24  C   UNL     1     -40.089  52.262 -52.617  1.00  0.00     0.002 A 
HETATM   25  C   UNL     1     -40.072  52.167 -54.005  1.00  0.00     0.001 A 
HETATM   26  C   UNL     1     -40.437  53.266 -54.786  1.00  0.00     0.010 A 
ENDBRANCH  19  20
ENDBRANCH  16  19
ENDBRANCH   2  15
BRANCH   1  27
HETATM   27  C   UNL     1     -45.260  58.001 -57.124  1.00  0.00     0.045 A 
HETATM   28  C   UNL     1     -44.248  57.495 -57.960  1.00  0.00     0.066 A 
HETATM   29  C   UNL     1     -44.521  56.978 -59.235  1.00  0.00     0.070 A 
HETATM   30  C   UNL     1     -45.833  56.955 -59.695  1.00  0.00     0.037 A 
HETATM   31  C   UNL     1     -46.855  57.446 -58.885  1.00  0.00     0.005 A 
HETATM   32  C   UNL     1     -46.572  57.966 -57.617  1.00  0.00     0.030 A 
BRANCH  29  33
HETATM   33  O   UNL     1     -43.420  56.545 -59.924  1.00  0.00    -0.356 OA
HETATM   34  C   UNL     1     -42.264  57.370 -59.876  1.00  0.00     0.210 C 
ENDBRANCH  29  33
ENDBRANCH   1  27
TORSDOF 6
ENDMDL
MODEL 7
REMARK VINA RESULT:      -7.9      3.096      4.011
REMARK  6 active torsions:
REMARK  status: ('A' for Active; 'I' for Inactive)
REMARK    1  A    between atoms: O_2  and  C_3 
REMARK    2  A    between atoms: C_5  and  N_6 
REMARK    3  A    between atoms: C_7  and  O_8 
REMARK    4  A    between atoms: C_7  and  C_9 
REMARK       I    between atoms: C_9  and  N_10 
REMARK    5  A    between atoms: N_10  and  C_11 
REMARK    6  A    between atoms: C_11  and  C_12 
ROOT
HETATM    1  N   UNL     1     -42.656  58.401 -53.278  1.00  0.00    -0.254 N 
HETATM    2  C   UNL     1     -43.689  58.195 -52.248  1.00  0.00     0.256 C 
HETATM    3  C   UNL     1     -43.919  59.420 -51.382  1.00  0.00     0.034 A 
HETATM    4  C   UNL     1     -42.874  60.321 -51.233  1.00  0.00     0.048 A 
HETATM    5  N   UNL     1     -41.715  60.117 -51.967  1.00  0.00    -0.308 N 
HETATM    6  C   UNL     1     -41.580  59.235 -53.001  1.00  0.00     0.330 C 
HETATM    7  O   UNL     1     -40.498  59.238 -53.588  1.00  0.00    -0.246 OA
HETATM    8  C   UNL     1     -45.090  59.619 -50.632  1.00  0.00     0.015 A 
HETATM    9  C   UNL     1     -45.199  60.708 -49.765  1.00  0.00     0.001 A 
HETATM   10  C   UNL     1     -44.135  61.597 -49.625  1.00  0.00     0.002 A 
HETATM   11  C   UNL     1     -42.965  61.403 -50.358  1.00  0.00     0.030 A 
HETATM   12  H   UNL     1     -40.934  60.755 -51.865  1.00  0.00     0.170 HD
ENDROOT
BRANCH   2  13
HETATM   13  O   UNL     1     -44.947  57.943 -52.885  1.00  0.00    -0.359 OA
HETATM   14  H   UNL     1     -45.596  57.912 -52.157  1.00  0.00     0.213 HD
ENDBRANCH   2  13
BRANCH   2  15
HETATM   15  C   UNL     1     -43.294  56.987 -51.301  1.00  0.00     0.279 C 
HETATM   16  N   UNL     1     -41.960  56.839 -50.993  1.00  0.00    -0.352 N 
HETATM   17  H   UNL     1     -41.274  57.433 -51.442  1.00  0.00     0.162 HD
HETATM   18  O   UNL     1     -44.171  56.263 -50.818  1.00  0.00    -0.268 OA
BRANCH  16  19
HETATM   19  C   UNL     1     -41.501  55.876 -50.021  1.00  0.00     0.163 C 
BRANCH  19  20
HETATM   20  C   UNL     1     -41.003  54.625 -50.698  1.00  0.00    -0.019 A 
HETATM   21  C   UNL     1     -40.562  53.505 -49.974  1.00  0.00     0.042 A 
HETATM   22 CL   UNL     1     -40.561  53.475 -48.246  1.00  0.00    -0.084 Cl
HETATM   23  C   UNL     1     -40.094  52.367 -50.639  1.00  0.00     0.024 A 
HETATM   24  C   UNL     1     -40.056  52.334 -52.033  1.00  0.00     0.002 A 
HETATM   25  C   UNL     1     -40.482  53.440 -52.763  1.00  0.00     0.001 A 
HETATM   26  C   UNL     1     -40.948  54.578 -52.102  1.00  0.00     0.010 A 
ENDBRANCH  19  20
ENDBRANCH  16  19
ENDBRANCH   2  15
BRANCH   1  27
HETATM   27  C   UNL     1     -42.654  57.614 -54.492  1.00  0.00     0.045 A 
HETATM   28  C   UNL     1     -43.155  58.160 -55.687  1.00  0.00     0.066 A 
HETATM   29  C   UNL     1     -43.215  57.423 -56.878  1.00  0.00     0.070 A 
HETATM   30  C   UNL     1     -42.764  56.108 -56.890  1.00  0.00     0.037 A 
HETATM   31  C   UNL     1     -42.260  55.543 -55.720  1.00  0.00     0.005 A 
HETATM   32  C   UNL     1     -42.209  56.285 -54.535  1.00  0.00     0.030 A 
BRANCH  29  33
HETATM   33  O   UNL     1     -43.747  58.100 -57.943  1.00  0.00    -0.356 OA
HETATM   34  C   UNL     1     -45.162  58.077 -58.081  1.00  0.00     0.210 C 
ENDBRANCH  29  33
ENDBRANCH   1  27
TORSDOF 6
ENDMDL
MODEL 8
REMARK VINA RESULT:      -7.7      3.292      6.655
REMARK  6 active torsions:
REMARK  status: ('A' for Active; 'I' for Inactive)
REMARK    1  A    between atoms: O_2  and  C_3 
REMARK    2  A    between atoms: C_5  and  N_6 
REMARK    3  A    between atoms: C_7  and  O_8 
REMARK    4  A    between atoms: C_7  and  C_9 
REMARK       I    between atoms: C_9  and  N_10 
REMARK    5  A    between atoms: N_10  and  C_11 
REMARK    6  A    between atoms: C_11  and  C_12 
ROOT
HETATM    1  N   UNL     1     -42.142  57.029 -51.370  1.00  0.00    -0.254 N 
HETATM    2  C   UNL     1     -41.502  58.351 -51.482  1.00  0.00     0.256 C 
HETATM    3  C   UNL     1     -42.378  59.482 -50.975  1.00  0.00     0.034 A 
HETATM    4  C   UNL     1     -43.754  59.305 -51.002  1.00  0.00     0.048 A 
HETATM    5  N   UNL     1     -44.256  58.069 -51.384  1.00  0.00    -0.308 N 
HETATM    6  C   UNL     1     -43.519  56.927 -51.524  1.00  0.00     0.330 C 
HETATM    7  O   UNL     1     -44.141  55.902 -51.800  1.00  0.00    -0.246 OA
HETATM    8  C   UNL     1     -41.869  60.736 -50.598  1.00  0.00     0.015 A 
HETATM    9  C   UNL     1     -42.734  61.775 -50.248  1.00  0.00     0.001 A 
HETATM   10  C   UNL     1     -44.113  61.578 -50.289  1.00  0.00     0.002 A 
HETATM   11  C   UNL     1     -44.628  60.340 -50.670  1.00  0.00     0.030 A 
HETATM   12  H   UNL     1     -45.257  57.920 -51.423  1.00  0.00     0.170 HD
ENDROOT
BRANCH   2  13
HETATM   13  O   UNL     1     -40.333  58.382 -50.655  1.00  0.00    -0.359 OA
HETATM   14  H   UNL     1     -39.611  58.059 -51.227  1.00  0.00     0.213 HD
ENDBRANCH   2  13
BRANCH   2  15
HETATM   15  C   UNL     1     -41.123  58.657 -52.991  1.00  0.00     0.279 C 
HETATM   16  N   UNL     1     -42.124  58.533 -53.928  1.00  0.00    -0.352 N 
HETATM   17  H   UNL     1     -43.027  58.168 -53.650  1.00  0.00     0.162 HD
HETATM   18  O   UNL     1     -39.990  59.055 -53.280  1.00  0.00    -0.268 OA
BRANCH  16  19
HETATM   19  C   UNL     1     -41.940  58.933 -55.302  1.00  0.00     0.163 C 
BRANCH  19  20
HETATM   20  C   UNL     1     -42.339  57.826 -56.243  1.00  0.00    -0.019 A 
HETATM   21  C   UNL     1     -42.387  58.004 -57.636  1.00  0.00     0.042 A 
HETATM   22 CL   UNL     1     -41.989  59.513 -58.378  1.00  0.00    -0.084 Cl
HETATM   23  C   UNL     1     -42.775  56.955 -58.475  1.00  0.00     0.024 A 
HETATM   24  C   UNL     1     -43.122  55.717 -57.936  1.00  0.00     0.002 A 
HETATM   25  C   UNL     1     -43.087  55.528 -56.557  1.00  0.00     0.001 A 
HETATM   26  C   UNL     1     -42.702  56.574 -55.716  1.00  0.00     0.010 A 
ENDBRANCH  19  20
ENDBRANCH  16  19
ENDBRANCH   2  15
BRANCH   1  27
HETATM   27  C   UNL     1     -41.343  55.826 -51.282  1.00  0.00     0.045 A 
HETATM   28  C   UNL     1     -41.135  55.034 -52.426  1.00  0.00     0.066 A 
HETATM   29  C   UNL     1     -40.406  53.837 -52.384  1.00  0.00     0.070 A 
HETATM   30  C   UNL     1     -39.863  53.411 -51.177  1.00  0.00     0.037 A 
HETATM   31  C   UNL     1     -40.051  54.179 -50.029  1.00  0.00     0.005 A 
HETATM   32  C   UNL     1     -40.785  55.369 -50.081  1.00  0.00     0.030 A 
BRANCH  29  33
HETATM   33  O   UNL     1     -40.315  53.181 -53.582  1.00  0.00    -0.356 OA
HETATM   34  C   UNL     1     -40.241  53.983 -54.753  1.00  0.00     0.210 C 
ENDBRANCH  29  33
ENDBRANCH   1  27
TORSDOF 6
ENDMDL
MODEL 9
REMARK VINA RESULT:      -7.6      2.863      7.100
REMARK  6 active torsions:
REMARK  status: ('A' for Active; 'I' for Inactive)
REMARK    1  A    between atoms: O_2  and  C_3 
REMARK    2  A    between atoms: C_5  and  N_6 
REMARK    3  A    between atoms: C_7  and  O_8 
REMARK    4  A    between atoms: C_7  and  C_9 
REMARK       I    between atoms: C_9  and  N_10 
REMARK    5  A    between atoms: N_10  and  C_11 
REMARK    6  A    between atoms: C_11  and  C_12 
ROOT
HETATM    1  N   UNL     1     -42.601  56.323 -51.100  1.00  0.00    -0.254 N 
HETATM    2  C   UNL     1     -42.037  57.296 -52.050  1.00  0.00     0.256 C 
HETATM    3  C   UNL     1     -42.857  58.569 -52.157  1.00  0.00     0.034 A 
HETATM    4  C   UNL     1     -44.211  58.500 -51.862  1.00  0.00     0.048 A 
HETATM    5  N   UNL     1     -44.724  57.304 -51.380  1.00  0.00    -0.308 N 
HETATM    6  C   UNL     1     -43.980  56.243 -50.950  1.00  0.00     0.330 C 
HETATM    7  O   UNL     1     -44.602  55.288 -50.486  1.00  0.00    -0.246 OA
HETATM    8  C   UNL     1     -42.338  59.776 -52.655  1.00  0.00     0.015 A 
HETATM    9  C   UNL     1     -43.170  60.882 -52.837  1.00  0.00     0.001 A 
HETATM   10  C   UNL     1     -44.528  60.790 -52.542  1.00  0.00     0.002 A 
HETATM   11  C   UNL     1     -45.054  59.594 -52.056  1.00  0.00     0.030 A 
HETATM   12  H   UNL     1     -45.712  57.227 -51.170  1.00  0.00     0.170 HD
ENDROOT
BRANCH   2  13
HETATM   13  O   UNL     1     -40.748  57.717 -51.586  1.00  0.00    -0.359 OA
HETATM   14  H   UNL     1     -40.699  57.404 -50.663  1.00  0.00     0.213 HD
ENDBRANCH   2  13
BRANCH   2  15
HETATM   15  C   UNL     1     -41.924  56.657 -53.497  1.00  0.00     0.279 C 
HETATM   16  N   UNL     1     -43.018  56.776 -54.324  1.00  0.00    -0.352 N 
HETATM   17  H   UNL     1     -43.876  57.174 -53.963  1.00  0.00     0.162 HD
HETATM   18  O   UNL     1     -40.864  56.141 -53.868  1.00  0.00    -0.268 OA
BRANCH  16  19
HETATM   19  C   UNL     1     -42.978  56.373 -55.709  1.00  0.00     0.163 C 
BRANCH  19  20
HETATM   20  C   UNL     1     -42.648  57.543 -56.599  1.00  0.00    -0.019 A 
HETATM   21  C   UNL     1     -42.566  57.423 -57.997  1.00  0.00     0.042 A 
HETATM   22 CL   UNL     1     -42.841  55.919 -58.803  1.00  0.00    -0.084 Cl
HETATM   23  C   UNL     1     -42.244  58.530 -58.789  1.00  0.00     0.024 A 
HETATM   24  C   UNL     1     -41.997  59.768 -58.197  1.00  0.00     0.002 A 
HETATM   25  C   UNL     1     -42.067  59.900 -56.813  1.00  0.00     0.001 A 
HETATM   26  C   UNL     1     -42.386  58.796 -56.020  1.00  0.00     0.010 A 
ENDBRANCH  19  20
ENDBRANCH  16  19
ENDBRANCH   2  15
BRANCH   1  27
HETATM   27  C   UNL     1     -41.756  55.337 -50.462  1.00  0.00     0.045 A 
HETATM   28  C   UNL     1     -41.291  54.229 -51.193  1.00  0.00     0.066 A 
HETATM   29  C   UNL     1     -40.507  53.224 -50.609  1.00  0.00     0.070 A 
HETATM   30  C   UNL     1     -40.168  53.318 -49.264  1.00  0.00     0.037 A 
HETATM   31  C   UNL     1     -40.613  54.407 -48.518  1.00  0.00     0.005 A 
HETATM   32  C   UNL     1     -41.400  55.402 -49.108  1.00  0.00     0.030 A 
BRANCH  29  33
HETATM   33  O   UNL     1     -40.155  52.207 -51.457  1.00  0.00    -0.356 OA
HETATM   34  C   UNL     1     -40.285  52.456 -52.851  1.00  0.00     0.210 C 
ENDBRANCH  29  33
ENDBRANCH   1  27
TORSDOF 6
ENDMDL
MODEL 10
REMARK VINA RESULT:      -7.5      4.887      8.593
REMARK  6 active torsions:
REMARK  status: ('A' for Active; 'I' for Inactive)
REMARK    1  A    between atoms: O_2  and  C_3 
REMARK    2  A    between atoms: C_5  and  N_6 
REMARK    3  A    between atoms: C_7  and  O_8 
REMARK    4  A    between atoms: C_7  and  C_9 
REMARK       I    between atoms: C_9  and  N_10 
REMARK    5  A    between atoms: N_10  and  C_11 
REMARK    6  A    between atoms: C_11  and  C_12 
ROOT
HETATM    1  N   UNL     1     -42.281  57.425 -52.195  1.00  0.00    -0.254 N 
HETATM    2  C   UNL     1     -43.696  57.664 -52.523  1.00  0.00     0.256 C 
HETATM    3  C   UNL     1     -43.902  58.854 -53.441  1.00  0.00     0.034 A 
HETATM    4  C   UNL     1     -42.950  59.863 -53.426  1.00  0.00     0.048 A 
HETATM    5  N   UNL     1     -41.808  59.685 -52.659  1.00  0.00    -0.308 N 
HETATM    6  C   UNL     1     -41.417  58.508 -52.087  1.00  0.00     0.330 C 
HETATM    7  O   UNL     1     -40.336  58.515 -51.500  1.00  0.00    -0.246 OA
HETATM    8  C   UNL     1     -45.064  59.037 -54.210  1.00  0.00     0.015 A 
HETATM    9  C   UNL     1     -45.247  60.208 -54.949  1.00  0.00     0.001 A 
HETATM   10  C   UNL     1     -44.282  61.213 -54.914  1.00  0.00     0.002 A 
HETATM   11  C   UNL     1     -43.130  61.044 -54.147  1.00  0.00     0.030 A 
HETATM   12  H   UNL     1     -41.106  60.414 -52.623  1.00  0.00     0.170 HD
ENDROOT
BRANCH   2  13
HETATM   13  O   UNL     1     -44.210  56.538 -53.245  1.00  0.00    -0.359 OA
HETATM   14  H   UNL     1     -44.134  56.787 -54.186  1.00  0.00     0.213 HD
ENDBRANCH   2  13
BRANCH   2  15
HETATM   15  C   UNL     1     -44.538  57.907 -51.202  1.00  0.00     0.279 C 
HETATM   16  N   UNL     1     -44.631  59.202 -50.745  1.00  0.00    -0.352 N 
HETATM   17  H   UNL     1     -44.096  59.932 -51.199  1.00  0.00     0.162 HD
HETATM   18  O   UNL     1     -45.133  56.969 -50.662  1.00  0.00    -0.268 OA
BRANCH  16  19
HETATM   19  C   UNL     1     -45.493  59.567 -49.647  1.00  0.00     0.163 C 
BRANCH  19  20
HETATM   20  C   UNL     1     -45.145  60.936 -49.122  1.00  0.00    -0.019 A 
HETATM   21  C   UNL     1     -45.347  61.299 -47.779  1.00  0.00     0.042 A 
HETATM   22 CL   UNL     1     -46.008  60.197 -46.624  1.00  0.00    -0.084 Cl
HETATM   23  C   UNL     1     -45.023  62.584 -47.333  1.00  0.00     0.024 A 
HETATM   24  C   UNL     1     -44.499  63.524 -48.220  1.00  0.00     0.002 A 
HETATM   25  C   UNL     1     -44.302  63.181 -49.555  1.00  0.00     0.001 A 
HETATM   26  C   UNL     1     -44.625  61.899 -50.004  1.00  0.00     0.010 A 
ENDBRANCH  19  20
ENDBRANCH  16  19
ENDBRANCH   2  15
BRANCH   1  27
HETATM   27  C   UNL     1     -41.823  56.107 -51.810  1.00  0.00     0.045 A 
HETATM   28  C   UNL     1     -41.881  55.707 -50.463  1.00  0.00     0.066 A 
HETATM   29  C   UNL     1     -41.410  54.459 -50.033  1.00  0.00     0.070 A 
HETATM   30  C   UNL     1     -40.868  53.577 -50.962  1.00  0.00     0.037 A 
HETATM   31  C   UNL     1     -40.801  53.948 -52.304  1.00  0.00     0.005 A 
HETATM   32  C   UNL     1     -41.269  55.198 -52.722  1.00  0.00     0.030 A 
BRANCH  29  33
HETATM   33  O   UNL     1     -41.525  54.236 -48.687  1.00  0.00    -0.356 OA
HETATM   34  C   UNL     1     -40.326  53.970 -47.972  1.00  0.00     0.210 C 
ENDBRANCH  29  33
ENDBRANCH   1  27
TORSDOF 6
ENDMDL
