MODEL 1
REMARK VINA RESULT:      -7.3      0.000      0.000
REMARK  5 active torsions:
REMARK  status: ('A' for Active; 'I' for Inactive)
REMARK    1  A    between atoms: C_4  and  C_5 
REMARK    2  A    between atoms: C_5  and  N_6 
REMARK    3  A    between atoms: N_6  and  C_9 
REMARK    4  A    between atoms: C_12  and  O_13 
REMARK    5  A    between atoms: O_13  and  C_14 
ROOT
HETATM    1  C   UNL     1     -40.579  54.161 -52.583  1.00  0.00     0.164 A 
HETATM    2  N   UNL     1     -40.100  53.219 -51.744  1.00  0.00    -0.236 NA
HETATM    3  C   UNL     1     -39.835  52.003 -52.287  1.00  0.00     0.142 A 
HETATM    4  C   UNL     1     -40.037  51.688 -53.624  1.00  0.00     0.062 A 
HETATM    5  C   UNL     1     -39.729  50.385 -54.120  1.00  0.00     0.101 C 
HETATM    6  N   UNL     1     -39.481  49.325 -54.519  1.00  0.00    -0.191 NA
HETATM    7  C   UNL     1     -40.546  52.682 -54.459  1.00  0.00     0.028 A 
HETATM    8  C   UNL     1     -40.825  53.941 -53.930  1.00  0.00     0.059 A 
ENDROOT
BRANCH   1   9
HETATM    9  O   UNL     1     -40.882  55.418 -52.104  1.00  0.00    -0.329 OA
BRANCH   9  10
HETATM   10  C   UNL     1     -41.688  55.444 -50.919  1.00  0.00     0.130 C 
HETATM   11  C   UNL     1     -41.564  56.862 -50.341  1.00  0.00     0.034 C 
HETATM   12  C   UNL     1     -42.104  57.922 -51.306  1.00  0.00     0.035 C 
HETATM   13  C   UNL     1     -43.541  57.648 -51.760  1.00  0.00     0.186 C 
HETATM   14  C   UNL     1     -43.726  56.204 -52.240  1.00  0.00     0.035 C 
HETATM   15  C   UNL     1     -43.156  55.161 -51.272  1.00  0.00     0.034 C 
BRANCH  13  16
HETATM   16  N   UNL     1     -44.502  57.914 -50.645  1.00  0.00    -0.065 N 
HETATM   17  H   UNL     1     -44.040  58.103 -49.746  1.00  0.00     0.278 HD
HETATM   18  H   UNL     1     -45.065  57.072 -50.440  1.00  0.00     0.278 HD
BRANCH  16  19
HETATM   19  C   UNL     1     -45.519  59.005 -50.877  1.00  0.00     0.299 C 
BRANCH  19  20
HETATM   20  C   UNL     1     -45.274  60.149 -49.945  1.00  0.00     0.101 A 
HETATM   21  N   UNL     1     -45.910  60.281 -48.798  1.00  0.00    -0.249 NA
HETATM   22  C   UNL     1     -45.477  61.438 -48.161  1.00  0.00     0.038 A 
HETATM   23  C   UNL     1     -46.053  61.803 -46.839  1.00  0.00     0.071 C 
HETATM   24  C   UNL     1     -44.518  62.155 -48.854  1.00  0.00     0.078 A 
HETATM   25  S   UNL     1     -44.143  61.372 -50.331  1.00  0.00    -0.083 SA
ENDBRANCH  19  20
ENDBRANCH  16  19
ENDBRANCH  13  16
ENDBRANCH   9  10
ENDBRANCH   1   9
TORSDOF 5
ENDMDL
MODEL 2
REMARK VINA RESULT:      -7.2      4.949      6.975
REMARK  5 active torsions:
REMARK  status: ('A' for Active; 'I' for Inactive)
REMARK    1  A    between atoms: C_4  and  C_5 
REMARK    2  A    between atoms: C_5  and  N_6 
REMARK    3  A    between atoms: N_6  and  C_9 
REMARK    4  A    between atoms: C_12  and  O_13 
REMARK    5  A    between atoms: O_13  and  C_14 
ROOT
HETATM    1  C   UNL     1     -40.836  53.856 -53.663  1.00  0.00     0.164 A 
HETATM    2  N   UNL     1     -40.812  53.951 -52.317  1.00  0.00    -0.236 NA
HETATM    3  C   UNL     1     -40.357  52.865 -51.641  1.00  0.00     0.142 A 
HETATM    4  C   UNL     1     -39.937  51.691 -52.251  1.00  0.00     0.062 A 
HETATM    5  C   UNL     1     -39.468  50.592 -51.468  1.00  0.00     0.101 C 
HETATM    6  N   UNL     1     -39.090  49.701 -50.830  1.00  0.00    -0.191 NA
HETATM    7  C   UNL     1     -39.989  51.622 -53.643  1.00  0.00     0.028 A 
HETATM    8  C   UNL     1     -40.449  52.723 -54.363  1.00  0.00     0.059 A 
ENDROOT
BRANCH   1   9
HETATM    9  O   UNL     1     -41.294  54.914 -54.419  1.00  0.00    -0.329 OA
BRANCH   9  10
HETATM   10  C   UNL     1     -42.462  54.645 -55.205  1.00  0.00     0.130 C 
HETATM   11  C   UNL     1     -43.663  55.120 -54.372  1.00  0.00     0.034 C 
HETATM   12  C   UNL     1     -43.611  56.627 -54.101  1.00  0.00     0.035 C 
HETATM   13  C   UNL     1     -43.472  57.465 -55.376  1.00  0.00     0.186 C 
HETATM   14  C   UNL     1     -42.350  56.946 -56.284  1.00  0.00     0.035 C 
HETATM   15  C   UNL     1     -42.408  55.433 -56.521  1.00  0.00     0.034 C 
BRANCH  13  16
HETATM   16  N   UNL     1     -44.755  57.465 -56.144  1.00  0.00    -0.065 N 
HETATM   17  H   UNL     1     -45.566  57.758 -55.583  1.00  0.00     0.278 HD
HETATM   18  H   UNL     1     -45.010  56.505 -56.430  1.00  0.00     0.278 HD
BRANCH  16  19
HETATM   19  C   UNL     1     -44.773  58.261 -57.426  1.00  0.00     0.299 C 
BRANCH  19  20
HETATM   20  C   UNL     1     -45.368  57.449 -58.532  1.00  0.00     0.101 A 
HETATM   21  N   UNL     1     -44.684  56.534 -59.190  1.00  0.00    -0.249 NA
HETATM   22  C   UNL     1     -45.499  55.956 -60.157  1.00  0.00     0.038 A 
HETATM   23  C   UNL     1     -44.948  54.887 -61.032  1.00  0.00     0.071 C 
HETATM   24  C   UNL     1     -46.786  56.459 -60.203  1.00  0.00     0.078 A 
HETATM   25  S   UNL     1     -46.992  57.676 -59.016  1.00  0.00    -0.083 SA
ENDBRANCH  19  20
ENDBRANCH  16  19
ENDBRANCH  13  16
ENDBRANCH   9  10
ENDBRANCH   1   9
TORSDOF 5
ENDMDL
MODEL 3
REMARK VINA RESULT:      -6.8      1.273      1.917
REMARK  5 active torsions:
REMARK  status: ('A' for Active; 'I' for Inactive)
REMARK    1  A    between atoms: C_4  and  C_5 
REMARK    2  A    between atoms: C_5  and  N_6 
REMARK    3  A    between atoms: N_6  and  C_9 
REMARK    4  A    between atoms: C_12  and  O_13 
REMARK    5  A    between atoms: O_13  and  C_14 
ROOT
HETATM    1  C   UNL     1     -40.812  54.799 -53.234  1.00  0.00     0.164 A 
HETATM    2  N   UNL     1     -40.547  54.496 -54.522  1.00  0.00    -0.236 NA
HETATM    3  C   UNL     1     -40.279  53.193 -54.794  1.00  0.00     0.142 A 
HETATM    4  C   UNL     1     -40.256  52.188 -53.837  1.00  0.00     0.062 A 
HETATM    5  C   UNL     1     -39.969  50.838 -54.204  1.00  0.00     0.101 C 
HETATM    6  N   UNL     1     -39.734  49.744 -54.506  1.00  0.00    -0.191 NA
HETATM    7  C   UNL     1     -40.522  52.540 -52.513  1.00  0.00     0.028 A 
HETATM    8  C   UNL     1     -40.802  53.870 -52.205  1.00  0.00     0.059 A 
ENDROOT
BRANCH   1   9
HETATM    9  O   UNL     1     -41.083  56.103 -52.877  1.00  0.00    -0.329 OA
BRANCH   9  10
HETATM   10  C   UNL     1     -42.069  56.765 -53.680  1.00  0.00     0.130 C 
HETATM   11  C   UNL     1     -43.435  56.396 -53.081  1.00  0.00     0.034 C 
HETATM   12  C   UNL     1     -43.582  56.897 -51.641  1.00  0.00     0.035 C 
HETATM   13  C   UNL     1     -43.316  58.399 -51.494  1.00  0.00     0.186 C 
HETATM   14  C   UNL     1     -42.010  58.819 -52.181  1.00  0.00     0.035 C 
HETATM   15  C   UNL     1     -41.873  58.286 -53.610  1.00  0.00     0.034 C 
BRANCH  13  16
HETATM   16  N   UNL     1     -44.444  59.189 -52.075  1.00  0.00    -0.065 N 
HETATM   17  H   UNL     1     -44.728  58.868 -53.009  1.00  0.00     0.278 HD
HETATM   18  H   UNL     1     -44.154  60.166 -52.248  1.00  0.00     0.278 HD
BRANCH  16  19
HETATM   19  C   UNL     1     -45.690  59.306 -51.231  1.00  0.00     0.299 C 
BRANCH  19  20
HETATM   20  C   UNL     1     -45.435  60.187 -50.050  1.00  0.00     0.101 A 
HETATM   21  N   UNL     1     -45.873  59.900 -48.840  1.00  0.00    -0.249 NA
HETATM   22  C   UNL     1     -45.487  60.904 -47.960  1.00  0.00     0.038 A 
HETATM   23  C   UNL     1     -45.865  60.802 -46.525  1.00  0.00     0.071 C 
HETATM   24  C   UNL     1     -44.764  61.932 -48.537  1.00  0.00     0.078 A 
HETATM   25  S   UNL     1     -44.556  61.645 -50.213  1.00  0.00    -0.083 SA
ENDBRANCH  19  20
ENDBRANCH  16  19
ENDBRANCH  13  16
ENDBRANCH   9  10
ENDBRANCH   1   9
TORSDOF 5
ENDMDL
MODEL 4
REMARK VINA RESULT:      -6.7     17.199     19.183
REMARK  5 active torsions:
REMARK  status: ('A' for Active; 'I' for Inactive)
REMARK    1  A    between atoms: C_4  and  C_5 
REMARK    2  A    between atoms: C_5  and  N_6 
REMARK    3  A    between atoms: N_6  and  C_9 
REMARK    4  A    between atoms: C_12  and  O_13 
REMARK    5  A    between atoms: O_13  and  C_14 
ROOT
HETATM    1  C   UNL     1     -35.343  41.736 -55.107  1.00  0.00     0.164 A 
HETATM    2  N   UNL     1     -34.557  41.472 -56.172  1.00  0.00    -0.236 NA
HETATM    3  C   UNL     1     -35.133  41.597 -57.395  1.00  0.00     0.142 A 
HETATM    4  C   UNL     1     -36.457  41.963 -57.596  1.00  0.00     0.062 A 
HETATM    5  C   UNL     1     -36.989  42.076 -58.917  1.00  0.00     0.101 C 
HETATM    6  N   UNL     1     -37.418  42.164 -59.990  1.00  0.00    -0.191 NA
HETATM    7  C   UNL     1     -37.244  42.215 -56.472  1.00  0.00     0.028 A 
HETATM    8  C   UNL     1     -36.678  42.097 -55.204  1.00  0.00     0.059 A 
ENDROOT
BRANCH   1   9
HETATM    9  O   UNL     1     -34.832  41.622 -53.832  1.00  0.00    -0.329 OA
BRANCH   9  10
HETATM   10  C   UNL     1     -35.270  40.471 -53.097  1.00  0.00     0.130 C 
HETATM   11  C   UNL     1     -34.037  39.569 -52.930  1.00  0.00     0.034 C 
HETATM   12  C   UNL     1     -32.932  40.255 -52.121  1.00  0.00     0.035 C 
HETATM   13  C   UNL     1     -33.411  40.772 -50.761  1.00  0.00     0.186 C 
HETATM   14  C   UNL     1     -34.706  41.586 -50.881  1.00  0.00     0.035 C 
HETATM   15  C   UNL     1     -35.788  40.892 -51.714  1.00  0.00     0.034 C 
BRANCH  13  16
HETATM   16  N   UNL     1     -33.641  39.633 -49.820  1.00  0.00    -0.065 N 
HETATM   17  H   UNL     1     -34.468  39.070 -50.056  1.00  0.00     0.278 HD
HETATM   18  H   UNL     1     -33.865  39.982 -48.873  1.00  0.00     0.278 HD
BRANCH  16  19
HETATM   19  C   UNL     1     -32.484  38.686 -49.613  1.00  0.00     0.299 C 
BRANCH  19  20
HETATM   20  C   UNL     1     -31.871  38.903 -48.267  1.00  0.00     0.101 A 
HETATM   21  N   UNL     1     -31.122  39.952 -47.987  1.00  0.00    -0.249 NA
HETATM   22  C   UNL     1     -30.693  39.872 -46.667  1.00  0.00     0.038 A 
HETATM   23  C   UNL     1     -29.830  40.950 -46.114  1.00  0.00     0.071 C 
HETATM   24  C   UNL     1     -31.132  38.753 -45.982  1.00  0.00     0.078 A 
HETATM   25  S   UNL     1     -32.104  37.777 -47.001  1.00  0.00    -0.083 SA
ENDBRANCH  19  20
ENDBRANCH  16  19
ENDBRANCH  13  16
ENDBRANCH   9  10
ENDBRANCH   1   9
TORSDOF 5
ENDMDL
MODEL 5
REMARK VINA RESULT:      -6.7      5.199      7.542
REMARK  5 active torsions:
REMARK  status: ('A' for Active; 'I' for Inactive)
REMARK    1  A    between atoms: C_4  and  C_5 
REMARK    2  A    between atoms: C_5  and  N_6 
REMARK    3  A    between atoms: N_6  and  C_9 
REMARK    4  A    between atoms: C_12  and  O_13 
REMARK    5  A    between atoms: O_13  and  C_14 
ROOT
HETATM    1  C   UNL     1     -41.556  54.214 -52.001  1.00  0.00     0.164 A 
HETATM    2  N   UNL     1     -42.254  54.871 -51.051  1.00  0.00    -0.236 NA
HETATM    3  C   UNL     1     -41.815  54.736 -49.774  1.00  0.00     0.142 A 
HETATM    4  C   UNL     1     -40.719  53.967 -49.407  1.00  0.00     0.062 A 
HETATM    5  C   UNL     1     -40.317  53.878 -48.040  1.00  0.00     0.101 C 
HETATM    6  N   UNL     1     -39.994  53.806 -46.928  1.00  0.00    -0.191 NA
HETATM    7  C   UNL     1     -40.029  53.291 -50.413  1.00  0.00     0.028 A 
HETATM    8  C   UNL     1     -40.456  53.414 -51.733  1.00  0.00     0.059 A 
ENDROOT
BRANCH   1   9
HETATM    9  O   UNL     1     -41.947  54.295 -53.321  1.00  0.00    -0.329 OA
BRANCH   9  10
HETATM   10  C   UNL     1     -41.007  54.926 -54.200  1.00  0.00     0.130 C 
HETATM   11  C   UNL     1     -41.335  54.427 -55.616  1.00  0.00     0.034 C 
HETATM   12  C   UNL     1     -42.745  54.836 -56.054  1.00  0.00     0.035 C 
HETATM   13  C   UNL     1     -42.998  56.343 -55.941  1.00  0.00     0.186 C 
HETATM   14  C   UNL     1     -42.576  56.894 -54.573  1.00  0.00     0.035 C 
HETATM   15  C   UNL     1     -41.173  56.452 -54.144  1.00  0.00     0.034 C 
BRANCH  13  16
HETATM   16  N   UNL     1     -42.257  57.080 -57.010  1.00  0.00    -0.065 N 
HETATM   17  H   UNL     1     -41.679  56.468 -57.601  1.00  0.00     0.278 HD
HETATM   18  H   UNL     1     -41.560  57.721 -56.595  1.00  0.00     0.278 HD
BRANCH  16  19
HETATM   19  C   UNL     1     -43.082  57.954 -57.922  1.00  0.00     0.299 C 
BRANCH  19  20
HETATM   20  C   UNL     1     -43.880  57.112 -58.865  1.00  0.00     0.101 A 
HETATM   21  N   UNL     1     -45.179  57.266 -59.031  1.00  0.00    -0.249 NA
HETATM   22  C   UNL     1     -45.637  56.338 -59.960  1.00  0.00     0.038 A 
HETATM   23  C   UNL     1     -47.081  56.317 -60.319  1.00  0.00     0.071 C 
HETATM   24  C   UNL     1     -44.662  55.501 -60.471  1.00  0.00     0.078 A 
HETATM   25  S   UNL     1     -43.139  55.875 -59.784  1.00  0.00    -0.083 SA
ENDBRANCH  19  20
ENDBRANCH  16  19
ENDBRANCH  13  16
ENDBRANCH   9  10
ENDBRANCH   1   9
TORSDOF 5
ENDMDL
MODEL 6
REMARK VINA RESULT:      -6.6     17.406     19.484
REMARK  5 active torsions:
REMARK  status: ('A' for Active; 'I' for Inactive)
REMARK    1  A    between atoms: C_4  and  C_5 
REMARK    2  A    between atoms: C_5  and  N_6 
REMARK    3  A    between atoms: N_6  and  C_9 
REMARK    4  A    between atoms: C_12  and  O_13 
REMARK    5  A    between atoms: O_13  and  C_14 
ROOT
HETATM    1  C   UNL     1     -35.187  40.394 -52.622  1.00  0.00     0.164 A 
HETATM    2  N   UNL     1     -34.676  39.184 -52.310  1.00  0.00    -0.236 NA
HETATM    3  C   UNL     1     -33.803  39.145 -51.272  1.00  0.00     0.142 A 
HETATM    4  C   UNL     1     -33.413  40.259 -50.542  1.00  0.00     0.062 A 
HETATM    5  C   UNL     1     -32.491  40.134 -49.459  1.00  0.00     0.101 C 
HETATM    6  N   UNL     1     -31.739  40.030 -48.582  1.00  0.00    -0.191 NA
HETATM    7  C   UNL     1     -33.950  41.496 -50.900  1.00  0.00     0.028 A 
HETATM    8  C   UNL     1     -34.851  41.566 -51.961  1.00  0.00     0.059 A 
ENDROOT
BRANCH   1   9
HETATM    9  O   UNL     1     -36.073  40.516 -53.671  1.00  0.00    -0.329 OA
BRANCH   9  10
HETATM   10  C   UNL     1     -35.641  39.935 -54.908  1.00  0.00     0.130 C 
HETATM   11  C   UNL     1     -36.889  39.840 -55.801  1.00  0.00     0.034 C 
HETATM   12  C   UNL     1     -37.479  41.220 -56.106  1.00  0.00     0.035 C 
HETATM   13  C   UNL     1     -36.459  42.194 -56.704  1.00  0.00     0.186 C 
HETATM   14  C   UNL     1     -35.156  42.228 -55.896  1.00  0.00     0.035 C 
HETATM   15  C   UNL     1     -34.597  40.838 -55.581  1.00  0.00     0.034 C 
BRANCH  13  16
HETATM   16  N   UNL     1     -36.143  41.818 -58.117  1.00  0.00    -0.065 N 
HETATM   17  H   UNL     1     -35.480  41.036 -58.191  1.00  0.00     0.278 HD
HETATM   18  H   UNL     1     -35.645  42.587 -58.596  1.00  0.00     0.278 HD
BRANCH  16  19
HETATM   19  C   UNL     1     -37.319  41.511 -59.012  1.00  0.00     0.299 C 
BRANCH  19  20
HETATM   20  C   UNL     1     -37.023  40.319 -59.864  1.00  0.00     0.101 A 
HETATM   21  N   UNL     1     -37.520  40.170 -61.076  1.00  0.00    -0.249 NA
HETATM   22  C   UNL     1     -37.075  38.967 -61.612  1.00  0.00     0.038 A 
HETATM   23  C   UNL     1     -37.502  38.575 -62.982  1.00  0.00     0.071 C 
HETATM   24  C   UNL     1     -36.249  38.233 -60.779  1.00  0.00     0.078 A 
HETATM   25  S   UNL     1     -36.018  39.057 -59.296  1.00  0.00    -0.083 SA
ENDBRANCH  19  20
ENDBRANCH  16  19
ENDBRANCH  13  16
ENDBRANCH   9  10
ENDBRANCH   1   9
TORSDOF 5
ENDMDL
MODEL 7
REMARK VINA RESULT:      -6.6      1.689      2.291
REMARK  5 active torsions:
REMARK  status: ('A' for Active; 'I' for Inactive)
REMARK    1  A    between atoms: C_4  and  C_5 
REMARK    2  A    between atoms: C_5  and  N_6 
REMARK    3  A    between atoms: N_6  and  C_9 
REMARK    4  A    between atoms: C_12  and  O_13 
REMARK    5  A    between atoms: O_13  and  C_14 
ROOT
HETATM    1  C   UNL     1     -40.927  54.225 -52.552  1.00  0.00     0.164 A 
HETATM    2  N   UNL     1     -40.222  53.424 -51.726  1.00  0.00    -0.236 NA
HETATM    3  C   UNL     1     -39.862  52.212 -52.219  1.00  0.00     0.142 A 
HETATM    4  C   UNL     1     -40.184  51.765 -53.493  1.00  0.00     0.062 A 
HETATM    5  C   UNL     1     -39.764  50.475 -53.940  1.00  0.00     0.101 C 
HETATM    6  N   UNL     1     -39.424  49.426 -54.299  1.00  0.00    -0.191 NA
HETATM    7  C   UNL     1     -40.926  52.613 -54.316  1.00  0.00     0.028 A 
HETATM    8  C   UNL     1     -41.307  53.865 -53.836  1.00  0.00     0.059 A 
ENDROOT
BRANCH   1   9
HETATM    9  O   UNL     1     -41.338  55.468 -52.120  1.00  0.00    -0.329 OA
BRANCH   9  10
HETATM   10  C   UNL     1     -41.783  56.359 -53.150  1.00  0.00     0.130 C 
HETATM   11  C   UNL     1     -43.160  56.878 -52.709  1.00  0.00     0.034 C 
HETATM   12  C   UNL     1     -43.081  57.669 -51.400  1.00  0.00     0.035 C 
HETATM   13  C   UNL     1     -42.063  58.813 -51.447  1.00  0.00     0.186 C 
HETATM   14  C   UNL     1     -40.705  58.350 -51.990  1.00  0.00     0.035 C 
HETATM   15  C   UNL     1     -40.810  57.539 -53.286  1.00  0.00     0.034 C 
BRANCH  13  16
HETATM   16  N   UNL     1     -42.570  59.930 -52.301  1.00  0.00    -0.065 N 
HETATM   17  H   UNL     1     -42.477  59.748 -53.309  1.00  0.00     0.278 HD
HETATM   18  H   UNL     1     -41.997  60.780 -52.169  1.00  0.00     0.278 HD
BRANCH  16  19
HETATM   19  C   UNL     1     -43.987  60.384 -52.046  1.00  0.00     0.299 C 
BRANCH  19  20
HETATM   20  C   UNL     1     -44.020  61.372 -50.925  1.00  0.00     0.101 A 
HETATM   21  N   UNL     1     -43.324  62.491 -50.941  1.00  0.00    -0.249 NA
HETATM   22  C   UNL     1     -43.554  63.195 -49.764  1.00  0.00     0.038 A 
HETATM   23  C   UNL     1     -42.876  64.501 -49.550  1.00  0.00     0.071 C 
HETATM   24  C   UNL     1     -44.424  62.578 -48.883  1.00  0.00     0.078 A 
HETATM   25  S   UNL     1     -44.972  61.091 -49.532  1.00  0.00    -0.083 SA
ENDBRANCH  19  20
ENDBRANCH  16  19
ENDBRANCH  13  16
ENDBRANCH   9  10
ENDBRANCH   1   9
TORSDOF 5
ENDMDL
MODEL 8
REMARK VINA RESULT:      -6.6      1.711      2.120
REMARK  5 active torsions:
REMARK  status: ('A' for Active; 'I' for Inactive)
REMARK    1  A    between atoms: C_4  and  C_5 
REMARK    2  A    between atoms: C_5  and  N_6 
REMARK    3  A    between atoms: N_6  and  C_9 
REMARK    4  A    between atoms: C_12  and  O_13 
REMARK    5  A    between atoms: O_13  and  C_14 
ROOT
HETATM    1  C   UNL     1     -40.756  54.344 -52.785  1.00  0.00     0.164 A 
HETATM    2  N   UNL     1     -40.307  53.485 -51.846  1.00  0.00    -0.236 NA
HETATM    3  C   UNL     1     -39.963  52.244 -52.277  1.00  0.00     0.142 A 
HETATM    4  C   UNL     1     -40.059  51.825 -53.597  1.00  0.00     0.062 A 
HETATM    5  C   UNL     1     -39.673  50.502 -53.971  1.00  0.00     0.101 C 
HETATM    6  N   UNL     1     -39.362  49.426 -54.271  1.00  0.00    -0.191 NA
HETATM    7  C   UNL     1     -40.541  52.735 -54.538  1.00  0.00     0.028 A 
HETATM    8  C   UNL     1     -40.899  54.017 -54.125  1.00  0.00     0.059 A 
ENDROOT
BRANCH   1   9
HETATM    9  O   UNL     1     -41.134  55.620 -52.424  1.00  0.00    -0.329 OA
BRANCH   9  10
HETATM   10  C   UNL     1     -41.781  55.729 -51.149  1.00  0.00     0.130 C 
HETATM   11  C   UNL     1     -41.447  57.130 -50.613  1.00  0.00     0.034 C 
HETATM   12  C   UNL     1     -41.997  58.235 -51.520  1.00  0.00     0.035 C 
HETATM   13  C   UNL     1     -43.499  58.103 -51.789  1.00  0.00     0.186 C 
HETATM   14  C   UNL     1     -43.882  56.682 -52.220  1.00  0.00     0.035 C 
HETATM   15  C   UNL     1     -43.301  55.592 -51.314  1.00  0.00     0.034 C 
BRANCH  13  16
HETATM   16  N   UNL     1     -44.283  58.467 -50.569  1.00  0.00    -0.065 N 
HETATM   17  H   UNL     1     -43.693  58.696 -49.759  1.00  0.00     0.278 HD
HETATM   18  H   UNL     1     -44.829  57.656 -50.231  1.00  0.00     0.278 HD
BRANCH  16  19
HETATM   19  C   UNL     1     -45.300  59.571 -50.725  1.00  0.00     0.299 C 
BRANCH  19  20
HETATM   20  C   UNL     1     -44.632  60.830 -51.177  1.00  0.00     0.101 A 
HETATM   21  N   UNL     1     -44.901  61.402 -52.334  1.00  0.00    -0.249 NA
HETATM   22  C   UNL     1     -44.122  62.545 -52.476  1.00  0.00     0.038 A 
HETATM   23  C   UNL     1     -44.251  63.369 -53.708  1.00  0.00     0.071 C 
HETATM   24  C   UNL     1     -43.275  62.803 -51.412  1.00  0.00     0.078 A 
HETATM   25  S   UNL     1     -43.453  61.599 -50.207  1.00  0.00    -0.083 SA
ENDBRANCH  19  20
ENDBRANCH  16  19
ENDBRANCH  13  16
ENDBRANCH   9  10
ENDBRANCH   1   9
TORSDOF 5
ENDMDL
MODEL 9
REMARK VINA RESULT:      -6.6      5.371      8.859
REMARK  5 active torsions:
REMARK  status: ('A' for Active; 'I' for Inactive)
REMARK    1  A    between atoms: C_4  and  C_5 
REMARK    2  A    between atoms: C_5  and  N_6 
REMARK    3  A    between atoms: N_6  and  C_9 
REMARK    4  A    between atoms: C_12  and  O_13 
REMARK    5  A    between atoms: O_13  and  C_14 
ROOT
HETATM    1  C   UNL     1     -43.470  56.659 -57.742  1.00  0.00     0.164 A 
HETATM    2  N   UNL     1     -44.492  57.540 -57.770  1.00  0.00    -0.236 NA
HETATM    3  C   UNL     1     -45.417  57.363 -58.748  1.00  0.00     0.142 A 
HETATM    4  C   UNL     1     -45.357  56.354 -59.700  1.00  0.00     0.062 A 
HETATM    5  C   UNL     1     -46.372  56.233 -60.697  1.00  0.00     0.101 C 
HETATM    6  N   UNL     1     -47.197  56.138 -61.506  1.00  0.00    -0.191 NA
HETATM    7  C   UNL     1     -44.279  55.470 -59.649  1.00  0.00     0.028 A 
HETATM    8  C   UNL     1     -43.317  55.626 -58.654  1.00  0.00     0.059 A 
ENDROOT
BRANCH   1   9
HETATM    9  O   UNL     1     -42.486  56.779 -56.783  1.00  0.00    -0.329 OA
BRANCH   9  10
HETATM   10  C   UNL     1     -42.955  56.863 -55.431  1.00  0.00     0.130 C 
HETATM   11  C   UNL     1     -43.649  55.525 -55.130  1.00  0.00     0.034 C 
HETATM   12  C   UNL     1     -42.678  54.344 -55.224  1.00  0.00     0.035 C 
HETATM   13  C   UNL     1     -41.433  54.515 -54.348  1.00  0.00     0.186 C 
HETATM   14  C   UNL     1     -40.779  55.889 -54.544  1.00  0.00     0.035 C 
HETATM   15  C   UNL     1     -41.771  57.053 -54.472  1.00  0.00     0.034 C 
BRANCH  13  16
HETATM   16  N   UNL     1     -41.782  54.347 -52.904  1.00  0.00    -0.065 N 
HETATM   17  H   UNL     1     -42.518  53.648 -52.741  1.00  0.00     0.278 HD
HETATM   18  H   UNL     1     -42.202  55.213 -52.527  1.00  0.00     0.278 HD
BRANCH  16  19
HETATM   19  C   UNL     1     -40.640  54.038 -51.966  1.00  0.00     0.299 C 
BRANCH  19  20
HETATM   20  C   UNL     1     -40.230  52.607 -52.103  1.00  0.00     0.101 A 
HETATM   21  N   UNL     1     -40.001  52.041 -53.271  1.00  0.00    -0.249 NA
HETATM   22  C   UNL     1     -39.646  50.711 -53.077  1.00  0.00     0.038 A 
HETATM   23  C   UNL     1     -39.335  49.858 -54.256  1.00  0.00     0.071 C 
HETATM   24  C   UNL     1     -39.621  50.306 -51.755  1.00  0.00     0.078 A 
HETATM   25  S   UNL     1     -40.045  51.609 -50.727  1.00  0.00    -0.083 SA
ENDBRANCH  19  20
ENDBRANCH  16  19
ENDBRANCH  13  16
ENDBRANCH   9  10
ENDBRANCH   1   9
TORSDOF 5
ENDMDL
MODEL 10
REMARK VINA RESULT:      -6.5      3.844      5.221
REMARK  5 active torsions:
REMARK  status: ('A' for Active; 'I' for Inactive)
REMARK    1  A    between atoms: C_4  and  C_5 
REMARK    2  A    between atoms: C_5  and  N_6 
REMARK    3  A    between atoms: N_6  and  C_9 
REMARK    4  A    between atoms: C_12  and  O_13 
REMARK    5  A    between atoms: O_13  and  C_14 
ROOT
HETATM    1  C   UNL     1     -40.629  54.222 -53.178  1.00  0.00     0.164 A 
HETATM    2  N   UNL     1     -40.382  53.616 -51.998  1.00  0.00    -0.236 NA
HETATM    3  C   UNL     1     -40.054  52.300 -52.051  1.00  0.00     0.142 A 
HETATM    4  C   UNL     1     -39.973  51.566 -53.226  1.00  0.00     0.062 A 
HETATM    5  C   UNL     1     -39.617  50.183 -53.198  1.00  0.00     0.101 C 
HETATM    6  N   UNL     1     -39.331  49.060 -53.172  1.00  0.00    -0.191 NA
HETATM    7  C   UNL     1     -40.248  52.221 -54.426  1.00  0.00     0.028 A 
HETATM    8  C   UNL     1     -40.585  53.573 -54.403  1.00  0.00     0.059 A 
ENDROOT
BRANCH   1   9
HETATM    9  O   UNL     1     -40.978  55.556 -53.206  1.00  0.00    -0.329 OA
BRANCH   9  10
HETATM   10  C   UNL     1     -42.214  55.879 -52.557  1.00  0.00     0.130 C 
HETATM   11  C   UNL     1     -42.219  57.404 -52.368  1.00  0.00     0.034 C 
HETATM   12  C   UNL     1     -42.178  58.146 -53.707  1.00  0.00     0.035 C 
HETATM   13  C   UNL     1     -43.291  57.718 -54.669  1.00  0.00     0.186 C 
HETATM   14  C   UNL     1     -43.385  56.192 -54.794  1.00  0.00     0.035 C 
HETATM   15  C   UNL     1     -43.400  55.469 -53.444  1.00  0.00     0.034 C 
BRANCH  13  16
HETATM   16  N   UNL     1     -44.612  58.248 -54.210  1.00  0.00    -0.065 N 
HETATM   17  H   UNL     1     -44.642  58.451 -53.203  1.00  0.00     0.278 HD
HETATM   18  H   UNL     1     -45.351  57.533 -54.322  1.00  0.00     0.278 HD
BRANCH  16  19
HETATM   19  C   UNL     1     -45.142  59.459 -54.939  1.00  0.00     0.299 C 
BRANCH  19  20
HETATM   20  C   UNL     1     -45.245  59.179 -56.404  1.00  0.00     0.101 A 
HETATM   21  N   UNL     1     -46.083  58.291 -56.901  1.00  0.00    -0.249 NA
HETATM   22  C   UNL     1     -45.943  58.250 -58.284  1.00  0.00     0.038 A 
HETATM   23  C   UNL     1     -46.791  57.318 -59.076  1.00  0.00     0.071 C 
HETATM   24  C   UNL     1     -44.992  59.114 -58.795  1.00  0.00     0.078 A 
HETATM   25  S   UNL     1     -44.254  60.001 -57.529  1.00  0.00    -0.083 SA
ENDBRANCH  19  20
ENDBRANCH  16  19
ENDBRANCH  13  16
ENDBRANCH   9  10
ENDBRANCH   1   9
TORSDOF 5
ENDMDL
