MODEL 1
REMARK VINA RESULT:      -9.5      0.000      0.000
REMARK  9 active torsions:
REMARK  status: ('A' for Active; 'I' for Inactive)
REMARK    1  A    between atoms: C_3  and  C_4 
REMARK    2  A    between atoms: C_4  and  C_5 
REMARK       I    between atoms: C_5  and  N_6 
REMARK    3  A    between atoms: N_6  and  C_7 
REMARK    4  A    between atoms: C_7  and  C_8 
REMARK    5  A    between atoms: C_18  and  N_19 
REMARK       I    between atoms: N_19  and  C_20 
REMARK    6  A    between atoms: C_20  and  C_21 
REMARK    7  A    between atoms: C_29  and  C_30 
REMARK    8  A    between atoms: C_30  and  O_31 
REMARK    9  A    between atoms: C_33  and  O_34 
ROOT
HETATM    1  C   UNL     1     -43.768  56.113 -50.837  1.00  0.00     0.016 C 
HETATM    2  C   UNL     1     -42.695  57.002 -51.559  1.00  0.00    -0.030 C 
HETATM    3  C   UNL     1     -42.415  56.248 -52.961  1.00  0.00     0.056 C 
HETATM    4  C   UNL     1     -43.271  56.815 -54.068  1.00  0.00     0.056 A 
HETATM    5  C   UNL     1     -44.203  57.814 -53.892  1.00  0.00     0.012 A 
HETATM    6  S   UNL     1     -45.000  58.148 -55.349  1.00  0.00    -0.055 SA
HETATM    7  C   UNL     1     -44.063  56.957 -56.131  1.00  0.00     0.173 A 
HETATM    8  N   UNL     1     -43.202  56.322 -55.362  1.00  0.00    -0.227 NA
HETATM    9  C   UNL     1     -44.519  58.522 -52.631  1.00  0.00     0.055 C 
HETATM   10  C   UNL     1     -43.314  58.473 -51.662  1.00  0.00     0.012 C 
HETATM   11  C   UNL     1     -42.290  59.671 -51.838  1.00  0.00     0.008 C 
HETATM   12  C   UNL     1     -43.014  61.018 -51.540  1.00  0.00     0.020 C 
HETATM   13  C   UNL     1     -41.135  59.520 -50.805  1.00  0.00     0.128 C 
HETATM   14  C   UNL     1     -40.477  58.145 -50.854  1.00  0.00     0.033 C 
HETATM   15  C   UNL     1     -41.484  57.027 -50.590  1.00  0.00     0.013 C 
ENDROOT
BRANCH   3  16
HETATM   16  C   UNL     1     -40.940  56.094 -53.380  1.00  0.00     0.114 C 
BRANCH  16  17
HETATM   17  C   UNL     1     -40.577  54.958 -54.326  1.00  0.00     0.218 C 
HETATM   18  N   UNL     1     -41.261  53.775 -54.141  1.00  0.00    -0.357 N 
HETATM   19  H   UNL     1     -41.861  53.697 -53.333  1.00  0.00     0.162 HD
HETATM   20  O   UNL     1     -39.615  55.060 -55.083  1.00  0.00    -0.274 OA
BRANCH  18  21
HETATM   21  C   UNL     1     -40.747  52.528 -54.670  1.00  0.00     0.162 C 
BRANCH  21  22
HETATM   22  C   UNL     1     -40.234  51.544 -53.659  1.00  0.00    -0.023 A 
HETATM   23  C   UNL     1     -40.018  50.203 -53.960  1.00  0.00     0.125 A 
HETATM   24  N   UNL     1     -39.592  49.278 -53.065  1.00  0.00    -0.273 NA
HETATM   25  C   UNL     1     -39.369  49.716 -51.807  1.00  0.00     0.116 A 
HETATM   26  C   UNL     1     -39.559  51.025 -51.398  1.00  0.00     0.020 A 
HETATM   27  C   UNL     1     -40.004  51.947 -52.340  1.00  0.00     0.012 A 
ENDBRANCH  21  22
ENDBRANCH  18  21
ENDBRANCH  16  17
ENDBRANCH   3  16
BRANCH  11  28
HETATM   28  C   UNL     1     -41.720  59.792 -53.271  1.00  0.00     0.176 C 
BRANCH  28  29
HETATM   29  O   UNL     1     -42.083  61.038 -53.859  1.00  0.00    -0.400 OA
HETATM   30  H   UNL     1     -42.777  61.424 -53.294  1.00  0.00     0.209 HD
ENDBRANCH  28  29
ENDBRANCH  11  28
BRANCH   7  31
HETATM   31  N   UNL     1     -44.175  56.696 -57.476  1.00  0.00    -0.305 N 
HETATM   32  C   UNL     1     -43.258  57.026 -58.455  1.00  0.00     0.227 C 
HETATM   33  O   UNL     1     -42.225  57.679 -58.278  1.00  0.00    -0.273 OA
HETATM   34  H   UNL     1     -45.026  56.206 -57.723  1.00  0.00     0.171 HD
BRANCH  32  35
HETATM   35  C   UNL     1     -43.633  56.493 -59.868  1.00  0.00     0.078 C 
HETATM   36  C   UNL     1     -43.949  54.975 -59.984  1.00  0.00     0.014 C 
HETATM   37  C   UNL     1     -45.081  55.337 -60.960  1.00  0.00     0.002 C 
HETATM   38  C   UNL     1     -45.099  56.739 -60.327  1.00  0.00     0.014 C 
ENDBRANCH  32  35
ENDBRANCH   7  31
BRANCH  13  39
HETATM   39  O   UNL     1     -41.625  59.700 -49.471  1.00  0.00    -0.395 OA
HETATM   40  H   UNL     1     -42.197  58.937 -49.273  1.00  0.00     0.210 HD
ENDBRANCH  13  39
TORSDOF 9
ENDMDL
MODEL 2
REMARK VINA RESULT:      -8.7      1.531      1.667
REMARK  9 active torsions:
REMARK  status: ('A' for Active; 'I' for Inactive)
REMARK    1  A    between atoms: C_3  and  C_4 
REMARK    2  A    between atoms: C_4  and  C_5 
REMARK       I    between atoms: C_5  and  N_6 
REMARK    3  A    between atoms: N_6  and  C_7 
REMARK    4  A    between atoms: C_7  and  C_8 
REMARK    5  A    between atoms: C_18  and  N_19 
REMARK       I    between atoms: N_19  and  C_20 
REMARK    6  A    between atoms: C_20  and  C_21 
REMARK    7  A    between atoms: C_29  and  C_30 
REMARK    8  A    between atoms: C_30  and  O_31 
REMARK    9  A    between atoms: C_33  and  O_34 
ROOT
HETATM    1  C   UNL     1     -44.358  56.534 -50.865  1.00  0.00     0.016 C 
HETATM    2  C   UNL     1     -43.171  57.213 -51.635  1.00  0.00    -0.030 C 
HETATM    3  C   UNL     1     -43.181  56.521 -53.096  1.00  0.00     0.056 C 
HETATM    4  C   UNL     1     -43.970  57.344 -54.086  1.00  0.00     0.056 A 
HETATM    5  C   UNL     1     -44.632  58.509 -53.771  1.00  0.00     0.012 A 
HETATM    6  S   UNL     1     -45.445  59.118 -55.127  1.00  0.00    -0.055 SA
HETATM    7  C   UNL     1     -44.867  57.810 -56.056  1.00  0.00     0.173 A 
HETATM    8  N   UNL     1     -44.116  56.945 -55.405  1.00  0.00    -0.227 NA
HETATM    9  C   UNL     1     -44.679  59.174 -52.449  1.00  0.00     0.055 C 
HETATM   10  C   UNL     1     -43.445  58.788 -51.600  1.00  0.00     0.012 C 
HETATM   11  C   UNL     1     -42.192  59.738 -51.805  1.00  0.00     0.008 C 
HETATM   12  C   UNL     1     -42.565  61.187 -51.370  1.00  0.00     0.020 C 
HETATM   13  C   UNL     1     -41.024  59.259 -50.895  1.00  0.00     0.128 C 
HETATM   14  C   UNL     1     -40.703  57.779 -51.079  1.00  0.00     0.033 C 
HETATM   15  C   UNL     1     -41.914  56.896 -50.783  1.00  0.00     0.013 C 
ENDROOT
BRANCH   3  16
HETATM   16  C   UNL     1     -41.817  56.074 -53.658  1.00  0.00     0.114 C 
BRANCH  16  17
HETATM   17  C   UNL     1     -41.658  54.623 -54.086  1.00  0.00     0.218 C 
HETATM   18  N   UNL     1     -40.473  54.014 -53.730  1.00  0.00    -0.357 N 
HETATM   19  H   UNL     1     -39.750  54.588 -53.322  1.00  0.00     0.162 HD
HETATM   20  O   UNL     1     -42.472  54.103 -54.845  1.00  0.00    -0.274 OA
BRANCH  18  21
HETATM   21  C   UNL     1     -40.021  52.813 -54.404  1.00  0.00     0.162 C 
BRANCH  21  22
HETATM   22  C   UNL     1     -39.805  51.609 -53.534  1.00  0.00    -0.023 A 
HETATM   23  C   UNL     1     -39.755  50.315 -54.042  1.00  0.00     0.125 A 
HETATM   24  N   UNL     1     -39.599  49.202 -53.284  1.00  0.00    -0.273 NA
HETATM   25  C   UNL     1     -39.487  49.392 -51.952  1.00  0.00     0.116 A 
HETATM   26  C   UNL     1     -39.531  50.634 -51.341  1.00  0.00     0.020 A 
HETATM   27  C   UNL     1     -39.699  51.755 -52.147  1.00  0.00     0.012 A 
ENDBRANCH  21  22
ENDBRANCH  18  21
ENDBRANCH  16  17
ENDBRANCH   3  16
BRANCH  11  28
HETATM   28  C   UNL     1     -41.723  59.834 -53.277  1.00  0.00     0.176 C 
BRANCH  28  29
HETATM   29  O   UNL     1     -42.043  61.109 -53.829  1.00  0.00    -0.400 OA
HETATM   30  H   UNL     1     -41.376  61.736 -53.495  1.00  0.00     0.209 HD
ENDBRANCH  28  29
ENDBRANCH  11  28
BRANCH   7  31
HETATM   31  N   UNL     1     -45.141  57.680 -57.397  1.00  0.00    -0.305 N 
HETATM   32  C   UNL     1     -46.378  57.809 -57.998  1.00  0.00     0.227 C 
HETATM   33  O   UNL     1     -47.446  57.988 -57.406  1.00  0.00    -0.273 OA
HETATM   34  H   UNL     1     -44.323  57.477 -57.958  1.00  0.00     0.171 HD
BRANCH  32  35
HETATM   35  C   UNL     1     -46.332  57.709 -59.550  1.00  0.00     0.078 C 
HETATM   36  C   UNL     1     -46.862  56.391 -60.183  1.00  0.00     0.014 C 
HETATM   37  C   UNL     1     -47.499  57.242 -61.296  1.00  0.00     0.002 C 
HETATM   38  C   UNL     1     -47.476  58.430 -60.319  1.00  0.00     0.014 C 
ENDBRANCH  32  35
ENDBRANCH   7  31
BRANCH  13  39
HETATM   39  O   UNL     1     -41.355  59.444 -49.513  1.00  0.00    -0.395 OA
HETATM   40  H   UNL     1     -42.261  59.110 -49.389  1.00  0.00     0.210 HD
ENDBRANCH  13  39
TORSDOF 9
ENDMDL
MODEL 3
REMARK VINA RESULT:      -8.4      3.194      6.824
REMARK  9 active torsions:
REMARK  status: ('A' for Active; 'I' for Inactive)
REMARK    1  A    between atoms: C_3  and  C_4 
REMARK    2  A    between atoms: C_4  and  C_5 
REMARK       I    between atoms: C_5  and  N_6 
REMARK    3  A    between atoms: N_6  and  C_7 
REMARK    4  A    between atoms: C_7  and  C_8 
REMARK    5  A    between atoms: C_18  and  N_19 
REMARK       I    between atoms: N_19  and  C_20 
REMARK    6  A    between atoms: C_20  and  C_21 
REMARK    7  A    between atoms: C_29  and  C_30 
REMARK    8  A    between atoms: C_30  and  O_31 
REMARK    9  A    between atoms: C_33  and  O_34 
ROOT
HETATM    1  C   UNL     1     -40.067  57.697 -53.614  1.00  0.00     0.016 C 
HETATM    2  C   UNL     1     -41.597  57.416 -53.823  1.00  0.00    -0.030 C 
HETATM    3  C   UNL     1     -42.230  57.476 -52.337  1.00  0.00     0.056 C 
HETATM    4  C   UNL     1     -42.776  58.851 -52.029  1.00  0.00     0.056 A 
HETATM    5  C   UNL     1     -42.700  59.924 -52.889  1.00  0.00     0.012 A 
HETATM    6  S   UNL     1     -43.372  61.306 -52.176  1.00  0.00    -0.055 SA
HETATM    7  C   UNL     1     -43.732  60.404 -50.775  1.00  0.00     0.173 A 
HETATM    8  N   UNL     1     -43.367  59.138 -50.809  1.00  0.00    -0.227 NA
HETATM    9  C   UNL     1     -42.111  59.934 -54.247  1.00  0.00     0.055 C 
HETATM   10  C   UNL     1     -42.126  58.514 -54.859  1.00  0.00     0.012 C 
HETATM   11  C   UNL     1     -43.451  58.165 -55.658  1.00  0.00     0.008 C 
HETATM   12  C   UNL     1     -43.601  59.142 -56.862  1.00  0.00     0.020 C 
HETATM   13  C   UNL     1     -43.343  56.723 -56.234  1.00  0.00     0.128 C 
HETATM   14  C   UNL     1     -42.984  55.689 -55.171  1.00  0.00     0.033 C 
HETATM   15  C   UNL     1     -41.656  56.017 -54.490  1.00  0.00     0.013 C 
ENDROOT
BRANCH   3  16
HETATM   16  C   UNL     1     -43.218  56.355 -51.961  1.00  0.00     0.114 C 
BRANCH  16  17
HETATM   17  C   UNL     1     -42.720  55.229 -51.068  1.00  0.00     0.218 C 
HETATM   18  N   UNL     1     -41.354  55.038 -51.039  1.00  0.00    -0.357 N 
HETATM   19  H   UNL     1     -40.790  55.565 -51.689  1.00  0.00     0.162 HD
HETATM   20  O   UNL     1     -43.512  54.445 -50.550  1.00  0.00    -0.274 OA
BRANCH  18  21
HETATM   21  C   UNL     1     -40.787  53.786 -50.580  1.00  0.00     0.162 C 
BRANCH  21  22
HETATM   22  C   UNL     1     -40.424  52.795 -51.648  1.00  0.00    -0.023 A 
HETATM   23  C   UNL     1     -39.859  51.556 -51.360  1.00  0.00     0.125 A 
HETATM   24  N   UNL     1     -39.484  50.652 -52.298  1.00  0.00    -0.273 NA
HETATM   25  C   UNL     1     -39.684  51.003 -53.587  1.00  0.00     0.116 A 
HETATM   26  C   UNL     1     -40.230  52.212 -53.984  1.00  0.00     0.020 A 
HETATM   27  C   UNL     1     -40.598  53.120 -52.997  1.00  0.00     0.012 A 
ENDBRANCH  21  22
ENDBRANCH  18  21
ENDBRANCH  16  17
ENDBRANCH   3  16
BRANCH  11  28
HETATM   28  C   UNL     1     -44.739  58.314 -54.814  1.00  0.00     0.176 C 
BRANCH  28  29
HETATM   29  O   UNL     1     -45.848  57.704 -55.469  1.00  0.00    -0.400 OA
HETATM   30  H   UNL     1     -45.936  56.807 -55.099  1.00  0.00     0.209 HD
ENDBRANCH  28  29
ENDBRANCH  11  28
BRANCH   7  31
HETATM   31  N   UNL     1     -44.384  60.949 -49.694  1.00  0.00    -0.305 N 
HETATM   32  C   UNL     1     -45.492  60.427 -49.055  1.00  0.00     0.227 C 
HETATM   33  O   UNL     1     -46.115  59.422 -49.410  1.00  0.00    -0.273 OA
HETATM   34  H   UNL     1     -43.970  61.812 -49.366  1.00  0.00     0.171 HD
BRANCH  32  35
HETATM   35  C   UNL     1     -45.924  61.231 -47.796  1.00  0.00     0.078 C 
HETATM   36  C   UNL     1     -45.431  60.698 -46.420  1.00  0.00     0.014 C 
HETATM   37  C   UNL     1     -45.201  62.158 -45.994  1.00  0.00     0.002 C 
HETATM   38  C   UNL     1     -45.103  62.517 -47.487  1.00  0.00     0.014 C 
ENDBRANCH  32  35
ENDBRANCH   7  31
BRANCH  13  39
HETATM   39  O   UNL     1     -42.324  56.657 -57.240  1.00  0.00    -0.395 OA
HETATM   40  H   UNL     1     -41.502  56.383 -56.795  1.00  0.00     0.210 HD
ENDBRANCH  13  39
TORSDOF 9
ENDMDL
MODEL 4
REMARK VINA RESULT:      -8.4      2.446      6.893
REMARK  9 active torsions:
REMARK  status: ('A' for Active; 'I' for Inactive)
REMARK    1  A    between atoms: C_3  and  C_4 
REMARK    2  A    between atoms: C_4  and  C_5 
REMARK       I    between atoms: C_5  and  N_6 
REMARK    3  A    between atoms: N_6  and  C_7 
REMARK    4  A    between atoms: C_7  and  C_8 
REMARK    5  A    between atoms: C_18  and  N_19 
REMARK       I    between atoms: N_19  and  C_20 
REMARK    6  A    between atoms: C_20  and  C_21 
REMARK    7  A    between atoms: C_29  and  C_30 
REMARK    8  A    between atoms: C_30  and  O_31 
REMARK    9  A    between atoms: C_33  and  O_34 
ROOT
HETATM    1  C   UNL     1     -41.863  57.427 -59.945  1.00  0.00     0.016 C 
HETATM    2  C   UNL     1     -43.163  57.151 -59.110  1.00  0.00    -0.030 C 
HETATM    3  C   UNL     1     -42.625  56.681 -57.660  1.00  0.00     0.056 C 
HETATM    4  C   UNL     1     -42.552  57.845 -56.700  1.00  0.00     0.056 A 
HETATM    5  C   UNL     1     -42.859  59.145 -57.034  1.00  0.00     0.012 A 
HETATM    6  S   UNL     1     -42.608  60.175 -55.712  1.00  0.00    -0.055 SA
HETATM    7  C   UNL     1     -42.115  58.841 -54.772  1.00  0.00     0.173 A 
HETATM    8  N   UNL     1     -42.117  57.680 -55.394  1.00  0.00    -0.227 NA
HETATM    9  C   UNL     1     -43.331  59.636 -58.349  1.00  0.00     0.055 C 
HETATM   10  C   UNL     1     -44.020  58.501 -59.140  1.00  0.00     0.012 C 
HETATM   11  C   UNL     1     -45.576  58.367 -58.862  1.00  0.00     0.008 C 
HETATM   12  C   UNL     1     -46.294  59.679 -59.299  1.00  0.00     0.020 C 
HETATM   13  C   UNL     1     -46.158  57.206 -59.720  1.00  0.00     0.128 C 
HETATM   14  C   UNL     1     -45.392  55.899 -59.537  1.00  0.00     0.033 C 
HETATM   15  C   UNL     1     -43.917  56.052 -59.903  1.00  0.00     0.013 C 
ENDROOT
BRANCH   3  16
HETATM   16  C   UNL     1     -43.308  55.448 -57.037  1.00  0.00     0.114 C 
BRANCH  16  17
HETATM   17  C   UNL     1     -42.568  54.696 -55.941  1.00  0.00     0.218 C 
HETATM   18  N   UNL     1     -41.210  54.919 -55.863  1.00  0.00    -0.357 N 
HETATM   19  H   UNL     1     -40.778  55.463 -56.596  1.00  0.00     0.162 HD
HETATM   20  O   UNL     1     -43.137  53.822 -55.291  1.00  0.00    -0.274 OA
BRANCH  18  21
HETATM   21  C   UNL     1     -40.341  53.991 -55.169  1.00  0.00     0.162 C 
BRANCH  21  22
HETATM   22  C   UNL     1     -40.508  53.919 -53.679  1.00  0.00    -0.023 A 
HETATM   23  C   UNL     1     -40.904  55.012 -52.914  1.00  0.00     0.125 A 
HETATM   24  N   UNL     1     -41.029  54.994 -51.564  1.00  0.00    -0.273 NA
HETATM   25  C   UNL     1     -40.745  53.827 -50.948  1.00  0.00     0.116 A 
HETATM   26  C   UNL     1     -40.335  52.682 -51.611  1.00  0.00     0.020 A 
HETATM   27  C   UNL     1     -40.210  52.735 -52.995  1.00  0.00     0.012 A 
ENDBRANCH  21  22
ENDBRANCH  18  21
ENDBRANCH  16  17
ENDBRANCH   3  16
BRANCH  11  28
HETATM   28  C   UNL     1     -45.922  58.160 -57.368  1.00  0.00     0.176 C 
BRANCH  28  29
HETATM   29  O   UNL     1     -47.282  57.765 -57.212  1.00  0.00    -0.400 OA
HETATM   30  H   UNL     1     -47.457  57.082 -57.884  1.00  0.00     0.209 HD
ENDBRANCH  28  29
ENDBRANCH  11  28
BRANCH   7  31
HETATM   31  N   UNL     1     -41.765  58.961 -53.448  1.00  0.00    -0.305 N 
HETATM   32  C   UNL     1     -42.441  58.424 -52.369  1.00  0.00     0.227 C 
HETATM   33  O   UNL     1     -43.512  57.812 -52.427  1.00  0.00    -0.273 OA
HETATM   34  H   UNL     1     -40.920  59.498 -53.300  1.00  0.00     0.171 HD
BRANCH  32  35
HETATM   35  C   UNL     1     -41.725  58.652 -51.006  1.00  0.00     0.078 C 
HETATM   36  C   UNL     1     -40.179  58.493 -50.992  1.00  0.00     0.014 C 
HETATM   37  C   UNL     1     -40.113  59.704 -50.046  1.00  0.00     0.002 C 
HETATM   38  C   UNL     1     -41.484  60.134 -50.598  1.00  0.00     0.014 C 
ENDBRANCH  32  35
ENDBRANCH   7  31
BRANCH  13  39
HETATM   39  O   UNL     1     -46.099  57.531 -61.114  1.00  0.00    -0.395 OA
HETATM   40  H   UNL     1     -45.191  57.343 -61.413  1.00  0.00     0.210 HD
ENDBRANCH  13  39
TORSDOF 9
ENDMDL
MODEL 5
REMARK VINA RESULT:      -8.2      2.198      7.009
REMARK  9 active torsions:
REMARK  status: ('A' for Active; 'I' for Inactive)
REMARK    1  A    between atoms: C_3  and  C_4 
REMARK    2  A    between atoms: C_4  and  C_5 
REMARK       I    between atoms: C_5  and  N_6 
REMARK    3  A    between atoms: N_6  and  C_7 
REMARK    4  A    between atoms: C_7  and  C_8 
REMARK    5  A    between atoms: C_18  and  N_19 
REMARK       I    between atoms: N_19  and  C_20 
REMARK    6  A    between atoms: C_20  and  C_21 
REMARK    7  A    between atoms: C_29  and  C_30 
REMARK    8  A    between atoms: C_30  and  O_31 
REMARK    9  A    between atoms: C_33  and  O_34 
ROOT
HETATM    1  C   UNL     1     -41.912  57.255 -60.120  1.00  0.00     0.016 C 
HETATM    2  C   UNL     1     -43.224  56.786 -59.397  1.00  0.00    -0.030 C 
HETATM    3  C   UNL     1     -42.873  56.868 -57.821  1.00  0.00     0.056 C 
HETATM    4  C   UNL     1     -43.312  58.186 -57.230  1.00  0.00     0.056 A 
HETATM    5  C   UNL     1     -43.893  59.204 -57.953  1.00  0.00     0.012 A 
HETATM    6  S   UNL     1     -44.199  60.542 -56.960  1.00  0.00    -0.055 SA
HETATM    7  C   UNL     1     -43.552  59.695 -55.628  1.00  0.00     0.173 A 
HETATM    8  N   UNL     1     -43.113  58.481 -55.890  1.00  0.00    -0.227 NA
HETATM    9  C   UNL     1     -44.214  59.195 -59.399  1.00  0.00     0.055 C 
HETATM   10  C   UNL     1     -44.396  57.746 -59.908  1.00  0.00     0.012 C 
HETATM   11  C   UNL     1     -45.878  57.196 -59.785  1.00  0.00     0.008 C 
HETATM   12  C   UNL     1     -46.828  58.070 -60.657  1.00  0.00     0.020 C 
HETATM   13  C   UNL     1     -45.938  55.742 -60.338  1.00  0.00     0.128 C 
HETATM   14  C   UNL     1     -44.895  54.828 -59.704  1.00  0.00     0.033 C 
HETATM   15  C   UNL     1     -43.476  55.350 -59.926  1.00  0.00     0.013 C 
ENDROOT
BRANCH   3  16
HETATM   16  C   UNL     1     -43.300  55.666 -56.956  1.00  0.00     0.114 C 
BRANCH  16  17
HETATM   17  C   UNL     1     -42.405  55.267 -55.791  1.00  0.00     0.218 C 
HETATM   18  N   UNL     1     -42.973  54.435 -54.849  1.00  0.00    -0.357 N 
HETATM   19  H   UNL     1     -43.961  54.242 -54.924  1.00  0.00     0.162 HD
HETATM   20  O   UNL     1     -41.310  55.801 -55.633  1.00  0.00    -0.274 OA
BRANCH  18  21
HETATM   21  C   UNL     1     -42.404  54.314 -53.523  1.00  0.00     0.162 C 
BRANCH  21  22
HETATM   22  C   UNL     1     -41.385  53.226 -53.338  1.00  0.00    -0.023 A 
HETATM   23  C   UNL     1     -40.620  53.103 -52.183  1.00  0.00     0.125 A 
HETATM   24  N   UNL     1     -39.666  52.158 -51.995  1.00  0.00    -0.273 NA
HETATM   25  C   UNL     1     -39.467  51.293 -53.013  1.00  0.00     0.116 A 
HETATM   26  C   UNL     1     -40.166  51.331 -54.209  1.00  0.00     0.020 A 
HETATM   27  C   UNL     1     -41.133  52.317 -54.371  1.00  0.00     0.012 A 
ENDBRANCH  21  22
ENDBRANCH  18  21
ENDBRANCH  16  17
ENDBRANCH   3  16
BRANCH  11  28
HETATM   28  C   UNL     1     -46.440  57.249 -58.344  1.00  0.00     0.176 C 
BRANCH  28  29
HETATM   29  O   UNL     1     -47.368  58.320 -58.200  1.00  0.00    -0.400 OA
HETATM   30  H   UNL     1     -46.844  59.139 -58.128  1.00  0.00     0.209 HD
ENDBRANCH  28  29
ENDBRANCH  11  28
BRANCH   7  31
HETATM   31  N   UNL     1     -43.516  60.229 -54.362  1.00  0.00    -0.305 N 
HETATM   32  C   UNL     1     -42.395  60.393 -53.572  1.00  0.00     0.227 C 
HETATM   33  O   UNL     1     -41.256  60.012 -53.858  1.00  0.00    -0.273 OA
HETATM   34  H   UNL     1     -44.423  60.522 -54.021  1.00  0.00     0.171 HD
BRANCH  32  35
HETATM   35  C   UNL     1     -42.677  61.128 -52.230  1.00  0.00     0.078 C 
HETATM   36  C   UNL     1     -44.106  60.976 -51.635  1.00  0.00     0.014 C 
HETATM   37  C   UNL     1     -43.460  60.875 -50.242  1.00  0.00     0.002 C 
HETATM   38  C   UNL     1     -42.165  60.424 -50.940  1.00  0.00     0.014 C 
ENDBRANCH  32  35
ENDBRANCH   7  31
BRANCH  13  39
HETATM   39  O   UNL     1     -45.699  55.731 -61.751  1.00  0.00    -0.395 OA
HETATM   40  H   UNL     1     -45.767  56.652 -62.059  1.00  0.00     0.210 HD
ENDBRANCH  13  39
TORSDOF 9
ENDMDL
MODEL 6
REMARK VINA RESULT:      -8.1      2.368      6.754
REMARK  9 active torsions:
REMARK  status: ('A' for Active; 'I' for Inactive)
REMARK    1  A    between atoms: C_3  and  C_4 
REMARK    2  A    between atoms: C_4  and  C_5 
REMARK       I    between atoms: C_5  and  N_6 
REMARK    3  A    between atoms: N_6  and  C_7 
REMARK    4  A    between atoms: C_7  and  C_8 
REMARK    5  A    between atoms: C_18  and  N_19 
REMARK       I    between atoms: N_19  and  C_20 
REMARK    6  A    between atoms: C_20  and  C_21 
REMARK    7  A    between atoms: C_29  and  C_30 
REMARK    8  A    between atoms: C_30  and  O_31 
REMARK    9  A    between atoms: C_33  and  O_34 
ROOT
HETATM    1  C   UNL     1     -42.635  61.550 -53.846  1.00  0.00     0.016 C 
HETATM    2  C   UNL     1     -43.888  60.802 -53.269  1.00  0.00    -0.030 C 
HETATM    3  C   UNL     1     -43.839  59.336 -53.950  1.00  0.00     0.056 C 
HETATM    4  C   UNL     1     -43.139  58.340 -53.057  1.00  0.00     0.056 A 
HETATM    5  C   UNL     1     -42.576  58.654 -51.840  1.00  0.00     0.012 A 
HETATM    6  S   UNL     1     -41.840  57.290 -51.155  1.00  0.00    -0.055 SA
HETATM    7  C   UNL     1     -42.314  56.361 -52.504  1.00  0.00     0.173 A 
HETATM    8  N   UNL     1     -42.978  57.017 -53.435  1.00  0.00    -0.227 NA
HETATM    9  C   UNL     1     -42.569  59.979 -51.179  1.00  0.00     0.055 C 
HETATM   10  C   UNL     1     -43.752  60.842 -51.676  1.00  0.00     0.012 C 
HETATM   11  C   UNL     1     -45.086  60.660 -50.838  1.00  0.00     0.008 C 
HETATM   12  C   UNL     1     -44.835  61.100 -49.365  1.00  0.00     0.020 C 
HETATM   13  C   UNL     1     -46.194  61.584 -51.422  1.00  0.00     0.128 C 
HETATM   14  C   UNL     1     -46.388  61.395 -52.923  1.00  0.00     0.033 C 
HETATM   15  C   UNL     1     -45.100  61.669 -53.698  1.00  0.00     0.013 C 
ENDROOT
BRANCH   3  16
HETATM   16  C   UNL     1     -45.166  58.791 -54.512  1.00  0.00     0.114 C 
BRANCH  16  17
HETATM   17  C   UNL     1     -45.253  58.510 -56.005  1.00  0.00     0.218 C 
HETATM   18  N   UNL     1     -44.125  57.968 -56.585  1.00  0.00    -0.357 N 
HETATM   19  H   UNL     1     -43.289  57.904 -56.023  1.00  0.00     0.162 HD
HETATM   20  O   UNL     1     -46.213  58.906 -56.660  1.00  0.00    -0.274 OA
BRANCH  18  21
HETATM   21  C   UNL     1     -43.920  58.034 -58.018  1.00  0.00     0.162 C 
BRANCH  21  22
HETATM   22  C   UNL     1     -44.414  56.859 -58.810  1.00  0.00    -0.023 A 
HETATM   23  C   UNL     1     -43.720  55.655 -58.879  1.00  0.00     0.125 A 
HETATM   24  N   UNL     1     -44.116  54.586 -59.613  1.00  0.00    -0.273 NA
HETATM   25  C   UNL     1     -45.263  54.727 -60.313  1.00  0.00     0.116 A 
HETATM   26  C   UNL     1     -46.026  55.883 -60.322  1.00  0.00     0.020 A 
HETATM   27  C   UNL     1     -45.589  56.963 -59.563  1.00  0.00     0.012 A 
ENDBRANCH  21  22
ENDBRANCH  18  21
ENDBRANCH  16  17
ENDBRANCH   3  16
BRANCH  11  28
HETATM   28  C   UNL     1     -45.582  59.196 -50.776  1.00  0.00     0.176 C 
BRANCH  28  29
HETATM   29  O   UNL     1     -45.905  58.826 -49.438  1.00  0.00    -0.400 OA
HETATM   30  H   UNL     1     -46.567  59.466 -49.120  1.00  0.00     0.209 HD
ENDBRANCH  28  29
ENDBRANCH  11  28
BRANCH   7  31
HETATM   31  N   UNL     1     -42.050  55.016 -52.603  1.00  0.00    -0.305 N 
HETATM   32  C   UNL     1     -41.064  54.428 -53.372  1.00  0.00     0.227 C 
HETATM   33  O   UNL     1     -40.313  55.024 -54.151  1.00  0.00    -0.273 OA
HETATM   34  H   UNL     1     -42.658  54.442 -52.034  1.00  0.00     0.171 HD
BRANCH  32  35
HETATM   35  C   UNL     1     -40.956  52.888 -53.180  1.00  0.00     0.078 C 
HETATM   36  C   UNL     1     -40.153  52.102 -54.254  1.00  0.00     0.014 C 
HETATM   37  C   UNL     1     -39.579  51.237 -53.119  1.00  0.00     0.002 C 
HETATM   38  C   UNL     1     -39.892  52.396 -52.157  1.00  0.00     0.014 C 
ENDBRANCH  32  35
ENDBRANCH   7  31
BRANCH  13  39
HETATM   39  O   UNL     1     -45.861  62.963 -51.216  1.00  0.00    -0.395 OA
HETATM   40  H   UNL     1     -45.800  63.100 -50.253  1.00  0.00     0.210 HD
ENDBRANCH  13  39
TORSDOF 9
ENDMDL
MODEL 7
REMARK VINA RESULT:      -8.0      2.515      6.742
REMARK  9 active torsions:
REMARK  status: ('A' for Active; 'I' for Inactive)
REMARK    1  A    between atoms: C_3  and  C_4 
REMARK    2  A    between atoms: C_4  and  C_5 
REMARK       I    between atoms: C_5  and  N_6 
REMARK    3  A    between atoms: N_6  and  C_7 
REMARK    4  A    between atoms: C_7  and  C_8 
REMARK    5  A    between atoms: C_18  and  N_19 
REMARK       I    between atoms: N_19  and  C_20 
REMARK    6  A    between atoms: C_20  and  C_21 
REMARK    7  A    between atoms: C_29  and  C_30 
REMARK    8  A    between atoms: C_30  and  O_31 
REMARK    9  A    between atoms: C_33  and  O_34 
ROOT
HETATM    1  C   UNL     1     -45.848  59.363 -56.105  1.00  0.00     0.016 C 
HETATM    2  C   UNL     1     -44.448  59.648 -56.754  1.00  0.00    -0.030 C 
HETATM    3  C   UNL     1     -43.381  59.006 -55.724  1.00  0.00     0.056 C 
HETATM    4  C   UNL     1     -43.007  57.600 -56.128  1.00  0.00     0.056 A 
HETATM    5  C   UNL     1     -43.544  56.936 -57.209  1.00  0.00     0.012 A 
HETATM    6  S   UNL     1     -42.920  55.365 -57.312  1.00  0.00    -0.055 SA
HETATM    7  C   UNL     1     -41.970  55.655 -55.926  1.00  0.00     0.173 A 
HETATM    8  N   UNL     1     -42.105  56.851 -55.390  1.00  0.00    -0.227 NA
HETATM    9  C   UNL     1     -44.540  57.463 -58.169  1.00  0.00     0.055 C 
HETATM   10  C   UNL     1     -44.485  59.008 -58.219  1.00  0.00     0.012 C 
HETATM   11  C   UNL     1     -43.459  59.588 -59.281  1.00  0.00     0.008 C 
HETATM   12  C   UNL     1     -43.883  59.136 -60.710  1.00  0.00     0.020 C 
HETATM   13  C   UNL     1     -43.503  61.143 -59.247  1.00  0.00     0.128 C 
HETATM   14  C   UNL     1     -43.311  61.708 -57.843  1.00  0.00     0.033 C 
HETATM   15  C   UNL     1     -44.375  61.193 -56.876  1.00  0.00     0.013 C 
ENDROOT
BRANCH   3  16
HETATM   16  C   UNL     1     -42.149  59.866 -55.382  1.00  0.00     0.114 C 
BRANCH  16  17
HETATM   17  C   UNL     1     -41.785  60.048 -53.916  1.00  0.00     0.218 C 
HETATM   18  N   UNL     1     -40.993  59.065 -53.362  1.00  0.00    -0.357 N 
HETATM   19  H   UNL     1     -40.805  58.242 -53.915  1.00  0.00     0.162 HD
HETATM   20  O   UNL     1     -42.315  60.931 -53.246  1.00  0.00    -0.274 OA
BRANCH  18  21
HETATM   21  C   UNL     1     -40.915  58.892 -51.926  1.00  0.00     0.162 C 
BRANCH  21  22
HETATM   22  C   UNL     1     -41.597  57.676 -51.369  1.00  0.00    -0.023 A 
HETATM   23  C   UNL     1     -40.978  56.814 -50.470  1.00  0.00     0.125 A 
HETATM   24  N   UNL     1     -41.548  55.687 -49.975  1.00  0.00    -0.273 NA
HETATM   25  C   UNL     1     -42.799  55.409 -50.400  1.00  0.00     0.116 A 
HETATM   26  C   UNL     1     -43.503  56.193 -51.299  1.00  0.00     0.020 A 
HETATM   27  C   UNL     1     -42.887  57.338 -51.792  1.00  0.00     0.012 A 
ENDBRANCH  21  22
ENDBRANCH  18  21
ENDBRANCH  16  17
ENDBRANCH   3  16
BRANCH  11  28
HETATM   28  C   UNL     1     -42.010  59.085 -59.078  1.00  0.00     0.176 C 
BRANCH  28  29
HETATM   29  O   UNL     1     -41.675  58.097 -60.050  1.00  0.00    -0.400 OA
HETATM   30  H   UNL     1     -40.709  58.138 -60.172  1.00  0.00     0.209 HD
ENDBRANCH  28  29
ENDBRANCH  11  28
BRANCH   7  31
HETATM   31  N   UNL     1     -41.101  54.718 -55.418  1.00  0.00    -0.305 N 
HETATM   32  C   UNL     1     -41.356  53.839 -54.383  1.00  0.00     0.227 C 
HETATM   33  O   UNL     1     -42.386  53.814 -53.702  1.00  0.00    -0.273 OA
HETATM   34  H   UNL     1     -40.204  54.704 -55.885  1.00  0.00     0.171 HD
BRANCH  32  35
HETATM   35  C   UNL     1     -40.200  52.832 -54.119  1.00  0.00     0.078 C 
HETATM   36  C   UNL     1     -39.966  52.404 -52.643  1.00  0.00     0.014 C 
HETATM   37  C   UNL     1     -39.699  50.977 -53.152  1.00  0.00     0.002 C 
HETATM   38  C   UNL     1     -40.514  51.336 -54.406  1.00  0.00     0.014 C 
ENDBRANCH  32  35
ENDBRANCH   7  31
BRANCH  13  39
HETATM   39  O   UNL     1     -44.769  61.621 -59.718  1.00  0.00    -0.395 OA
HETATM   40  H   UNL     1     -44.587  62.232 -60.454  1.00  0.00     0.210 HD
ENDBRANCH  13  39
TORSDOF 9
ENDMDL
MODEL 8
REMARK VINA RESULT:      -7.7      3.085      6.904
REMARK  9 active torsions:
REMARK  status: ('A' for Active; 'I' for Inactive)
REMARK    1  A    between atoms: C_3  and  C_4 
REMARK    2  A    between atoms: C_4  and  C_5 
REMARK       I    between atoms: C_5  and  N_6 
REMARK    3  A    between atoms: N_6  and  C_7 
REMARK    4  A    between atoms: C_7  and  C_8 
REMARK    5  A    between atoms: C_18  and  N_19 
REMARK       I    between atoms: N_19  and  C_20 
REMARK    6  A    between atoms: C_20  and  C_21 
REMARK    7  A    between atoms: C_29  and  C_30 
REMARK    8  A    between atoms: C_30  and  O_31 
REMARK    9  A    between atoms: C_33  and  O_34 
ROOT
HETATM    1  C   UNL     1     -40.075  58.274 -53.078  1.00  0.00     0.016 C 
HETATM    2  C   UNL     1     -41.321  57.403 -52.685  1.00  0.00    -0.030 C 
HETATM    3  C   UNL     1     -42.548  58.043 -53.521  1.00  0.00     0.056 C 
HETATM    4  C   UNL     1     -42.759  57.314 -54.827  1.00  0.00     0.056 A 
HETATM    5  C   UNL     1     -41.976  56.271 -55.267  1.00  0.00     0.012 A 
HETATM    6  S   UNL     1     -42.487  55.746 -56.794  1.00  0.00    -0.055 SA
HETATM    7  C   UNL     1     -43.720  56.924 -56.783  1.00  0.00     0.173 A 
HETATM    8  N   UNL     1     -43.759  57.689 -55.711  1.00  0.00    -0.227 NA
HETATM    9  C   UNL     1     -40.828  55.661 -54.558  1.00  0.00     0.055 C 
HETATM   10  C   UNL     1     -40.946  55.888 -53.033  1.00  0.00     0.012 C 
HETATM   11  C   UNL     1     -41.754  54.757 -52.269  1.00  0.00     0.008 C 
HETATM   12  C   UNL     1     -41.018  53.394 -52.435  1.00  0.00     0.020 C 
HETATM   13  C   UNL     1     -41.794  55.086 -50.748  1.00  0.00     0.128 C 
HETATM   14  C   UNL     1     -42.304  56.496 -50.464  1.00  0.00     0.033 C 
HETATM   15  C   UNL     1     -41.442  57.557 -51.146  1.00  0.00     0.013 C 
ENDROOT
BRANCH   3  16
HETATM   16  C   UNL     1     -43.865  58.265 -52.752  1.00  0.00     0.114 C 
BRANCH  16  17
HETATM   17  C   UNL     1     -44.511  59.641 -52.819  1.00  0.00     0.218 C 
HETATM   18  N   UNL     1     -43.919  60.626 -52.058  1.00  0.00    -0.357 N 
HETATM   19  H   UNL     1     -43.182  60.354 -51.424  1.00  0.00     0.162 HD
HETATM   20  O   UNL     1     -45.590  59.796 -53.386  1.00  0.00    -0.274 OA
BRANCH  18  21
HETATM   21  C   UNL     1     -44.641  61.831 -51.707  1.00  0.00     0.162 C 
BRANCH  21  22
HETATM   22  C   UNL     1     -45.280  61.847 -50.349  1.00  0.00    -0.023 A 
HETATM   23  C   UNL     1     -46.267  62.761 -49.994  1.00  0.00     0.125 A 
HETATM   24  N   UNL     1     -46.840  62.829 -48.767  1.00  0.00    -0.273 NA
HETATM   25  C   UNL     1     -46.406  61.938 -47.849  1.00  0.00     0.116 A 
HETATM   26  C   UNL     1     -45.425  60.992 -48.094  1.00  0.00     0.020 A 
HETATM   27  C   UNL     1     -44.852  60.953 -49.361  1.00  0.00     0.012 A 
ENDBRANCH  21  22
ENDBRANCH  18  21
ENDBRANCH  16  17
ENDBRANCH   3  16
BRANCH  11  28
HETATM   28  C   UNL     1     -43.187  54.546 -52.813  1.00  0.00     0.176 C 
BRANCH  28  29
HETATM   29  O   UNL     1     -44.007  53.895 -51.846  1.00  0.00    -0.400 OA
HETATM   30  H   UNL     1     -43.609  53.022 -51.681  1.00  0.00     0.209 HD
ENDBRANCH  28  29
ENDBRANCH  11  28
BRANCH   7  31
HETATM   31  N   UNL     1     -44.628  57.051 -57.807  1.00  0.00    -0.305 N 
HETATM   32  C   UNL     1     -44.367  57.509 -59.084  1.00  0.00     0.227 C 
HETATM   33  O   UNL     1     -43.283  57.949 -59.479  1.00  0.00    -0.273 OA
HETATM   34  H   UNL     1     -45.565  56.763 -57.554  1.00  0.00     0.171 HD
BRANCH  32  35
HETATM   35  C   UNL     1     -45.592  57.430 -60.039  1.00  0.00     0.078 C 
HETATM   36  C   UNL     1     -45.859  56.061 -60.725  1.00  0.00     0.014 C 
HETATM   37  C   UNL     1     -47.363  56.300 -60.503  1.00  0.00     0.002 C 
HETATM   38  C   UNL     1     -46.982  57.257 -59.360  1.00  0.00     0.014 C 
ENDBRANCH  32  35
ENDBRANCH   7  31
BRANCH  13  39
HETATM   39  O   UNL     1     -40.482  54.996 -50.179  1.00  0.00    -0.395 OA
HETATM   40  H   UNL     1     -40.280  55.865 -49.789  1.00  0.00     0.210 HD
ENDBRANCH  13  39
TORSDOF 9
ENDMDL
MODEL 9
REMARK VINA RESULT:      -7.7      2.854      6.779
REMARK  9 active torsions:
REMARK  status: ('A' for Active; 'I' for Inactive)
REMARK    1  A    between atoms: C_3  and  C_4 
REMARK    2  A    between atoms: C_4  and  C_5 
REMARK       I    between atoms: C_5  and  N_6 
REMARK    3  A    between atoms: N_6  and  C_7 
REMARK    4  A    between atoms: C_7  and  C_8 
REMARK    5  A    between atoms: C_18  and  N_19 
REMARK       I    between atoms: N_19  and  C_20 
REMARK    6  A    between atoms: C_20  and  C_21 
REMARK    7  A    between atoms: C_29  and  C_30 
REMARK    8  A    between atoms: C_30  and  O_31 
REMARK    9  A    between atoms: C_33  and  O_34 
ROOT
HETATM    1  C   UNL     1     -40.161  58.390 -53.055  1.00  0.00     0.016 C 
HETATM    2  C   UNL     1     -41.395  57.495 -52.680  1.00  0.00    -0.030 C 
HETATM    3  C   UNL     1     -42.612  58.084 -53.566  1.00  0.00     0.056 C 
HETATM    4  C   UNL     1     -42.765  57.323 -54.862  1.00  0.00     0.056 A 
HETATM    5  C   UNL     1     -41.942  56.291 -55.255  1.00  0.00     0.012 A 
HETATM    6  S   UNL     1     -42.393  55.721 -56.786  1.00  0.00    -0.055 SA
HETATM    7  C   UNL     1     -43.655  56.866 -56.837  1.00  0.00     0.173 A 
HETATM    8  N   UNL     1     -43.746  57.652 -55.783  1.00  0.00    -0.227 NA
HETATM    9  C   UNL     1     -40.801  55.728 -54.499  1.00  0.00     0.055 C 
HETATM   10  C   UNL     1     -40.971  55.983 -52.984  1.00  0.00     0.012 C 
HETATM   11  C   UNL     1     -41.772  54.847 -52.220  1.00  0.00     0.008 C 
HETATM   12  C   UNL     1     -40.996  53.501 -52.334  1.00  0.00     0.020 C 
HETATM   13  C   UNL     1     -41.867  55.207 -50.709  1.00  0.00     0.128 C 
HETATM   14  C   UNL     1     -42.421  56.609 -50.471  1.00  0.00     0.033 C 
HETATM   15  C   UNL     1     -41.567  57.678 -51.150  1.00  0.00     0.013 C 
ENDROOT
BRANCH   3  16
HETATM   16  C   UNL     1     -43.957  58.287 -52.842  1.00  0.00     0.114 C 
BRANCH  16  17
HETATM   17  C   UNL     1     -44.716  59.583 -53.088  1.00  0.00     0.218 C 
HETATM   18  N   UNL     1     -45.485  59.627 -54.232  1.00  0.00    -0.357 N 
HETATM   19  H   UNL     1     -45.406  58.860 -54.884  1.00  0.00     0.162 HD
HETATM   20  O   UNL     1     -44.506  60.571 -52.389  1.00  0.00    -0.274 OA
BRANCH  18  21
HETATM   21  C   UNL     1     -45.914  60.892 -54.792  1.00  0.00     0.162 C 
BRANCH  21  22
HETATM   22  C   UNL     1     -45.363  61.235 -56.146  1.00  0.00    -0.023 A 
HETATM   23  C   UNL     1     -44.519  62.321 -56.360  1.00  0.00     0.125 A 
HETATM   24  N   UNL     1     -44.033  62.683 -57.573  1.00  0.00    -0.273 NA
HETATM   25  C   UNL     1     -44.408  61.922 -58.624  1.00  0.00     0.116 A 
HETATM   26  C   UNL     1     -45.249  60.826 -58.524  1.00  0.00     0.020 A 
HETATM   27  C   UNL     1     -45.736  60.485 -57.267  1.00  0.00     0.012 A 
ENDBRANCH  21  22
ENDBRANCH  18  21
ENDBRANCH  16  17
ENDBRANCH   3  16
BRANCH  11  28
HETATM   28  C   UNL     1     -43.182  54.587 -52.801  1.00  0.00     0.176 C 
BRANCH  28  29
HETATM   29  O   UNL     1     -44.013  53.935 -51.845  1.00  0.00    -0.400 OA
HETATM   30  H   UNL     1     -43.598  53.075 -51.650  1.00  0.00     0.209 HD
ENDBRANCH  28  29
ENDBRANCH  11  28
BRANCH   7  31
HETATM   31  N   UNL     1     -44.535  56.947 -57.889  1.00  0.00    -0.305 N 
HETATM   32  C   UNL     1     -44.253  57.407 -59.161  1.00  0.00     0.227 C 
HETATM   33  O   UNL     1     -43.177  57.890 -59.525  1.00  0.00    -0.273 OA
HETATM   34  H   UNL     1     -45.466  56.620 -57.664  1.00  0.00     0.171 HD
BRANCH  32  35
HETATM   35  C   UNL     1     -45.443  57.270 -60.154  1.00  0.00     0.078 C 
HETATM   36  C   UNL     1     -45.795  55.832 -60.632  1.00  0.00     0.014 C 
HETATM   37  C   UNL     1     -47.281  56.215 -60.527  1.00  0.00     0.002 C 
HETATM   38  C   UNL     1     -46.867  57.310 -59.528  1.00  0.00     0.014 C 
ENDBRANCH  32  35
ENDBRANCH   7  31
BRANCH  13  39
HETATM   39  O   UNL     1     -40.571  55.164 -50.098  1.00  0.00    -0.395 OA
HETATM   40  H   UNL     1     -40.403  56.046 -49.722  1.00  0.00     0.210 HD
ENDBRANCH  13  39
TORSDOF 9
ENDMDL
MODEL 10
REMARK VINA RESULT:      -7.6      1.849      2.929
REMARK  9 active torsions:
REMARK  status: ('A' for Active; 'I' for Inactive)
REMARK    1  A    between atoms: C_3  and  C_4 
REMARK    2  A    between atoms: C_4  and  C_5 
REMARK       I    between atoms: C_5  and  N_6 
REMARK    3  A    between atoms: N_6  and  C_7 
REMARK    4  A    between atoms: C_7  and  C_8 
REMARK    5  A    between atoms: C_18  and  N_19 
REMARK       I    between atoms: N_19  and  C_20 
REMARK    6  A    between atoms: C_20  and  C_21 
REMARK    7  A    between atoms: C_29  and  C_30 
REMARK    8  A    between atoms: C_30  and  O_31 
REMARK    9  A    between atoms: C_33  and  O_34 
ROOT
HETATM    1  C   UNL     1     -45.495  59.181 -50.507  1.00  0.00     0.016 C 
HETATM    2  C   UNL     1     -44.322  59.920 -51.244  1.00  0.00    -0.030 C 
HETATM    3  C   UNL     1     -43.600  58.768 -52.120  1.00  0.00     0.056 C 
HETATM    4  C   UNL     1     -44.138  58.735 -53.531  1.00  0.00     0.056 A 
HETATM    5  C   UNL     1     -45.147  59.550 -53.994  1.00  0.00     0.012 A 
HETATM    6  S   UNL     1     -45.512  59.185 -55.608  1.00  0.00    -0.055 SA
HETATM    7  C   UNL     1     -44.310  57.976 -55.603  1.00  0.00     0.173 A 
HETATM    8  N   UNL     1     -43.666  57.825 -54.463  1.00  0.00    -0.227 NA
HETATM    9  C   UNL     1     -45.860  60.601 -53.234  1.00  0.00     0.055 C 
HETATM   10  C   UNL     1     -44.985  61.119 -52.069  1.00  0.00     0.012 C 
HETATM   11  C   UNL     1     -44.037  62.331 -52.457  1.00  0.00     0.008 C 
HETATM   12  C   UNL     1     -44.906  63.545 -52.902  1.00  0.00     0.020 C 
HETATM   13  C   UNL     1     -43.221  62.771 -51.207  1.00  0.00     0.128 C 
HETATM   14  C   UNL     1     -42.484  61.610 -50.546  1.00  0.00     0.033 C 
HETATM   15  C   UNL     1     -43.446  60.507 -50.107  1.00  0.00     0.013 C 
ENDROOT
BRANCH   3  16
HETATM   16  C   UNL     1     -42.060  58.733 -52.078  1.00  0.00     0.114 C 
BRANCH  16  17
HETATM   17  C   UNL     1     -41.384  57.459 -51.592  1.00  0.00     0.218 C 
HETATM   18  N   UNL     1     -41.827  56.284 -52.162  1.00  0.00    -0.357 N 
HETATM   19  H   UNL     1     -42.636  56.326 -52.764  1.00  0.00     0.162 HD
HETATM   20  O   UNL     1     -40.618  57.486 -50.632  1.00  0.00    -0.274 OA
BRANCH  18  21
HETATM   21  C   UNL     1     -41.582  55.008 -51.522  1.00  0.00     0.162 C 
BRANCH  21  22
HETATM   22  C   UNL     1     -40.947  53.951 -52.379  1.00  0.00    -0.023 A 
HETATM   23  C   UNL     1     -40.944  54.014 -53.769  1.00  0.00     0.125 A 
HETATM   24  N   UNL     1     -40.414  53.061 -54.575  1.00  0.00    -0.273 NA
HETATM   25  C   UNL     1     -39.860  51.993 -53.962  1.00  0.00     0.116 A 
HETATM   26  C   UNL     1     -39.816  51.827 -52.588  1.00  0.00     0.020 A 
HETATM   27  C   UNL     1     -40.374  52.819 -51.789  1.00  0.00     0.012 A 
ENDBRANCH  21  22
ENDBRANCH  18  21
ENDBRANCH  16  17
ENDBRANCH   3  16
BRANCH  11  28
HETATM   28  C   UNL     1     -43.088  62.019 -53.639  1.00  0.00     0.176 C 
BRANCH  28  29
HETATM   29  O   UNL     1     -42.509  63.215 -54.154  1.00  0.00    -0.400 OA
HETATM   30  H   UNL     1     -42.600  63.894 -53.460  1.00  0.00     0.209 HD
ENDBRANCH  28  29
ENDBRANCH  11  28
BRANCH   7  31
HETATM   31  N   UNL     1     -44.012  57.227 -56.717  1.00  0.00    -0.305 N 
HETATM   32  C   UNL     1     -42.986  57.461 -57.612  1.00  0.00     0.227 C 
HETATM   33  O   UNL     1     -42.222  58.430 -57.588  1.00  0.00    -0.273 OA
HETATM   34  H   UNL     1     -44.628  56.435 -56.848  1.00  0.00     0.171 HD
BRANCH  32  35
HETATM   35  C   UNL     1     -42.852  56.366 -58.709  1.00  0.00     0.078 C 
HETATM   36  C   UNL     1     -43.615  55.033 -58.466  1.00  0.00     0.014 C 
HETATM   37  C   UNL     1     -43.965  55.019 -59.964  1.00  0.00     0.002 C 
HETATM   38  C   UNL     1     -43.748  56.542 -59.969  1.00  0.00     0.014 C 
ENDBRANCH  32  35
ENDBRANCH   7  31
BRANCH  13  39
HETATM   39  O   UNL     1     -44.086  63.335 -50.214  1.00  0.00    -0.395 OA
HETATM   40  H   UNL     1     -43.685  63.145 -49.347  1.00  0.00     0.210 HD
ENDBRANCH  13  39
TORSDOF 9
ENDMDL
