MODEL 1
REMARK VINA RESULT:      -8.1      0.000      0.000
REMARK  8 active torsions:
REMARK  status: ('A' for Active; 'I' for Inactive)
REMARK    1  A    between atoms: C_3  and  N_4 
REMARK       I    between atoms: N_4  and  C_5 
REMARK       I    between atoms: C_5  and  N_6 
REMARK       I    between atoms: N_6  and  C_7 
REMARK    2  A    between atoms: C_7  and  C_8 
REMARK    3  A    between atoms: C_8  and  N_9 
REMARK    4  A    between atoms: N_9  and  C_11 
REMARK    5  A    between atoms: N_9  and  C_17 
REMARK    6  A    between atoms: C_11  and  C_12 
REMARK    7  A    between atoms: C_17  and  C_18 
REMARK    8  A    between atoms: C_19  and  O_20 
ROOT
HETATM    1  N   UNL     1     -42.082  57.393 -53.752  1.00  0.00    -0.053 N 
HETATM    2  H   UNL     1     -41.853  56.958 -54.657  1.00  0.00     0.281 HD
ENDROOT
BRANCH   1   3
HETATM    3  C   UNL     1     -43.583  57.606 -53.770  1.00  0.00     0.338 C 
BRANCH   3   4
HETATM    4  C   UNL     1     -44.238  57.289 -55.118  1.00  0.00     0.251 C 
HETATM    5  N   UNL     1     -43.623  56.275 -55.828  1.00  0.00    -0.278 N 
HETATM    6  C   UNL     1     -43.618  56.079 -57.186  1.00  0.00     0.323 C 
HETATM    7  H   UNL     1     -42.864  55.744 -55.419  1.00  0.00     0.173 HD
HETATM    8  N   UNL     1     -44.454  56.863 -57.910  1.00  0.00    -0.338 N 
HETATM    9  O   UNL     1     -42.815  55.272 -57.631  1.00  0.00    -0.247 OA
HETATM   10  H   UNL     1     -45.177  57.341 -57.380  1.00  0.00     0.164 HD
HETATM   11  O   UNL     1     -45.295  57.816 -55.459  1.00  0.00    -0.271 OA
BRANCH   8  12
HETATM   12  C   UNL     1     -44.623  56.886 -59.367  1.00  0.00     0.089 C 
HETATM   13  C   UNL     1     -45.591  55.806 -59.917  1.00  0.00     0.004 C 
HETATM   14  C   UNL     1     -45.058  55.256 -61.251  1.00  0.00     0.012 C 
HETATM   15  C   UNL     1     -47.041  56.287 -60.108  1.00  0.00     0.006 C 
HETATM   16  C   UNL     1     -47.149  57.662 -60.757  1.00  0.00     0.001 C 
HETATM   17  C   UNL     1     -46.328  58.702 -60.010  1.00  0.00     0.002 C 
HETATM   18  C   UNL     1     -44.863  58.298 -59.919  1.00  0.00     0.026 C 
ENDBRANCH   8  12
ENDBRANCH   3   4
ENDBRANCH   1   3
BRANCH   1  19
HETATM   19  C   UNL     1     -41.292  58.683 -53.798  1.00  0.00     0.300 C 
BRANCH  19  20
HETATM   20  C   UNL     1     -40.816  59.073 -52.443  1.00  0.00     0.078 A 
HETATM   21  O   UNL     1     -39.461  59.077 -52.256  1.00  0.00    -0.325 OA
HETATM   22  C   UNL     1     -39.244  59.428 -50.961  1.00  0.00     0.142 A 
HETATM   23  C   UNL     1     -40.439  59.661 -50.320  1.00  0.00     0.027 A 
HETATM   24  C   UNL     1     -41.457  59.434 -51.277  1.00  0.00     0.036 A 
ENDBRANCH  19  20
ENDBRANCH   1  19
BRANCH   1  25
HETATM   25  C   UNL     1     -41.560  56.401 -52.746  1.00  0.00     0.277 C 
BRANCH  25  26
HETATM   26  C   UNL     1     -40.993  55.065 -53.160  1.00  0.00     0.001 A 
HETATM   27  C   UNL     1     -40.681  54.657 -54.463  1.00  0.00     0.073 A 
HETATM   28  C   UNL     1     -40.251  53.352 -54.734  1.00  0.00     0.037 A 
HETATM   29  C   UNL     1     -40.146  52.419 -53.707  1.00  0.00     0.003 A 
HETATM   30  C   UNL     1     -40.465  52.789 -52.408  1.00  0.00     0.001 A 
HETATM   31  C   UNL     1     -40.883  54.094 -52.139  1.00  0.00     0.011 A 
BRANCH  27  32
HETATM   32  O   UNL     1     -40.795  55.526 -55.510  1.00  0.00    -0.360 OA
HETATM   33  H   UNL     1     -39.896  55.704 -55.850  1.00  0.00     0.217 HD
ENDBRANCH  27  32
ENDBRANCH  25  26
ENDBRANCH   1  25
TORSDOF 8
ENDMDL
MODEL 2
REMARK VINA RESULT:      -7.9      4.280      5.598
REMARK  8 active torsions:
REMARK  status: ('A' for Active; 'I' for Inactive)
REMARK    1  A    between atoms: C_3  and  N_4 
REMARK       I    between atoms: N_4  and  C_5 
REMARK       I    between atoms: C_5  and  N_6 
REMARK       I    between atoms: N_6  and  C_7 
REMARK    2  A    between atoms: C_7  and  C_8 
REMARK    3  A    between atoms: C_8  and  N_9 
REMARK    4  A    between atoms: N_9  and  C_11 
REMARK    5  A    between atoms: N_9  and  C_17 
REMARK    6  A    between atoms: C_11  and  C_12 
REMARK    7  A    between atoms: C_17  and  C_18 
REMARK    8  A    between atoms: C_19  and  O_20 
ROOT
HETATM    1  N   UNL     1     -41.732  55.034 -50.798  1.00  0.00    -0.053 N 
HETATM    2  H   UNL     1     -41.612  55.421 -51.745  1.00  0.00     0.281 HD
ENDROOT
BRANCH   1   3
HETATM    3  C   UNL     1     -43.219  54.776 -50.649  1.00  0.00     0.338 C 
BRANCH   3   4
HETATM    4  C   UNL     1     -44.098  55.958 -51.069  1.00  0.00     0.251 C 
HETATM    5  N   UNL     1     -43.971  56.322 -52.397  1.00  0.00    -0.278 N 
HETATM    6  C   UNL     1     -44.198  57.553 -52.959  1.00  0.00     0.323 C 
HETATM    7  H   UNL     1     -43.407  55.771 -53.032  1.00  0.00     0.173 HD
HETATM    8  N   UNL     1     -44.780  58.481 -52.161  1.00  0.00    -0.338 N 
HETATM    9  O   UNL     1     -43.791  57.729 -54.099  1.00  0.00    -0.247 OA
HETATM   10  H   UNL     1     -45.218  58.123 -51.317  1.00  0.00     0.164 HD
HETATM   11  O   UNL     1     -44.932  56.442 -50.306  1.00  0.00    -0.271 OA
BRANCH   8  12
HETATM   12  C   UNL     1     -45.101  59.874 -52.494  1.00  0.00     0.089 C 
HETATM   13  C   UNL     1     -46.308  60.458 -51.714  1.00  0.00     0.004 C 
HETATM   14  C   UNL     1     -47.136  61.369 -52.636  1.00  0.00     0.012 C 
HETATM   15  C   UNL     1     -45.928  61.234 -50.440  1.00  0.00     0.006 C 
HETATM   16  C   UNL     1     -44.745  62.176 -50.626  1.00  0.00     0.001 C 
HETATM   17  C   UNL     1     -43.536  61.454 -51.201  1.00  0.00     0.002 C 
HETATM   18  C   UNL     1     -43.864  60.782 -52.527  1.00  0.00     0.026 C 
ENDBRANCH   8  12
ENDBRANCH   3   4
ENDBRANCH   1   3
BRANCH   1  19
HETATM   19  C   UNL     1     -41.226  56.156 -49.919  1.00  0.00     0.300 C 
BRANCH  19  20
HETATM   20  C   UNL     1     -40.952  57.383 -50.714  1.00  0.00     0.078 A 
HETATM   21  O   UNL     1     -40.911  57.227 -52.073  1.00  0.00    -0.325 OA
HETATM   22  C   UNL     1     -40.623  58.445 -52.600  1.00  0.00     0.142 A 
HETATM   23  C   UNL     1     -40.491  59.382 -51.602  1.00  0.00     0.027 A 
HETATM   24  C   UNL     1     -40.707  58.698 -50.380  1.00  0.00     0.036 A 
ENDBRANCH  19  20
ENDBRANCH   1  19
BRANCH   1  25
HETATM   25  C   UNL     1     -40.841  53.819 -50.802  1.00  0.00     0.277 C 
BRANCH  25  26
HETATM   26  C   UNL     1     -40.474  53.100 -52.077  1.00  0.00     0.001 A 
HETATM   27  C   UNL     1     -40.781  53.504 -53.382  1.00  0.00     0.073 A 
HETATM   28  C   UNL     1     -40.471  52.699 -54.485  1.00  0.00     0.037 A 
HETATM   29  C   UNL     1     -39.865  51.459 -54.303  1.00  0.00     0.003 A 
HETATM   30  C   UNL     1     -39.565  51.024 -53.019  1.00  0.00     0.001 A 
HETATM   31  C   UNL     1     -39.865  51.834 -51.922  1.00  0.00     0.011 A 
BRANCH  27  32
HETATM   32  O   UNL     1     -41.401  54.699 -53.614  1.00  0.00    -0.360 OA
HETATM   33  H   UNL     1     -42.322  54.625 -53.292  1.00  0.00     0.217 HD
ENDBRANCH  27  32
ENDBRANCH  25  26
ENDBRANCH   1  25
TORSDOF 8
ENDMDL
MODEL 3
REMARK VINA RESULT:      -7.9      2.628      3.431
REMARK  8 active torsions:
REMARK  status: ('A' for Active; 'I' for Inactive)
REMARK    1  A    between atoms: C_3  and  N_4 
REMARK       I    between atoms: N_4  and  C_5 
REMARK       I    between atoms: C_5  and  N_6 
REMARK       I    between atoms: N_6  and  C_7 
REMARK    2  A    between atoms: C_7  and  C_8 
REMARK    3  A    between atoms: C_8  and  N_9 
REMARK    4  A    between atoms: N_9  and  C_11 
REMARK    5  A    between atoms: N_9  and  C_17 
REMARK    6  A    between atoms: C_11  and  C_12 
REMARK    7  A    between atoms: C_17  and  C_18 
REMARK    8  A    between atoms: C_19  and  O_20 
ROOT
HETATM    1  N   UNL     1     -41.425  54.658 -54.229  1.00  0.00    -0.053 N 
HETATM    2  H   UNL     1     -41.071  54.935 -53.302  1.00  0.00     0.281 HD
ENDROOT
BRANCH   1   3
HETATM    3  C   UNL     1     -41.376  55.916 -55.076  1.00  0.00     0.338 C 
BRANCH   3   4
HETATM    4  C   UNL     1     -42.612  56.118 -55.957  1.00  0.00     0.251 C 
HETATM    5  N   UNL     1     -42.511  55.565 -57.220  1.00  0.00    -0.278 N 
HETATM    6  C   UNL     1     -43.161  55.953 -58.365  1.00  0.00     0.323 C 
HETATM    7  H   UNL     1     -41.711  54.999 -57.473  1.00  0.00     0.173 HD
HETATM    8  N   UNL     1     -44.147  56.870 -58.216  1.00  0.00    -0.338 N 
HETATM    9  O   UNL     1     -42.748  55.497 -59.421  1.00  0.00    -0.247 OA
HETATM   10  H   UNL     1     -44.484  57.003 -57.266  1.00  0.00     0.164 HD
HETATM   11  O   UNL     1     -43.643  56.620 -55.513  1.00  0.00    -0.271 OA
BRANCH   8  12
HETATM   12  C   UNL     1     -44.971  57.478 -59.266  1.00  0.00     0.089 C 
HETATM   13  C   UNL     1     -46.496  57.244 -59.102  1.00  0.00     0.004 C 
HETATM   14  C   UNL     1     -47.142  57.016 -60.479  1.00  0.00     0.012 C 
HETATM   15  C   UNL     1     -47.240  58.376 -58.372  1.00  0.00     0.006 C 
HETATM   16  C   UNL     1     -46.833  59.771 -58.831  1.00  0.00     0.001 C 
HETATM   17  C   UNL     1     -45.327  59.973 -58.750  1.00  0.00     0.002 C 
HETATM   18  C   UNL     1     -44.579  58.931 -59.569  1.00  0.00     0.026 C 
ENDBRANCH   8  12
ENDBRANCH   3   4
ENDBRANCH   1   3
BRANCH   1  19
HETATM   19  C   UNL     1     -42.832  54.196 -53.920  1.00  0.00     0.300 C 
BRANCH  19  20
HETATM   20  C   UNL     1     -43.230  54.570 -52.536  1.00  0.00     0.078 A 
HETATM   21  O   UNL     1     -43.391  55.908 -52.293  1.00  0.00    -0.325 OA
HETATM   22  C   UNL     1     -43.721  56.032 -50.981  1.00  0.00     0.142 A 
HETATM   23  C   UNL     1     -43.787  54.795 -50.383  1.00  0.00     0.027 A 
HETATM   24  C   UNL     1     -43.473  53.847 -51.388  1.00  0.00     0.036 A 
ENDBRANCH  19  20
ENDBRANCH   1  19
BRANCH   1  25
HETATM   25  C   UNL     1     -40.499  53.543 -54.637  1.00  0.00     0.277 C 
BRANCH  25  26
HETATM   26  C   UNL     1     -40.241  52.350 -53.749  1.00  0.00     0.001 A 
HETATM   27  C   UNL     1     -39.952  52.376 -52.379  1.00  0.00     0.073 A 
HETATM   28  C   UNL     1     -39.633  51.206 -51.679  1.00  0.00     0.037 A 
HETATM   29  C   UNL     1     -39.574  49.984 -52.344  1.00  0.00     0.003 A 
HETATM   30  C   UNL     1     -39.838  49.930 -53.706  1.00  0.00     0.001 A 
HETATM   31  C   UNL     1     -40.167  51.097 -54.397  1.00  0.00     0.011 A 
BRANCH  27  32
HETATM   32  O   UNL     1     -39.968  53.554 -51.686  1.00  0.00    -0.360 OA
HETATM   33  H   UNL     1     -39.078  53.687 -51.302  1.00  0.00     0.217 HD
ENDBRANCH  27  32
ENDBRANCH  25  26
ENDBRANCH   1  25
TORSDOF 8
ENDMDL
MODEL 4
REMARK VINA RESULT:      -7.7      4.332      7.712
REMARK  8 active torsions:
REMARK  status: ('A' for Active; 'I' for Inactive)
REMARK    1  A    between atoms: C_3  and  N_4 
REMARK       I    between atoms: N_4  and  C_5 
REMARK       I    between atoms: C_5  and  N_6 
REMARK       I    between atoms: N_6  and  C_7 
REMARK    2  A    between atoms: C_7  and  C_8 
REMARK    3  A    between atoms: C_8  and  N_9 
REMARK    4  A    between atoms: N_9  and  C_11 
REMARK    5  A    between atoms: N_9  and  C_17 
REMARK    6  A    between atoms: C_11  and  C_12 
REMARK    7  A    between atoms: C_17  and  C_18 
REMARK    8  A    between atoms: C_19  and  O_20 
ROOT
HETATM    1  N   UNL     1     -44.704  59.865 -50.534  1.00  0.00    -0.053 N 
HETATM    2  H   UNL     1     -44.099  59.530 -49.771  1.00  0.00     0.281 HD
ENDROOT
BRANCH   1   3
HETATM    3  C   UNL     1     -45.526  58.664 -50.958  1.00  0.00     0.338 C 
BRANCH   3   4
HETATM    4  C   UNL     1     -44.699  57.537 -51.585  1.00  0.00     0.251 C 
HETATM    5  N   UNL     1     -44.058  56.722 -50.672  1.00  0.00    -0.278 N 
HETATM    6  C   UNL     1     -42.915  55.985 -50.855  1.00  0.00     0.323 C 
HETATM    7  H   UNL     1     -44.221  56.831 -49.678  1.00  0.00     0.173 HD
HETATM    8  N   UNL     1     -42.450  55.903 -52.126  1.00  0.00    -0.338 N 
HETATM    9  O   UNL     1     -42.378  55.531 -49.856  1.00  0.00    -0.247 OA
HETATM   10  H   UNL     1     -43.106  56.175 -52.853  1.00  0.00     0.164 HD
HETATM   11  O   UNL     1     -44.723  57.320 -52.795  1.00  0.00    -0.271 OA
BRANCH   8  12
HETATM   12  C   UNL     1     -41.242  55.216 -52.594  1.00  0.00     0.089 C 
HETATM   13  C   UNL     1     -41.387  53.676 -52.718  1.00  0.00     0.004 C 
HETATM   14  C   UNL     1     -40.083  52.990 -52.277  1.00  0.00     0.012 C 
HETATM   15  C   UNL     1     -41.771  53.184 -54.125  1.00  0.00     0.006 C 
HETATM   16  C   UNL     1     -40.994  53.865 -55.245  1.00  0.00     0.001 C 
HETATM   17  C   UNL     1     -41.093  55.380 -55.157  1.00  0.00     0.002 C 
HETATM   18  C   UNL     1     -40.600  55.895 -53.812  1.00  0.00     0.026 C 
ENDBRANCH   8  12
ENDBRANCH   3   4
ENDBRANCH   1   3
BRANCH   1  19
HETATM   19  C   UNL     1     -43.703  60.307 -51.578  1.00  0.00     0.300 C 
BRANCH  19  20
HETATM   20  C   UNL     1     -42.319  59.915 -51.198  1.00  0.00     0.078 A 
HETATM   21  O   UNL     1     -41.661  59.095 -52.074  1.00  0.00    -0.325 OA
HETATM   22  C   UNL     1     -40.442  58.837 -51.531  1.00  0.00     0.142 A 
HETATM   23  C   UNL     1     -40.304  59.489 -50.328  1.00  0.00     0.027 A 
HETATM   24  C   UNL     1     -41.516  60.190 -50.112  1.00  0.00     0.036 A 
ENDBRANCH  19  20
ENDBRANCH   1  19
BRANCH   1  25
HETATM   25  C   UNL     1     -45.462  61.004 -49.903  1.00  0.00     0.277 C 
BRANCH  25  26
HETATM   26  C   UNL     1     -45.359  61.316 -48.430  1.00  0.00     0.001 A 
HETATM   27  C   UNL     1     -45.749  60.488 -47.371  1.00  0.00     0.073 A 
HETATM   28  C   UNL     1     -45.695  60.929 -46.043  1.00  0.00     0.037 A 
HETATM   29  C   UNL     1     -45.270  62.221 -45.749  1.00  0.00     0.003 A 
HETATM   30  C   UNL     1     -44.893  63.072 -46.779  1.00  0.00     0.001 A 
HETATM   31  C   UNL     1     -44.937  62.624 -48.102  1.00  0.00     0.011 A 
BRANCH  27  32
HETATM   32  O   UNL     1     -46.202  59.221 -47.608  1.00  0.00    -0.360 OA
HETATM   33  H   UNL     1     -45.425  58.655 -47.790  1.00  0.00     0.217 HD
ENDBRANCH  27  32
ENDBRANCH  25  26
ENDBRANCH   1  25
TORSDOF 8
ENDMDL
MODEL 5
REMARK VINA RESULT:      -7.7      2.277      3.607
REMARK  8 active torsions:
REMARK  status: ('A' for Active; 'I' for Inactive)
REMARK    1  A    between atoms: C_3  and  N_4 
REMARK       I    between atoms: N_4  and  C_5 
REMARK       I    between atoms: C_5  and  N_6 
REMARK       I    between atoms: N_6  and  C_7 
REMARK    2  A    between atoms: C_7  and  C_8 
REMARK    3  A    between atoms: C_8  and  N_9 
REMARK    4  A    between atoms: N_9  and  C_11 
REMARK    5  A    between atoms: N_9  and  C_17 
REMARK    6  A    between atoms: C_11  and  C_12 
REMARK    7  A    between atoms: C_17  and  C_18 
REMARK    8  A    between atoms: C_19  and  O_20 
ROOT
HETATM    1  N   UNL     1     -41.862  54.308 -53.894  1.00  0.00    -0.053 N 
HETATM    2  H   UNL     1     -41.687  55.322 -53.933  1.00  0.00     0.281 HD
ENDROOT
BRANCH   1   3
HETATM    3  C   UNL     1     -42.705  53.993 -55.115  1.00  0.00     0.338 C 
BRANCH   3   4
HETATM    4  C   UNL     1     -43.048  55.220 -55.964  1.00  0.00     0.251 C 
HETATM    5  N   UNL     1     -43.320  56.362 -55.234  1.00  0.00    -0.278 N 
HETATM    6  C   UNL     1     -44.099  57.432 -55.600  1.00  0.00     0.323 C 
HETATM    7  H   UNL     1     -43.198  56.375 -54.229  1.00  0.00     0.173 HD
HETATM    8  N   UNL     1     -44.514  57.460 -56.890  1.00  0.00    -0.338 N 
HETATM    9  O   UNL     1     -44.411  58.221 -54.720  1.00  0.00    -0.247 OA
HETATM   10  H   UNL     1     -44.019  56.840 -57.524  1.00  0.00     0.164 HD
HETATM   11  O   UNL     1     -42.958  55.199 -57.190  1.00  0.00    -0.271 OA
BRANCH   8  12
HETATM   12  C   UNL     1     -45.375  58.460 -57.531  1.00  0.00     0.089 C 
HETATM   13  C   UNL     1     -44.691  59.259 -58.671  1.00  0.00     0.004 C 
HETATM   14  C   UNL     1     -45.156  60.725 -58.633  1.00  0.00     0.012 C 
HETATM   15  C   UNL     1     -44.926  58.687 -60.080  1.00  0.00     0.006 C 
HETATM   16  C   UNL     1     -46.369  58.272 -60.340  1.00  0.00     0.001 C 
HETATM   17  C   UNL     1     -46.878  57.313 -59.275  1.00  0.00     0.002 C 
HETATM   18  C   UNL     1     -46.767  57.914 -57.881  1.00  0.00     0.026 C 
ENDBRANCH   8  12
ENDBRANCH   3   4
ENDBRANCH   1   3
BRANCH   1  19
HETATM   19  C   UNL     1     -42.613  54.154 -52.590  1.00  0.00     0.300 C 
BRANCH  19  20
HETATM   20  C   UNL     1     -42.046  55.036 -51.533  1.00  0.00     0.078 A 
HETATM   21  O   UNL     1     -41.851  54.461 -50.307  1.00  0.00    -0.325 OA
HETATM   22  C   UNL     1     -41.361  55.432 -49.492  1.00  0.00     0.142 A 
HETATM   23  C   UNL     1     -41.226  56.615 -50.180  1.00  0.00     0.027 A 
HETATM   24  C   UNL     1     -41.666  56.360 -51.502  1.00  0.00     0.036 A 
ENDBRANCH  19  20
ENDBRANCH   1  19
BRANCH   1  25
HETATM   25  C   UNL     1     -40.477  53.715 -53.867  1.00  0.00     0.277 C 
BRANCH  25  26
HETATM   26  C   UNL     1     -40.220  52.303 -53.403  1.00  0.00     0.001 A 
HETATM   27  C   UNL     1     -39.744  51.910 -52.146  1.00  0.00     0.073 A 
HETATM   28  C   UNL     1     -39.450  50.570 -51.864  1.00  0.00     0.037 A 
HETATM   29  C   UNL     1     -39.603  49.596 -52.846  1.00  0.00     0.003 A 
HETATM   30  C   UNL     1     -40.055  49.957 -54.108  1.00  0.00     0.001 A 
HETATM   31  C   UNL     1     -40.359  51.293 -54.381  1.00  0.00     0.011 A 
BRANCH  27  32
HETATM   32  O   UNL     1     -39.549  52.832 -51.156  1.00  0.00    -0.360 OA
HETATM   33  H   UNL     1     -40.292  53.466 -51.187  1.00  0.00     0.217 HD
ENDBRANCH  27  32
ENDBRANCH  25  26
ENDBRANCH   1  25
TORSDOF 8
ENDMDL
MODEL 6
REMARK VINA RESULT:      -7.6      1.541      2.005
REMARK  8 active torsions:
REMARK  status: ('A' for Active; 'I' for Inactive)
REMARK    1  A    between atoms: C_3  and  N_4 
REMARK       I    between atoms: N_4  and  C_5 
REMARK       I    between atoms: C_5  and  N_6 
REMARK       I    between atoms: N_6  and  C_7 
REMARK    2  A    between atoms: C_7  and  C_8 
REMARK    3  A    between atoms: C_8  and  N_9 
REMARK    4  A    between atoms: N_9  and  C_11 
REMARK    5  A    between atoms: N_9  and  C_17 
REMARK    6  A    between atoms: C_11  and  C_12 
REMARK    7  A    between atoms: C_17  and  C_18 
REMARK    8  A    between atoms: C_19  and  O_20 
ROOT
HETATM    1  N   UNL     1     -42.287  55.848 -52.630  1.00  0.00    -0.053 N 
HETATM    2  H   UNL     1     -42.030  55.658 -53.609  1.00  0.00     0.281 HD
ENDROOT
BRANCH   1   3
HETATM    3  C   UNL     1     -43.719  56.348 -52.676  1.00  0.00     0.338 C 
BRANCH   3   4
HETATM    4  C   UNL     1     -44.278  56.496 -54.094  1.00  0.00     0.251 C 
HETATM    5  N   UNL     1     -43.560  55.824 -55.065  1.00  0.00    -0.278 N 
HETATM    6  C   UNL     1     -43.471  56.118 -56.403  1.00  0.00     0.323 C 
HETATM    7  H   UNL     1     -42.791  55.217 -54.812  1.00  0.00     0.173 HD
HETATM    8  N   UNL     1     -44.316  57.069 -56.868  1.00  0.00    -0.338 N 
HETATM    9  O   UNL     1     -42.593  55.554 -57.040  1.00  0.00    -0.247 OA
HETATM   10  H   UNL     1     -45.097  57.299 -56.259  1.00  0.00     0.164 HD
HETATM   11  O   UNL     1     -45.348  57.063 -54.307  1.00  0.00    -0.271 OA
BRANCH   8  12
HETATM   12  C   UNL     1     -44.409  57.595 -58.234  1.00  0.00     0.089 C 
HETATM   13  C   UNL     1     -43.943  56.606 -59.335  1.00  0.00     0.004 C 
HETATM   14  C   UNL     1     -43.192  57.368 -60.439  1.00  0.00     0.012 C 
HETATM   15  C   UNL     1     -45.076  55.777 -59.968  1.00  0.00     0.006 C 
HETATM   16  C   UNL     1     -46.320  56.592 -60.298  1.00  0.00     0.001 C 
HETATM   17  C   UNL     1     -46.824  57.363 -59.087  1.00  0.00     0.002 C 
HETATM   18  C   UNL     1     -45.751  58.282 -58.522  1.00  0.00     0.026 C 
ENDBRANCH   8  12
ENDBRANCH   3   4
ENDBRANCH   1   3
BRANCH   1  19
HETATM   19  C   UNL     1     -41.292  56.913 -52.229  1.00  0.00     0.300 C 
BRANCH  19  20
HETATM   20  C   UNL     1     -41.574  58.202 -52.917  1.00  0.00     0.078 A 
HETATM   21  O   UNL     1     -41.451  58.199 -54.280  1.00  0.00    -0.325 OA
HETATM   22  C   UNL     1     -41.719  59.463 -54.702  1.00  0.00     0.142 A 
HETATM   23  C   UNL     1     -42.024  60.272 -53.632  1.00  0.00     0.027 A 
HETATM   24  C   UNL     1     -41.934  59.457 -52.476  1.00  0.00     0.036 A 
ENDBRANCH  19  20
ENDBRANCH   1  19
BRANCH   1  25
HETATM   25  C   UNL     1     -42.064  54.524 -51.948  1.00  0.00     0.277 C 
BRANCH  25  26
HETATM   26  C   UNL     1     -41.157  53.467 -52.528  1.00  0.00     0.001 A 
HETATM   27  C   UNL     1     -41.195  52.957 -53.832  1.00  0.00     0.073 A 
HETATM   28  C   UNL     1     -40.362  51.903 -54.226  1.00  0.00     0.037 A 
HETATM   29  C   UNL     1     -39.488  51.319 -53.315  1.00  0.00     0.003 A 
HETATM   30  C   UNL     1     -39.440  51.791 -52.010  1.00  0.00     0.001 A 
HETATM   31  C   UNL     1     -40.264  52.850 -51.623  1.00  0.00     0.011 A 
BRANCH  27  32
HETATM   32  O   UNL     1     -42.056  53.476 -54.757  1.00  0.00    -0.360 OA
HETATM   33  H   UNL     1     -42.917  53.619 -54.317  1.00  0.00     0.217 HD
ENDBRANCH  27  32
ENDBRANCH  25  26
ENDBRANCH   1  25
TORSDOF 8
ENDMDL
MODEL 7
REMARK VINA RESULT:      -7.5      2.486      3.575
REMARK  8 active torsions:
REMARK  status: ('A' for Active; 'I' for Inactive)
REMARK    1  A    between atoms: C_3  and  N_4 
REMARK       I    between atoms: N_4  and  C_5 
REMARK       I    between atoms: C_5  and  N_6 
REMARK       I    between atoms: N_6  and  C_7 
REMARK    2  A    between atoms: C_7  and  C_8 
REMARK    3  A    between atoms: C_8  and  N_9 
REMARK    4  A    between atoms: N_9  and  C_11 
REMARK    5  A    between atoms: N_9  and  C_17 
REMARK    6  A    between atoms: C_11  and  C_12 
REMARK    7  A    between atoms: C_17  and  C_18 
REMARK    8  A    between atoms: C_19  and  O_20 
ROOT
HETATM    1  N   UNL     1     -41.629  54.368 -53.881  1.00  0.00    -0.053 N 
HETATM    2  H   UNL     1     -41.368  55.359 -53.982  1.00  0.00     0.281 HD
ENDROOT
BRANCH   1   3
HETATM    3  C   UNL     1     -42.598  54.086 -55.014  1.00  0.00     0.338 C 
BRANCH   3   4
HETATM    4  C   UNL     1     -43.012  55.334 -55.799  1.00  0.00     0.251 C 
HETATM    5  N   UNL     1     -43.253  55.110 -57.142  1.00  0.00    -0.278 N 
HETATM    6  C   UNL     1     -43.155  56.007 -58.177  1.00  0.00     0.323 C 
HETATM    7  H   UNL     1     -43.239  54.171 -57.520  1.00  0.00     0.173 HD
HETATM    8  N   UNL     1     -42.971  57.305 -57.833  1.00  0.00    -0.338 N 
HETATM    9  O   UNL     1     -43.168  55.552 -59.312  1.00  0.00    -0.247 OA
HETATM   10  H   UNL     1     -43.168  57.535 -56.863  1.00  0.00     0.164 HD
HETATM   11  O   UNL     1     -43.230  56.404 -55.236  1.00  0.00    -0.271 OA
BRANCH   8  12
HETATM   12  C   UNL     1     -42.802  58.453 -58.730  1.00  0.00     0.089 C 
HETATM   13  C   UNL     1     -44.130  59.051 -59.264  1.00  0.00     0.004 C 
HETATM   14  C   UNL     1     -43.958  59.484 -60.730  1.00  0.00     0.012 C 
HETATM   15  C   UNL     1     -44.670  60.237 -58.443  1.00  0.00     0.006 C 
HETATM   16  C   UNL     1     -43.601  61.250 -58.054  1.00  0.00     0.001 C 
HETATM   17  C   UNL     1     -42.431  60.587 -57.342  1.00  0.00     0.002 C 
HETATM   18  C   UNL     1     -41.806  59.491 -58.193  1.00  0.00     0.026 C 
ENDBRANCH   8  12
ENDBRANCH   3   4
ENDBRANCH   1   3
BRANCH   1  19
HETATM   19  C   UNL     1     -42.276  54.335 -52.515  1.00  0.00     0.300 C 
BRANCH  19  20
HETATM   20  C   UNL     1     -41.863  55.505 -51.694  1.00  0.00     0.078 A 
HETATM   21  O   UNL     1     -41.691  56.685 -52.366  1.00  0.00    -0.325 OA
HETATM   22  C   UNL     1     -41.291  57.604 -51.449  1.00  0.00     0.142 A 
HETATM   23  C   UNL     1     -41.218  57.036 -50.199  1.00  0.00     0.027 A 
HETATM   24  C   UNL     1     -41.590  55.678 -50.354  1.00  0.00     0.036 A 
ENDBRANCH  19  20
ENDBRANCH   1  19
BRANCH   1  25
HETATM   25  C   UNL     1     -40.306  53.651 -53.941  1.00  0.00     0.277 C 
BRANCH  25  26
HETATM   26  C   UNL     1     -40.129  52.250 -53.408  1.00  0.00     0.001 A 
HETATM   27  C   UNL     1     -39.725  51.892 -52.116  1.00  0.00     0.073 A 
HETATM   28  C   UNL     1     -39.501  50.555 -51.766  1.00  0.00     0.037 A 
HETATM   29  C   UNL     1     -39.654  49.546 -52.713  1.00  0.00     0.003 A 
HETATM   30  C   UNL     1     -40.036  49.872 -54.008  1.00  0.00     0.001 A 
HETATM   31  C   UNL     1     -40.270  51.205 -54.349  1.00  0.00     0.011 A 
BRANCH  27  32
HETATM   32  O   UNL     1     -39.533  52.847 -51.158  1.00  0.00    -0.360 OA
HETATM   33  H   UNL     1     -38.638  53.219 -51.282  1.00  0.00     0.217 HD
ENDBRANCH  27  32
ENDBRANCH  25  26
ENDBRANCH   1  25
TORSDOF 8
ENDMDL
MODEL 8
REMARK VINA RESULT:      -7.5      1.918      2.768
REMARK  8 active torsions:
REMARK  status: ('A' for Active; 'I' for Inactive)
REMARK    1  A    between atoms: C_3  and  N_4 
REMARK       I    between atoms: N_4  and  C_5 
REMARK       I    between atoms: C_5  and  N_6 
REMARK       I    between atoms: N_6  and  C_7 
REMARK    2  A    between atoms: C_7  and  C_8 
REMARK    3  A    between atoms: C_8  and  N_9 
REMARK    4  A    between atoms: N_9  and  C_11 
REMARK    5  A    between atoms: N_9  and  C_17 
REMARK    6  A    between atoms: C_11  and  C_12 
REMARK    7  A    between atoms: C_17  and  C_18 
REMARK    8  A    between atoms: C_19  and  O_20 
ROOT
HETATM    1  N   UNL     1     -42.256  55.785 -51.860  1.00  0.00    -0.053 N 
HETATM    2  H   UNL     1     -41.427  55.945 -52.451  1.00  0.00     0.281 HD
ENDROOT
BRANCH   1   3
HETATM    3  C   UNL     1     -43.388  56.536 -52.534  1.00  0.00     0.338 C 
BRANCH   3   4
HETATM    4  C   UNL     1     -43.192  56.731 -54.040  1.00  0.00     0.251 C 
HETATM    5  N   UNL     1     -42.359  57.781 -54.378  1.00  0.00    -0.278 N 
HETATM    6  C   UNL     1     -42.355  58.515 -55.537  1.00  0.00     0.323 C 
HETATM    7  H   UNL     1     -41.862  58.297 -53.662  1.00  0.00     0.173 HD
HETATM    8  N   UNL     1     -43.138  58.055 -56.544  1.00  0.00    -0.338 N 
HETATM    9  O   UNL     1     -41.710  59.553 -55.538  1.00  0.00    -0.247 OA
HETATM   10  H   UNL     1     -43.457  57.095 -56.448  1.00  0.00     0.164 HD
HETATM   11  O   UNL     1     -43.644  55.929 -54.856  1.00  0.00    -0.271 OA
BRANCH   8  12
HETATM   12  C   UNL     1     -43.344  58.658 -57.865  1.00  0.00     0.089 C 
HETATM   13  C   UNL     1     -42.154  58.480 -58.844  1.00  0.00     0.004 C 
HETATM   14  C   UNL     1     -41.972  59.756 -59.683  1.00  0.00     0.012 C 
HETATM   15  C   UNL     1     -42.277  57.267 -59.783  1.00  0.00     0.006 C 
HETATM   16  C   UNL     1     -43.664  57.103 -60.394  1.00  0.00     0.001 C 
HETATM   17  C   UNL     1     -44.748  57.074 -59.328  1.00  0.00     0.002 C 
HETATM   18  C   UNL     1     -44.718  58.328 -58.465  1.00  0.00     0.026 C 
ENDBRANCH   8  12
ENDBRANCH   3   4
ENDBRANCH   1   3
BRANCH   1  19
HETATM   19  C   UNL     1     -41.837  56.389 -50.538  1.00  0.00     0.300 C 
BRANCH  19  20
HETATM   20  C   UNL     1     -41.123  57.679 -50.736  1.00  0.00     0.078 A 
HETATM   21  O   UNL     1     -40.516  57.854 -51.950  1.00  0.00    -0.325 OA
HETATM   22  C   UNL     1     -39.905  59.067 -51.912  1.00  0.00     0.142 A 
HETATM   23  C   UNL     1     -40.122  59.678 -50.699  1.00  0.00     0.027 A 
HETATM   24  C   UNL     1     -40.913  58.782 -49.937  1.00  0.00     0.036 A 
ENDBRANCH  19  20
ENDBRANCH   1  19
BRANCH   1  25
HETATM   25  C   UNL     1     -42.376  54.284 -51.828  1.00  0.00     0.277 C 
BRANCH  25  26
HETATM   26  C   UNL     1     -41.340  53.383 -52.454  1.00  0.00     0.001 A 
HETATM   27  C   UNL     1     -41.278  52.987 -53.796  1.00  0.00     0.073 A 
HETATM   28  C   UNL     1     -40.322  52.066 -54.240  1.00  0.00     0.037 A 
HETATM   29  C   UNL     1     -39.419  51.503 -53.343  1.00  0.00     0.003 A 
HETATM   30  C   UNL     1     -39.466  51.863 -52.003  1.00  0.00     0.001 A 
HETATM   31  C   UNL     1     -40.414  52.791 -51.566  1.00  0.00     0.011 A 
BRANCH  27  32
HETATM   32  O   UNL     1     -42.161  53.487 -54.711  1.00  0.00    -0.360 OA
HETATM   33  H   UNL     1     -42.652  52.735 -55.095  1.00  0.00     0.217 HD
ENDBRANCH  27  32
ENDBRANCH  25  26
ENDBRANCH   1  25
TORSDOF 8
ENDMDL
MODEL 9
REMARK VINA RESULT:      -7.5      1.996      2.992
REMARK  8 active torsions:
REMARK  status: ('A' for Active; 'I' for Inactive)
REMARK    1  A    between atoms: C_3  and  N_4 
REMARK       I    between atoms: N_4  and  C_5 
REMARK       I    between atoms: C_5  and  N_6 
REMARK       I    between atoms: N_6  and  C_7 
REMARK    2  A    between atoms: C_7  and  C_8 
REMARK    3  A    between atoms: C_8  and  N_9 
REMARK    4  A    between atoms: N_9  and  C_11 
REMARK    5  A    between atoms: N_9  and  C_17 
REMARK    6  A    between atoms: C_11  and  C_12 
REMARK    7  A    between atoms: C_17  and  C_18 
REMARK    8  A    between atoms: C_19  and  O_20 
ROOT
HETATM    1  N   UNL     1     -41.652  55.673 -51.433  1.00  0.00    -0.053 N 
HETATM    2  H   UNL     1     -41.384  55.626 -52.427  1.00  0.00     0.281 HD
ENDROOT
BRANCH   1   3
HETATM    3  C   UNL     1     -43.167  55.754 -51.424  1.00  0.00     0.338 C 
BRANCH   3   4
HETATM    4  C   UNL     1     -43.775  56.144 -52.774  1.00  0.00     0.251 C 
HETATM    5  N   UNL     1     -43.604  55.202 -53.772  1.00  0.00    -0.278 N 
HETATM    6  C   UNL     1     -43.569  55.407 -55.128  1.00  0.00     0.323 C 
HETATM    7  H   UNL     1     -43.191  54.301 -53.566  1.00  0.00     0.173 HD
HETATM    8  N   UNL     1     -43.912  56.646 -55.559  1.00  0.00    -0.338 N 
HETATM    9  O   UNL     1     -43.162  54.485 -55.821  1.00  0.00    -0.247 OA
HETATM   10  H   UNL     1     -44.397  57.228 -54.882  1.00  0.00     0.164 HD
HETATM   11  O   UNL     1     -44.462  57.156 -52.902  1.00  0.00    -0.271 OA
BRANCH   8  12
HETATM   12  C   UNL     1     -43.928  57.141 -56.940  1.00  0.00     0.089 C 
HETATM   13  C   UNL     1     -45.079  58.132 -57.253  1.00  0.00     0.004 C 
HETATM   14  C   UNL     1     -45.617  57.878 -58.671  1.00  0.00     0.012 C 
HETATM   15  C   UNL     1     -44.698  59.617 -57.111  1.00  0.00     0.006 C 
HETATM   16  C   UNL     1     -43.347  59.963 -57.722  1.00  0.00     0.001 C 
HETATM   17  C   UNL     1     -42.241  59.067 -57.185  1.00  0.00     0.002 C 
HETATM   18  C   UNL     1     -42.546  57.596 -57.428  1.00  0.00     0.026 C 
ENDBRANCH   8  12
ENDBRANCH   3   4
ENDBRANCH   1   3
BRANCH   1  19
HETATM   19  C   UNL     1     -40.979  56.946 -50.971  1.00  0.00     0.300 C 
BRANCH  19  20
HETATM   20  C   UNL     1     -41.166  58.044 -51.958  1.00  0.00     0.078 A 
HETATM   21  O   UNL     1     -41.927  59.104 -51.547  1.00  0.00    -0.325 OA
HETATM   22  C   UNL     1     -41.995  59.968 -52.594  1.00  0.00     0.142 A 
HETATM   23  C   UNL     1     -41.279  59.484 -53.664  1.00  0.00     0.027 A 
HETATM   24  C   UNL     1     -40.739  58.240 -53.254  1.00  0.00     0.036 A 
ENDBRANCH  19  20
ENDBRANCH   1  19
BRANCH   1  25
HETATM   25  C   UNL     1     -41.048  54.423 -50.850  1.00  0.00     0.277 C 
BRANCH  25  26
HETATM   26  C   UNL     1     -40.467  53.334 -51.718  1.00  0.00     0.001 A 
HETATM   27  C   UNL     1     -40.398  53.328 -53.116  1.00  0.00     0.073 A 
HETATM   28  C   UNL     1     -39.923  52.212 -53.818  1.00  0.00     0.037 A 
HETATM   29  C   UNL     1     -39.529  51.067 -53.132  1.00  0.00     0.003 A 
HETATM   30  C   UNL     1     -39.603  51.036 -51.746  1.00  0.00     0.001 A 
HETATM   31  C   UNL     1     -40.065  52.155 -51.049  1.00  0.00     0.011 A 
BRANCH  27  32
HETATM   32  O   UNL     1     -40.800  54.416 -53.838  1.00  0.00    -0.360 OA
HETATM   33  H   UNL     1     -40.000  54.846 -54.200  1.00  0.00     0.217 HD
ENDBRANCH  27  32
ENDBRANCH  25  26
ENDBRANCH   1  25
TORSDOF 8
ENDMDL
MODEL 10
REMARK VINA RESULT:      -7.4      1.839      2.582
REMARK  8 active torsions:
REMARK  status: ('A' for Active; 'I' for Inactive)
REMARK    1  A    between atoms: C_3  and  N_4 
REMARK       I    between atoms: N_4  and  C_5 
REMARK       I    between atoms: C_5  and  N_6 
REMARK       I    between atoms: N_6  and  C_7 
REMARK    2  A    between atoms: C_7  and  C_8 
REMARK    3  A    between atoms: C_8  and  N_9 
REMARK    4  A    between atoms: N_9  and  C_11 
REMARK    5  A    between atoms: N_9  and  C_17 
REMARK    6  A    between atoms: C_11  and  C_12 
REMARK    7  A    between atoms: C_17  and  C_18 
REMARK    8  A    between atoms: C_19  and  O_20 
ROOT
HETATM    1  N   UNL     1     -42.244  55.805 -52.255  1.00  0.00    -0.053 N 
HETATM    2  H   UNL     1     -41.852  55.640 -53.193  1.00  0.00     0.281 HD
ENDROOT
BRANCH   1   3
HETATM    3  C   UNL     1     -43.683  56.224 -52.483  1.00  0.00     0.338 C 
BRANCH   3   4
HETATM    4  C   UNL     1     -44.075  56.315 -53.961  1.00  0.00     0.251 C 
HETATM    5  N   UNL     1     -43.325  55.515 -54.802  1.00  0.00    -0.278 N 
HETATM    6  C   UNL     1     -43.069  55.702 -56.138  1.00  0.00     0.323 C 
HETATM    7  H   UNL     1     -42.646  54.865 -54.427  1.00  0.00     0.173 HD
HETATM    8  N   UNL     1     -43.770  56.685 -56.753  1.00  0.00    -0.338 N 
HETATM    9  O   UNL     1     -42.186  55.020 -56.637  1.00  0.00    -0.247 OA
HETATM   10  H   UNL     1     -44.585  57.024 -56.250  1.00  0.00     0.164 HD
HETATM   11  O   UNL     1     -45.060  56.954 -54.326  1.00  0.00    -0.271 OA
BRANCH   8  12
HETATM   12  C   UNL     1     -43.670  57.115 -58.152  1.00  0.00     0.089 C 
HETATM   13  C   UNL     1     -43.063  56.054 -59.107  1.00  0.00     0.004 C 
HETATM   14  C   UNL     1     -42.162  56.741 -60.147  1.00  0.00     0.012 C 
HETATM   15  C   UNL     1     -44.103  55.180 -59.832  1.00  0.00     0.006 C 
HETATM   16  C   UNL     1     -45.284  55.967 -60.386  1.00  0.00     0.001 C 
HETATM   17  C   UNL     1     -45.946  56.817 -59.312  1.00  0.00     0.002 C 
HETATM   18  C   UNL     1     -44.956  57.776 -58.668  1.00  0.00     0.026 C 
ENDBRANCH   8  12
ENDBRANCH   3   4
ENDBRANCH   1   3
BRANCH   1  19
HETATM   19  C   UNL     1     -41.370  56.921 -51.726  1.00  0.00     0.300 C 
BRANCH  19  20
HETATM   20  C   UNL     1     -41.525  58.159 -52.538  1.00  0.00     0.078 A 
HETATM   21  O   UNL     1     -42.117  59.222 -51.913  1.00  0.00    -0.325 OA
HETATM   22  C   UNL     1     -42.187  60.225 -52.827  1.00  0.00     0.142 A 
HETATM   23  C   UNL     1     -41.638  59.825 -54.023  1.00  0.00     0.027 A 
HETATM   24  C   UNL     1     -41.206  58.489 -53.838  1.00  0.00     0.036 A 
ENDBRANCH  19  20
ENDBRANCH   1  19
BRANCH   1  25
HETATM   25  C   UNL     1     -42.035  54.489 -51.553  1.00  0.00     0.277 C 
BRANCH  25  26
HETATM   26  C   UNL     1     -41.165  53.401 -52.133  1.00  0.00     0.001 A 
HETATM   27  C   UNL     1     -40.275  52.580 -51.431  1.00  0.00     0.073 A 
HETATM   28  C   UNL     1     -39.445  51.668 -52.096  1.00  0.00     0.037 A 
HETATM   29  C   UNL     1     -39.474  51.576 -53.484  1.00  0.00     0.003 A 
HETATM   30  C   UNL     1     -40.333  52.390 -54.209  1.00  0.00     0.001 A 
HETATM   31  C   UNL     1     -41.167  53.290 -53.542  1.00  0.00     0.011 A 
BRANCH  27  32
HETATM   32  O   UNL     1     -40.187  52.652 -50.069  1.00  0.00    -0.360 OA
HETATM   33  H   UNL     1     -39.405  53.194 -49.848  1.00  0.00     0.217 HD
ENDBRANCH  27  32
ENDBRANCH  25  26
ENDBRANCH   1  25
TORSDOF 8
ENDMDL
