MODEL 1
REMARK VINA RESULT:      -9.2      0.000      0.000
REMARK  5 active torsions:
REMARK  status: ('A' for Active; 'I' for Inactive)
REMARK    1  A    between atoms: C_4  and  C_5 
REMARK    2  A    between atoms: N_7  and  C_8 
REMARK    3  A    between atoms: C_15  and  C_16 
REMARK       I    between atoms: C_16  and  N_17 
REMARK    4  A    between atoms: N_17  and  N_18 
REMARK       I    between atoms: N_18  and  C_19 
REMARK    5  A    between atoms: C_19  and  C_20 
ROOT
HETATM    1  C   UNL     1     -41.463  55.458 -53.158  1.00  0.00     0.105 A 
HETATM    2  N   UNL     1     -40.689  54.431 -52.768  1.00  0.00    -0.166 NA
HETATM    3  N   UNL     1     -41.118  53.356 -53.457  1.00  0.00    -0.244 N 
HETATM    4  C   UNL     1     -42.153  53.687 -54.297  1.00  0.00     0.138 A 
HETATM    5  C   UNL     1     -42.400  55.043 -54.155  1.00  0.00     0.082 A 
ENDROOT
BRANCH   5   6
HETATM    6  C   UNL     1     -43.394  55.825 -54.883  1.00  0.00     0.274 C 
HETATM    7  N   UNL     1     -43.216  55.854 -56.254  1.00  0.00    -0.263 N 
HETATM    8  H   UNL     1     -42.413  55.454 -56.729  1.00  0.00     0.190 HD
HETATM    9  O   UNL     1     -44.325  56.418 -54.345  1.00  0.00    -0.266 OA
BRANCH   7  10
HETATM   10  N   UNL     1     -44.106  56.570 -57.060  1.00  0.00    -0.263 N 
HETATM   11  C   UNL     1     -43.896  56.566 -58.419  1.00  0.00     0.275 C 
HETATM   12  O   UNL     1     -42.925  55.995 -58.923  1.00  0.00    -0.266 OA
HETATM   13  H   UNL     1     -44.915  57.016 -56.612  1.00  0.00     0.190 HD
BRANCH  11  14
HETATM   14  C   UNL     1     -44.911  57.280 -59.240  1.00  0.00     0.101 A 
HETATM   15  C   UNL     1     -45.843  56.592 -60.183  1.00  0.00     0.261 A 
HETATM   16  O   UNL     1     -45.834  55.374 -60.337  1.00  0.00    -0.267 OA
HETATM   17  N   UNL     1     -46.717  57.399 -60.879  1.00  0.00    -0.333 N 
HETATM   18  C   UNL     1     -46.770  58.761 -60.750  1.00  0.00     0.091 A 
HETATM   19  H   UNL     1     -47.344  56.922 -61.519  1.00  0.00     0.168 HD
HETATM   20  C   UNL     1     -45.943  59.387 -59.907  1.00  0.00     0.018 A 
HETATM   21  C   UNL     1     -44.990  58.621 -59.136  1.00  0.00     0.024 A 
ENDBRANCH  11  14
ENDBRANCH   7  10
ENDBRANCH   5   6
BRANCH   1  22
HETATM   22  C   UNL     1     -41.225  56.779 -52.570  1.00  0.00    -0.005 A 
HETATM   23  C   UNL     1     -40.812  57.838 -53.392  1.00  0.00     0.014 A 
HETATM   24  C   UNL     1     -40.556  59.102 -52.854  1.00  0.00     0.001 A 
HETATM   25  C   UNL     1     -40.703  59.316 -51.485  1.00  0.00     0.000 A 
HETATM   26  C   UNL     1     -41.098  58.268 -50.656  1.00  0.00     0.001 A 
HETATM   27  C   UNL     1     -41.350  57.002 -51.194  1.00  0.00     0.014 A 
ENDBRANCH   1  22
BRANCH   3  28
HETATM   28  C   UNL     1     -40.502  52.083 -53.283  1.00  0.00     0.058 A 
HETATM   29  C   UNL     1     -40.416  51.205 -54.377  1.00  0.00     0.031 A 
HETATM   30  C   UNL     1     -39.826  49.949 -54.228  1.00  0.00     0.002 A 
HETATM   31  C   UNL     1     -39.318  49.558 -52.991  1.00  0.00     0.000 A 
HETATM   32  C   UNL     1     -39.398  50.424 -51.901  1.00  0.00     0.002 A 
HETATM   33  C   UNL     1     -39.986  51.684 -52.042  1.00  0.00     0.031 A 
ENDBRANCH   3  28
TORSDOF 5
ENDMDL
MODEL 2
REMARK VINA RESULT:      -9.2      0.791      1.453
REMARK  5 active torsions:
REMARK  status: ('A' for Active; 'I' for Inactive)
REMARK    1  A    between atoms: C_4  and  C_5 
REMARK    2  A    between atoms: N_7  and  C_8 
REMARK    3  A    between atoms: C_15  and  C_16 
REMARK       I    between atoms: C_16  and  N_17 
REMARK    4  A    between atoms: N_17  and  N_18 
REMARK       I    between atoms: N_18  and  C_19 
REMARK    5  A    between atoms: C_19  and  C_20 
ROOT
HETATM    1  C   UNL     1     -41.447  55.484 -53.301  1.00  0.00     0.105 A 
HETATM    2  N   UNL     1     -40.687  54.456 -52.887  1.00  0.00    -0.166 NA
HETATM    3  N   UNL     1     -41.107  53.378 -53.578  1.00  0.00    -0.244 N 
HETATM    4  C   UNL     1     -42.123  53.708 -54.441  1.00  0.00     0.138 A 
HETATM    5  C   UNL     1     -42.366  55.066 -54.314  1.00  0.00     0.082 A 
ENDROOT
BRANCH   5   6
HETATM    6  C   UNL     1     -43.340  55.848 -55.069  1.00  0.00     0.274 C 
HETATM    7  N   UNL     1     -43.177  55.806 -56.441  1.00  0.00    -0.263 N 
HETATM    8  H   UNL     1     -42.394  55.356 -56.905  1.00  0.00     0.190 HD
HETATM    9  O   UNL     1     -44.244  56.498 -54.550  1.00  0.00    -0.266 OA
BRANCH   7  10
HETATM   10  N   UNL     1     -44.050  56.515 -57.272  1.00  0.00    -0.263 N 
HETATM   11  C   UNL     1     -43.895  56.390 -58.632  1.00  0.00     0.275 C 
HETATM   12  O   UNL     1     -42.983  55.719 -59.121  1.00  0.00    -0.266 OA
HETATM   13  H   UNL     1     -44.811  57.048 -56.833  1.00  0.00     0.190 HD
BRANCH  11  14
HETATM   14  C   UNL     1     -44.893  57.104 -59.473  1.00  0.00     0.101 A 
HETATM   15  C   UNL     1     -44.626  58.414 -60.139  1.00  0.00     0.261 A 
HETATM   16  O   UNL     1     -43.547  58.991 -60.037  1.00  0.00    -0.267 OA
HETATM   17  N   UNL     1     -45.661  58.950 -60.875  1.00  0.00    -0.333 N 
HETATM   18  C   UNL     1     -46.885  58.355 -61.022  1.00  0.00     0.091 A 
HETATM   19  H   UNL     1     -45.470  59.841 -61.321  1.00  0.00     0.168 HD
HETATM   20  C   UNL     1     -47.134  57.181 -60.434  1.00  0.00     0.018 A 
HETATM   21  C   UNL     1     -46.108  56.544 -59.639  1.00  0.00     0.024 A 
ENDBRANCH  11  14
ENDBRANCH   7  10
ENDBRANCH   5   6
BRANCH   1  22
HETATM   22  C   UNL     1     -41.215  56.807 -52.718  1.00  0.00    -0.005 A 
HETATM   23  C   UNL     1     -41.394  56.998 -51.340  1.00  0.00     0.014 A 
HETATM   24  C   UNL     1     -41.203  58.255 -50.761  1.00  0.00     0.001 A 
HETATM   25  C   UNL     1     -40.838  59.338 -51.559  1.00  0.00     0.000 A 
HETATM   26  C   UNL     1     -40.672  59.165 -52.932  1.00  0.00     0.001 A 
HETATM   27  C   UNL     1     -40.868  57.907 -53.511  1.00  0.00     0.014 A 
ENDBRANCH   1  22
BRANCH   3  28
HETATM   28  C   UNL     1     -40.502  52.103 -53.382  1.00  0.00     0.058 A 
HETATM   29  C   UNL     1     -40.426  51.205 -54.459  1.00  0.00     0.031 A 
HETATM   30  C   UNL     1     -39.846  49.947 -54.288  1.00  0.00     0.002 A 
HETATM   31  C   UNL     1     -39.339  49.574 -53.046  1.00  0.00     0.000 A 
HETATM   32  C   UNL     1     -39.409  50.460 -51.971  1.00  0.00     0.002 A 
HETATM   33  C   UNL     1     -39.987  51.723 -52.134  1.00  0.00     0.031 A 
ENDBRANCH   3  28
TORSDOF 5
ENDMDL
MODEL 3
REMARK VINA RESULT:      -8.9      1.734      1.842
REMARK  5 active torsions:
REMARK  status: ('A' for Active; 'I' for Inactive)
REMARK    1  A    between atoms: C_4  and  C_5 
REMARK    2  A    between atoms: N_7  and  C_8 
REMARK    3  A    between atoms: C_15  and  C_16 
REMARK       I    between atoms: C_16  and  N_17 
REMARK    4  A    between atoms: N_17  and  N_18 
REMARK       I    between atoms: N_18  and  C_19 
REMARK    5  A    between atoms: C_19  and  C_20 
ROOT
HETATM    1  C   UNL     1     -41.541  55.736 -53.604  1.00  0.00     0.105 A 
HETATM    2  N   UNL     1     -40.928  54.716 -52.980  1.00  0.00    -0.166 NA
HETATM    3  N   UNL     1     -41.061  53.648 -53.791  1.00  0.00    -0.244 N 
HETATM    4  C   UNL     1     -41.744  53.977 -54.936  1.00  0.00     0.138 A 
HETATM    5  C   UNL     1     -42.058  55.325 -54.872  1.00  0.00     0.082 A 
ENDROOT
BRANCH   5   6
HETATM    6  C   UNL     1     -42.752  56.104 -55.893  1.00  0.00     0.274 C 
HETATM    7  N   UNL     1     -42.093  56.187 -57.105  1.00  0.00    -0.263 N 
HETATM    8  H   UNL     1     -41.157  55.827 -57.266  1.00  0.00     0.190 HD
HETATM    9  O   UNL     1     -43.837  56.651 -55.714  1.00  0.00    -0.266 OA
BRANCH   7  10
HETATM   10  N   UNL     1     -42.659  56.906 -58.162  1.00  0.00    -0.263 N 
HETATM   11  C   UNL     1     -42.307  58.227 -58.309  1.00  0.00     0.275 C 
HETATM   12  O   UNL     1     -41.555  58.790 -57.510  1.00  0.00    -0.266 OA
HETATM   13  H   UNL     1     -43.264  56.402 -58.821  1.00  0.00     0.190 HD
BRANCH  11  14
HETATM   14  C   UNL     1     -42.878  58.928 -59.491  1.00  0.00     0.101 A 
HETATM   15  C   UNL     1     -44.250  58.669 -60.021  1.00  0.00     0.261 A 
HETATM   16  O   UNL     1     -45.006  57.853 -59.504  1.00  0.00    -0.267 OA
HETATM   17  N   UNL     1     -44.625  59.395 -61.131  1.00  0.00    -0.333 N 
HETATM   18  C   UNL     1     -43.824  60.316 -61.751  1.00  0.00     0.091 A 
HETATM   19  H   UNL     1     -45.557  59.210 -61.485  1.00  0.00     0.168 HD
HETATM   20  C   UNL     1     -42.595  60.559 -61.283  1.00  0.00     0.018 A 
HETATM   21  C   UNL     1     -42.115  59.842 -60.123  1.00  0.00     0.024 A 
ENDBRANCH  11  14
ENDBRANCH   7  10
ENDBRANCH   5   6
BRANCH   1  22
HETATM   22  C   UNL     1     -41.558  57.048 -52.952  1.00  0.00    -0.005 A 
HETATM   23  C   UNL     1     -40.595  58.007 -53.301  1.00  0.00     0.014 A 
HETATM   24  C   UNL     1     -40.573  59.257 -52.678  1.00  0.00     0.001 A 
HETATM   25  C   UNL     1     -41.512  59.558 -51.694  1.00  0.00     0.000 A 
HETATM   26  C   UNL     1     -42.465  58.609 -51.328  1.00  0.00     0.001 A 
HETATM   27  C   UNL     1     -42.483  57.356 -51.948  1.00  0.00     0.014 A 
ENDBRANCH   1  22
BRANCH   3  28
HETATM   28  C   UNL     1     -40.514  52.383 -53.429  1.00  0.00     0.058 A 
HETATM   29  C   UNL     1     -40.504  51.342 -54.372  1.00  0.00     0.031 A 
HETATM   30  C   UNL     1     -39.982  50.092 -54.037  1.00  0.00     0.002 A 
HETATM   31  C   UNL     1     -39.468  49.869 -52.763  1.00  0.00     0.000 A 
HETATM   32  C   UNL     1     -39.472  50.896 -51.820  1.00  0.00     0.002 A 
HETATM   33  C   UNL     1     -39.991  52.152 -52.148  1.00  0.00     0.031 A 
ENDBRANCH   3  28
TORSDOF 5
ENDMDL
MODEL 4
REMARK VINA RESULT:      -8.9      3.033      8.416
REMARK  5 active torsions:
REMARK  status: ('A' for Active; 'I' for Inactive)
REMARK    1  A    between atoms: C_4  and  C_5 
REMARK    2  A    between atoms: N_7  and  C_8 
REMARK    3  A    between atoms: C_15  and  C_16 
REMARK       I    between atoms: C_16  and  N_17 
REMARK    4  A    between atoms: N_17  and  N_18 
REMARK       I    between atoms: N_18  and  C_19 
REMARK    5  A    between atoms: C_19  and  C_20 
ROOT
HETATM    1  C   UNL     1     -41.705  58.918 -54.183  1.00  0.00     0.105 A 
HETATM    2  N   UNL     1     -41.860  59.955 -55.023  1.00  0.00    -0.166 NA
HETATM    3  N   UNL     1     -42.241  59.427 -56.203  1.00  0.00    -0.244 N 
HETATM    4  C   UNL     1     -42.344  58.060 -56.124  1.00  0.00     0.138 A 
HETATM    5  C   UNL     1     -42.027  57.683 -54.828  1.00  0.00     0.082 A 
ENDROOT
BRANCH   5   6
HETATM    6  C   UNL     1     -42.041  56.326 -54.291  1.00  0.00     0.274 C 
HETATM    7  N   UNL     1     -40.801  55.831 -53.936  1.00  0.00    -0.263 N 
HETATM    8  H   UNL     1     -39.926  56.315 -54.115  1.00  0.00     0.190 HD
HETATM    9  O   UNL     1     -43.062  55.657 -54.153  1.00  0.00    -0.266 OA
BRANCH   7  10
HETATM   10  N   UNL     1     -40.686  54.542 -53.407  1.00  0.00    -0.263 N 
HETATM   11  C   UNL     1     -40.211  53.546 -54.227  1.00  0.00     0.275 C 
HETATM   12  O   UNL     1     -39.938  53.756 -55.412  1.00  0.00    -0.266 OA
HETATM   13  H   UNL     1     -40.902  54.405 -52.413  1.00  0.00     0.190 HD
BRANCH  11  14
HETATM   14  C   UNL     1     -40.038  52.208 -53.599  1.00  0.00     0.101 A 
HETATM   15  C   UNL     1     -39.714  52.010 -52.154  1.00  0.00     0.261 A 
HETATM   16  O   UNL     1     -39.574  52.953 -51.381  1.00  0.00    -0.267 OA
HETATM   17  N   UNL     1     -39.575  50.706 -51.730  1.00  0.00    -0.333 N 
HETATM   18  C   UNL     1     -39.717  49.615 -52.546  1.00  0.00     0.091 A 
HETATM   19  H   UNL     1     -39.352  50.583 -50.748  1.00  0.00     0.168 HD
HETATM   20  C   UNL     1     -40.010  49.780 -53.840  1.00  0.00     0.018 A 
HETATM   21  C   UNL     1     -40.172  51.114 -54.375  1.00  0.00     0.024 A 
ENDBRANCH  11  14
ENDBRANCH   7  10
ENDBRANCH   5   6
BRANCH   1  22
HETATM   22  C   UNL     1     -41.291  59.187 -52.804  1.00  0.00    -0.005 A 
HETATM   23  C   UNL     1     -42.201  59.767 -51.908  1.00  0.00     0.014 A 
HETATM   24  C   UNL     1     -41.825  60.057 -50.594  1.00  0.00     0.001 A 
HETATM   25  C   UNL     1     -40.529  59.777 -50.166  1.00  0.00     0.000 A 
HETATM   26  C   UNL     1     -39.610  59.215 -51.050  1.00  0.00     0.001 A 
HETATM   27  C   UNL     1     -39.986  58.930 -52.367  1.00  0.00     0.014 A 
ENDBRANCH   1  22
BRANCH   3  28
HETATM   28  C   UNL     1     -42.498  60.262 -57.328  1.00  0.00     0.058 A 
HETATM   29  C   UNL     1     -41.545  60.343 -58.357  1.00  0.00     0.031 A 
HETATM   30  C   UNL     1     -41.771  61.161 -59.464  1.00  0.00     0.002 A 
HETATM   31  C   UNL     1     -42.944  61.905 -59.556  1.00  0.00     0.000 A 
HETATM   32  C   UNL     1     -43.897  61.830 -58.540  1.00  0.00     0.002 A 
HETATM   33  C   UNL     1     -43.679  61.011 -57.428  1.00  0.00     0.031 A 
ENDBRANCH   3  28
TORSDOF 5
ENDMDL
MODEL 5
REMARK VINA RESULT:      -8.7      3.280      6.420
REMARK  5 active torsions:
REMARK  status: ('A' for Active; 'I' for Inactive)
REMARK    1  A    between atoms: C_4  and  C_5 
REMARK    2  A    between atoms: N_7  and  C_8 
REMARK    3  A    between atoms: C_15  and  C_16 
REMARK       I    between atoms: C_16  and  N_17 
REMARK    4  A    between atoms: N_17  and  N_18 
REMARK       I    between atoms: N_18  and  C_19 
REMARK    5  A    between atoms: C_19  and  C_20 
ROOT
HETATM    1  C   UNL     1     -42.182  55.254 -54.607  1.00  0.00     0.105 A 
HETATM    2  N   UNL     1     -41.484  54.116 -54.759  1.00  0.00    -0.166 NA
HETATM    3  N   UNL     1     -41.376  53.576 -53.529  1.00  0.00    -0.244 N 
HETATM    4  C   UNL     1     -42.009  54.354 -52.589  1.00  0.00     0.138 A 
HETATM    5  C   UNL     1     -42.565  55.442 -53.242  1.00  0.00     0.082 A 
ENDROOT
BRANCH   5   6
HETATM    6  C   UNL     1     -43.359  56.506 -52.635  1.00  0.00     0.274 C 
HETATM    7  N   UNL     1     -42.797  57.075 -51.508  1.00  0.00    -0.263 N 
HETATM    8  H   UNL     1     -41.951  56.734 -51.063  1.00  0.00     0.190 HD
HETATM    9  O   UNL     1     -44.442  56.884 -53.073  1.00  0.00    -0.266 OA
BRANCH   7  10
HETATM   10  N   UNL     1     -43.464  58.106 -50.838  1.00  0.00    -0.263 N 
HETATM   11  C   UNL     1     -43.140  59.403 -51.160  1.00  0.00     0.275 C 
HETATM   12  O   UNL     1     -42.252  59.666 -51.975  1.00  0.00    -0.266 OA
HETATM   13  H   UNL     1     -44.212  57.853 -50.182  1.00  0.00     0.190 HD
BRANCH  11  14
HETATM   14  C   UNL     1     -43.928  60.463 -50.475  1.00  0.00     0.101 A 
HETATM   15  C   UNL     1     -45.330  60.271 -49.997  1.00  0.00     0.261 A 
HETATM   16  O   UNL     1     -45.928  59.209 -50.137  1.00  0.00    -0.267 OA
HETATM   17  N   UNL     1     -45.925  61.357 -49.391  1.00  0.00    -0.333 N 
HETATM   18  C   UNL     1     -45.309  62.567 -49.209  1.00  0.00     0.091 A 
HETATM   19  H   UNL     1     -46.878  61.217 -49.073  1.00  0.00     0.168 HD
HETATM   20  C   UNL     1     -44.053  62.748 -49.630  1.00  0.00     0.018 A 
HETATM   21  C   UNL     1     -43.350  61.665 -50.280  1.00  0.00     0.024 A 
ENDBRANCH  11  14
ENDBRANCH   7  10
ENDBRANCH   5   6
BRANCH   1  22
HETATM   22  C   UNL     1     -42.462  56.068 -55.792  1.00  0.00    -0.005 A 
HETATM   23  C   UNL     1     -42.908  55.448 -56.969  1.00  0.00     0.014 A 
HETATM   24  C   UNL     1     -43.160  56.198 -58.120  1.00  0.00     0.001 A 
HETATM   25  C   UNL     1     -42.961  57.576 -58.108  1.00  0.00     0.000 A 
HETATM   26  C   UNL     1     -42.504  58.203 -56.950  1.00  0.00     0.001 A 
HETATM   27  C   UNL     1     -42.247  57.451 -55.799  1.00  0.00     0.014 A 
ENDBRANCH   1  22
BRANCH   3  28
HETATM   28  C   UNL     1     -40.688  52.345 -53.328  1.00  0.00     0.058 A 
HETATM   29  C   UNL     1     -40.629  51.412 -54.376  1.00  0.00     0.031 A 
HETATM   30  C   UNL     1     -39.969  50.195 -54.200  1.00  0.00     0.002 A 
HETATM   31  C   UNL     1     -39.363  49.898 -52.982  1.00  0.00     0.000 A 
HETATM   32  C   UNL     1     -39.415  50.820 -51.936  1.00  0.00     0.002 A 
HETATM   33  C   UNL     1     -40.073  52.042 -52.105  1.00  0.00     0.031 A 
ENDBRANCH   3  28
TORSDOF 5
ENDMDL
MODEL 6
REMARK VINA RESULT:      -8.3      2.492      8.502
REMARK  5 active torsions:
REMARK  status: ('A' for Active; 'I' for Inactive)
REMARK    1  A    between atoms: C_4  and  C_5 
REMARK    2  A    between atoms: N_7  and  C_8 
REMARK    3  A    between atoms: C_15  and  C_16 
REMARK       I    between atoms: C_16  and  N_17 
REMARK    4  A    between atoms: N_17  and  N_18 
REMARK       I    between atoms: N_18  and  C_19 
REMARK    5  A    between atoms: C_19  and  C_20 
ROOT
HETATM    1  C   UNL     1     -42.441  57.992 -55.538  1.00  0.00     0.105 A 
HETATM    2  N   UNL     1     -42.746  59.056 -56.300  1.00  0.00    -0.166 NA
HETATM    3  N   UNL     1     -42.887  58.589 -57.556  1.00  0.00    -0.244 N 
HETATM    4  C   UNL     1     -42.686  57.231 -57.606  1.00  0.00     0.138 A 
HETATM    5  C   UNL     1     -42.415  56.794 -56.318  1.00  0.00     0.082 A 
ENDROOT
BRANCH   5   6
HETATM    6  C   UNL     1     -42.173  55.416 -55.903  1.00  0.00     0.274 C 
HETATM    7  N   UNL     1     -40.870  55.143 -55.533  1.00  0.00    -0.263 N 
HETATM    8  H   UNL     1     -40.104  55.804 -55.627  1.00  0.00     0.190 HD
HETATM    9  O   UNL     1     -43.043  54.549 -55.873  1.00  0.00    -0.266 OA
BRANCH   7  10
HETATM   10  N   UNL     1     -40.515  53.857 -55.114  1.00  0.00    -0.263 N 
HETATM   11  C   UNL     1     -40.452  53.610 -53.763  1.00  0.00     0.275 C 
HETATM   12  O   UNL     1     -40.647  54.501 -52.932  1.00  0.00    -0.266 OA
HETATM   13  H   UNL     1     -40.380  53.134 -55.831  1.00  0.00     0.190 HD
BRANCH  11  14
HETATM   14  C   UNL     1     -40.143  52.210 -53.367  1.00  0.00     0.101 A 
HETATM   15  C   UNL     1     -39.755  51.809 -51.981  1.00  0.00     0.261 A 
HETATM   16  O   UNL     1     -39.672  52.623 -51.066  1.00  0.00    -0.267 OA
HETATM   17  N   UNL     1     -39.490  50.472 -51.781  1.00  0.00    -0.333 N 
HETATM   18  C   UNL     1     -39.565  49.520 -52.763  1.00  0.00     0.091 A 
HETATM   19  H   UNL     1     -39.225  50.211 -50.837  1.00  0.00     0.168 HD
HETATM   20  C   UNL     1     -39.913  49.866 -54.006  1.00  0.00     0.018 A 
HETATM   21  C   UNL     1     -40.208  51.249 -54.311  1.00  0.00     0.024 A 
ENDBRANCH  11  14
ENDBRANCH   7  10
ENDBRANCH   5   6
BRANCH   1  22
HETATM   22  C   UNL     1     -42.228  58.194 -54.103  1.00  0.00    -0.005 A 
HETATM   23  C   UNL     1     -40.926  58.388 -53.617  1.00  0.00     0.014 A 
HETATM   24  C   UNL     1     -40.692  58.559 -52.250  1.00  0.00     0.001 A 
HETATM   25  C   UNL     1     -41.759  58.531 -51.355  1.00  0.00     0.000 A 
HETATM   26  C   UNL     1     -43.055  58.324 -51.824  1.00  0.00     0.001 A 
HETATM   27  C   UNL     1     -43.288  58.148 -53.191  1.00  0.00     0.014 A 
ENDBRANCH   1  22
BRANCH   3  28
HETATM   28  C   UNL     1     -43.219  59.465 -58.629  1.00  0.00     0.058 A 
HETATM   29  C   UNL     1     -43.293  58.956 -59.936  1.00  0.00     0.031 A 
HETATM   30  C   UNL     1     -43.607  59.798 -61.004  1.00  0.00     0.002 A 
HETATM   31  C   UNL     1     -43.850  61.151 -60.779  1.00  0.00     0.000 A 
HETATM   32  C   UNL     1     -43.781  61.665 -59.485  1.00  0.00     0.002 A 
HETATM   33  C   UNL     1     -43.468  60.828 -58.410  1.00  0.00     0.031 A 
ENDBRANCH   3  28
TORSDOF 5
ENDMDL
MODEL 7
REMARK VINA RESULT:      -8.1      3.929      6.465
REMARK  5 active torsions:
REMARK  status: ('A' for Active; 'I' for Inactive)
REMARK    1  A    between atoms: C_4  and  C_5 
REMARK    2  A    between atoms: N_7  and  C_8 
REMARK    3  A    between atoms: C_15  and  C_16 
REMARK       I    between atoms: C_16  and  N_17 
REMARK    4  A    between atoms: N_17  and  N_18 
REMARK       I    between atoms: N_18  and  C_19 
REMARK    5  A    between atoms: C_19  and  C_20 
ROOT
HETATM    1  C   UNL     1     -42.508  55.778 -55.667  1.00  0.00     0.105 A 
HETATM    2  N   UNL     1     -41.724  54.706 -55.459  1.00  0.00    -0.166 NA
HETATM    3  N   UNL     1     -41.732  54.490 -54.129  1.00  0.00    -0.244 N 
HETATM    4  C   UNL     1     -42.523  55.407 -53.482  1.00  0.00     0.138 A 
HETATM    5  C   UNL     1     -43.066  56.251 -54.438  1.00  0.00     0.082 A 
ENDROOT
BRANCH   5   6
HETATM    6  C   UNL     1     -43.996  57.350 -54.198  1.00  0.00     0.274 C 
HETATM    7  N   UNL     1     -43.552  58.297 -53.294  1.00  0.00    -0.263 N 
HETATM    8  H   UNL     1     -42.696  58.207 -52.755  1.00  0.00     0.190 HD
HETATM    9  O   UNL     1     -45.091  57.450 -54.746  1.00  0.00    -0.266 OA
BRANCH   7  10
HETATM   10  N   UNL     1     -44.354  59.398 -52.983  1.00  0.00    -0.263 N 
HETATM   11  C   UNL     1     -45.133  59.334 -51.851  1.00  0.00     0.275 C 
HETATM   12  O   UNL     1     -45.173  58.320 -51.150  1.00  0.00    -0.266 OA
HETATM   13  H   UNL     1     -44.282  60.233 -53.576  1.00  0.00     0.190 HD
BRANCH  11  14
HETATM   14  C   UNL     1     -45.913  60.558 -51.523  1.00  0.00     0.101 A 
HETATM   15  C   UNL     1     -45.813  61.274 -50.216  1.00  0.00     0.261 A 
HETATM   16  O   UNL     1     -45.066  60.895 -49.319  1.00  0.00    -0.267 OA
HETATM   17  N   UNL     1     -46.612  62.387 -50.065  1.00  0.00    -0.333 N 
HETATM   18  C   UNL     1     -47.466  62.855 -51.029  1.00  0.00     0.091 A 
HETATM   19  H   UNL     1     -46.539  62.865 -49.173  1.00  0.00     0.168 HD
HETATM   20  C   UNL     1     -47.560  62.223 -52.203  1.00  0.00     0.018 A 
HETATM   21  C   UNL     1     -46.761  61.044 -52.451  1.00  0.00     0.024 A 
ENDBRANCH  11  14
ENDBRANCH   7  10
ENDBRANCH   5   6
BRANCH   1  22
HETATM   22  C   UNL     1     -42.695  56.255 -57.039  1.00  0.00    -0.005 A 
HETATM   23  C   UNL     1     -43.193  55.379 -58.015  1.00  0.00     0.014 A 
HETATM   24  C   UNL     1     -43.358  55.801 -59.337  1.00  0.00     0.001 A 
HETATM   25  C   UNL     1     -43.019  57.103 -59.697  1.00  0.00     0.000 A 
HETATM   26  C   UNL     1     -42.509  57.979 -58.740  1.00  0.00     0.001 A 
HETATM   27  C   UNL     1     -42.339  57.554 -57.418  1.00  0.00     0.014 A 
ENDBRANCH   1  22
BRANCH   3  28
HETATM   28  C   UNL     1     -40.994  53.412 -53.560  1.00  0.00     0.058 A 
HETATM   29  C   UNL     1     -40.660  53.451 -52.196  1.00  0.00     0.031 A 
HETATM   30  C   UNL     1     -39.930  52.411 -51.619  1.00  0.00     0.002 A 
HETATM   31  C   UNL     1     -39.528  51.326 -52.394  1.00  0.00     0.000 A 
HETATM   32  C   UNL     1     -39.856  51.278 -53.748  1.00  0.00     0.002 A 
HETATM   33  C   UNL     1     -40.589  52.315 -54.334  1.00  0.00     0.031 A 
ENDBRANCH   3  28
TORSDOF 5
ENDMDL
MODEL 8
REMARK VINA RESULT:      -8.1      1.582      5.291
REMARK  5 active torsions:
REMARK  status: ('A' for Active; 'I' for Inactive)
REMARK    1  A    between atoms: C_4  and  C_5 
REMARK    2  A    between atoms: N_7  and  C_8 
REMARK    3  A    between atoms: C_15  and  C_16 
REMARK       I    between atoms: C_16  and  N_17 
REMARK    4  A    between atoms: N_17  and  N_18 
REMARK       I    between atoms: N_18  and  C_19 
REMARK    5  A    between atoms: C_19  and  C_20 
ROOT
HETATM    1  C   UNL     1     -41.200  55.312 -53.310  1.00  0.00     0.105 A 
HETATM    2  N   UNL     1     -40.707  56.105 -52.343  1.00  0.00    -0.166 NA
HETATM    3  N   UNL     1     -41.305  57.302 -52.500  1.00  0.00    -0.244 N 
HETATM    4  C   UNL     1     -42.187  57.282 -53.552  1.00  0.00     0.138 A 
HETATM    5  C   UNL     1     -42.171  56.007 -54.097  1.00  0.00     0.082 A 
ENDROOT
BRANCH   5   6
HETATM    6  C   UNL     1     -42.984  55.530 -55.211  1.00  0.00     0.274 C 
HETATM    7  N   UNL     1     -43.155  56.442 -56.235  1.00  0.00    -0.263 N 
HETATM    8  H   UNL     1     -42.834  57.405 -56.195  1.00  0.00     0.190 HD
HETATM    9  O   UNL     1     -43.484  54.409 -55.260  1.00  0.00    -0.266 OA
BRANCH   7  10
HETATM   10  N   UNL     1     -43.913  56.099 -57.359  1.00  0.00    -0.263 N 
HETATM   11  C   UNL     1     -44.509  57.112 -58.072  1.00  0.00     0.275 C 
HETATM   12  O   UNL     1     -44.430  58.290 -57.714  1.00  0.00    -0.266 OA
HETATM   13  H   UNL     1     -43.941  55.112 -57.641  1.00  0.00     0.190 HD
BRANCH  11  14
HETATM   14  C   UNL     1     -45.243  56.704 -59.300  1.00  0.00     0.101 A 
HETATM   15  C   UNL     1     -44.598  56.009 -60.455  1.00  0.00     0.261 A 
HETATM   16  O   UNL     1     -43.405  55.721 -60.460  1.00  0.00    -0.267 OA
HETATM   17  N   UNL     1     -45.415  55.708 -61.523  1.00  0.00    -0.333 N 
HETATM   18  C   UNL     1     -46.751  56.006 -61.574  1.00  0.00     0.091 A 
HETATM   19  H   UNL     1     -44.967  55.239 -62.303  1.00  0.00     0.168 HD
HETATM   20  C   UNL     1     -47.339  56.625 -60.545  1.00  0.00     0.018 A 
HETATM   21  C   UNL     1     -46.559  56.982 -59.381  1.00  0.00     0.024 A 
ENDBRANCH  11  14
ENDBRANCH   7  10
ENDBRANCH   5   6
BRANCH   1  22
HETATM   22  C   UNL     1     -40.729  53.928 -53.391  1.00  0.00    -0.005 A 
HETATM   23  C   UNL     1     -40.513  53.200 -52.211  1.00  0.00     0.014 A 
HETATM   24  C   UNL     1     -40.041  51.886 -52.258  1.00  0.00     0.001 A 
HETATM   25  C   UNL     1     -39.773  51.289 -53.488  1.00  0.00     0.000 A 
HETATM   26  C   UNL     1     -39.970  52.006 -54.667  1.00  0.00     0.001 A 
HETATM   27  C   UNL     1     -40.437  53.323 -54.618  1.00  0.00     0.014 A 
ENDBRANCH   1  22
BRANCH   3  28
HETATM   28  C   UNL     1     -41.007  58.387 -51.626  1.00  0.00     0.058 A 
HETATM   29  C   UNL     1     -42.049  59.217 -51.179  1.00  0.00     0.031 A 
HETATM   30  C   UNL     1     -41.781  60.291 -50.330  1.00  0.00     0.002 A 
HETATM   31  C   UNL     1     -40.475  60.548 -49.920  1.00  0.00     0.000 A 
HETATM   32  C   UNL     1     -39.434  59.729 -50.357  1.00  0.00     0.002 A 
HETATM   33  C   UNL     1     -39.695  58.650 -51.207  1.00  0.00     0.031 A 
ENDBRANCH   3  28
TORSDOF 5
ENDMDL
MODEL 9
REMARK VINA RESULT:      -8.1      1.569      1.997
REMARK  5 active torsions:
REMARK  status: ('A' for Active; 'I' for Inactive)
REMARK    1  A    between atoms: C_4  and  C_5 
REMARK    2  A    between atoms: N_7  and  C_8 
REMARK    3  A    between atoms: C_15  and  C_16 
REMARK       I    between atoms: C_16  and  N_17 
REMARK    4  A    between atoms: N_17  and  N_18 
REMARK       I    between atoms: N_18  and  C_19 
REMARK    5  A    between atoms: C_19  and  C_20 
ROOT
HETATM    1  C   UNL     1     -42.086  56.864 -53.413  1.00  0.00     0.105 A 
HETATM    2  N   UNL     1     -41.462  55.830 -52.824  1.00  0.00    -0.166 NA
HETATM    3  N   UNL     1     -41.381  54.861 -53.757  1.00  0.00    -0.244 N 
HETATM    4  C   UNL     1     -41.938  55.269 -54.944  1.00  0.00     0.138 A 
HETATM    5  C   UNL     1     -42.390  56.569 -54.779  1.00  0.00     0.082 A 
ENDROOT
BRANCH   5   6
HETATM    6  C   UNL     1     -43.018  57.406 -55.796  1.00  0.00     0.274 C 
HETATM    7  N   UNL     1     -44.167  56.876 -56.352  1.00  0.00    -0.263 N 
HETATM    8  H   UNL     1     -44.512  55.941 -56.157  1.00  0.00     0.190 HD
HETATM    9  O   UNL     1     -42.581  58.499 -56.146  1.00  0.00    -0.266 OA
BRANCH   7  10
HETATM   10  N   UNL     1     -44.860  57.587 -57.338  1.00  0.00    -0.263 N 
HETATM   11  C   UNL     1     -44.706  57.195 -58.647  1.00  0.00     0.275 C 
HETATM   12  O   UNL     1     -43.942  56.280 -58.964  1.00  0.00    -0.266 OA
HETATM   13  H   UNL     1     -45.502  58.329 -57.038  1.00  0.00     0.190 HD
BRANCH  11  14
HETATM   14  C   UNL     1     -45.519  57.934 -59.650  1.00  0.00     0.101 A 
HETATM   15  C   UNL     1     -46.718  57.356 -60.329  1.00  0.00     0.261 A 
HETATM   16  O   UNL     1     -47.117  56.220 -60.093  1.00  0.00    -0.267 OA
HETATM   17  N   UNL     1     -47.355  58.167 -61.243  1.00  0.00    -0.333 N 
HETATM   18  C   UNL     1     -46.955  59.441 -61.548  1.00  0.00     0.091 A 
HETATM   19  H   UNL     1     -48.166  57.764 -61.700  1.00  0.00     0.168 HD
HETATM   20  C   UNL     1     -45.885  59.969 -60.945  1.00  0.00     0.018 A 
HETATM   21  C   UNL     1     -45.152  59.190 -59.972  1.00  0.00     0.024 A 
ENDBRANCH  11  14
ENDBRANCH   7  10
ENDBRANCH   5   6
BRANCH   1  22
HETATM   22  C   UNL     1     -42.318  58.081 -52.631  1.00  0.00    -0.005 A 
HETATM   23  C   UNL     1     -43.630  58.539 -52.435  1.00  0.00     0.014 A 
HETATM   24  C   UNL     1     -43.878  59.710 -51.715  1.00  0.00     0.001 A 
HETATM   25  C   UNL     1     -42.814  60.439 -51.188  1.00  0.00     0.000 A 
HETATM   26  C   UNL     1     -41.505  60.003 -51.389  1.00  0.00     0.001 A 
HETATM   27  C   UNL     1     -41.258  58.834 -52.115  1.00  0.00     0.014 A 
ENDBRANCH   1  22
BRANCH   3  28
HETATM   28  C   UNL     1     -40.764  53.611 -53.461  1.00  0.00     0.058 A 
HETATM   29  C   UNL     1     -40.479  53.284 -52.125  1.00  0.00     0.031 A 
HETATM   30  C   UNL     1     -39.866  52.070 -51.813  1.00  0.00     0.002 A 
HETATM   31  C   UNL     1     -39.533  51.174 -52.826  1.00  0.00     0.000 A 
HETATM   32  C   UNL     1     -39.815  51.489 -54.154  1.00  0.00     0.002 A 
HETATM   33  C   UNL     1     -40.430  52.703 -54.476  1.00  0.00     0.031 A 
ENDBRANCH   3  28
TORSDOF 5
ENDMDL
MODEL 10
REMARK VINA RESULT:      -8.1      3.332      9.429
REMARK  5 active torsions:
REMARK  status: ('A' for Active; 'I' for Inactive)
REMARK    1  A    between atoms: C_4  and  C_5 
REMARK    2  A    between atoms: N_7  and  C_8 
REMARK    3  A    between atoms: C_15  and  C_16 
REMARK       I    between atoms: C_16  and  N_17 
REMARK    4  A    between atoms: N_17  and  N_18 
REMARK       I    between atoms: N_18  and  C_19 
REMARK    5  A    between atoms: C_19  and  C_20 
ROOT
HETATM    1  C   UNL     1     -43.125  58.032 -58.812  1.00  0.00     0.105 A 
HETATM    2  N   UNL     1     -42.680  58.973 -59.663  1.00  0.00    -0.166 NA
HETATM    3  N   UNL     1     -42.006  59.867 -58.912  1.00  0.00    -0.244 N 
HETATM    4  C   UNL     1     -42.005  59.502 -57.588  1.00  0.00     0.138 A 
HETATM    5  C   UNL     1     -42.699  58.307 -57.475  1.00  0.00     0.082 A 
ENDROOT
BRANCH   5   6
HETATM    6  C   UNL     1     -42.912  57.540 -56.252  1.00  0.00     0.274 C 
HETATM    7  N   UNL     1     -41.808  56.836 -55.811  1.00  0.00    -0.263 N 
HETATM    8  H   UNL     1     -40.938  56.763 -56.330  1.00  0.00     0.190 HD
HETATM    9  O   UNL     1     -43.979  57.509 -55.643  1.00  0.00    -0.266 OA
BRANCH   7  10
HETATM   10  N   UNL     1     -41.889  56.064 -54.648  1.00  0.00    -0.263 N 
HETATM   11  C   UNL     1     -41.238  56.516 -53.524  1.00  0.00     0.275 C 
HETATM   12  O   UNL     1     -40.555  57.542 -53.540  1.00  0.00    -0.266 OA
HETATM   13  H   UNL     1     -42.483  55.226 -54.662  1.00  0.00     0.190 HD
BRANCH  11  14
HETATM   14  C   UNL     1     -41.415  55.699 -52.293  1.00  0.00     0.101 A 
HETATM   15  C   UNL     1     -41.651  54.225 -52.307  1.00  0.00     0.261 A 
HETATM   16  O   UNL     1     -41.710  53.583 -53.352  1.00  0.00    -0.267 OA
HETATM   17  N   UNL     1     -41.806  53.617 -51.080  1.00  0.00    -0.333 N 
HETATM   18  C   UNL     1     -41.752  54.281 -49.883  1.00  0.00     0.091 A 
HETATM   19  H   UNL     1     -41.969  52.615 -51.101  1.00  0.00     0.168 HD
HETATM   20  C   UNL     1     -41.538  55.600 -49.858  1.00  0.00     0.018 A 
HETATM   21  C   UNL     1     -41.366  56.323 -51.098  1.00  0.00     0.024 A 
ENDBRANCH  11  14
ENDBRANCH   7  10
ENDBRANCH   5   6
BRANCH   1  22
HETATM   22  C   UNL     1     -43.901  56.912 -59.348  1.00  0.00    -0.005 A 
HETATM   23  C   UNL     1     -45.103  57.165 -60.027  1.00  0.00     0.014 A 
HETATM   24  C   UNL     1     -45.876  56.114 -60.527  1.00  0.00     0.001 A 
HETATM   25  C   UNL     1     -45.456  54.797 -60.348  1.00  0.00     0.000 A 
HETATM   26  C   UNL     1     -44.272  54.532 -59.663  1.00  0.00     0.001 A 
HETATM   27  C   UNL     1     -43.502  55.584 -59.157  1.00  0.00     0.014 A 
ENDBRANCH   1  22
BRANCH   3  28
HETATM   28  C   UNL     1     -41.394  61.007 -59.508  1.00  0.00     0.058 A 
HETATM   29  C   UNL     1     -41.539  61.223 -60.889  1.00  0.00     0.031 A 
HETATM   30  C   UNL     1     -40.940  62.328 -61.496  1.00  0.00     0.002 A 
HETATM   31  C   UNL     1     -40.192  63.223 -60.736  1.00  0.00     0.000 A 
HETATM   32  C   UNL     1     -40.044  63.017 -59.364  1.00  0.00     0.002 A 
HETATM   33  C   UNL     1     -40.642  61.914 -58.748  1.00  0.00     0.031 A 
ENDBRANCH   3  28
TORSDOF 5
ENDMDL
