MODEL 1
REMARK VINA RESULT:      -8.4      0.000      0.000
REMARK  9 active torsions:
REMARK  status: ('A' for Active; 'I' for Inactive)
REMARK    1  A    between atoms: O_2  and  C_3 
REMARK    2  A    between atoms: C_5  and  C_15 
REMARK    3  A    between atoms: C_8  and  C_9 
REMARK       I    between atoms: C_15  and  N_17 
REMARK    4  A    between atoms: N_17  and  C_18 
REMARK    5  A    between atoms: C_18  and  C_19 
REMARK    6  A    between atoms: C_23  and  C_25 
REMARK       I    between atoms: C_25  and  N_27 
REMARK    7  A    between atoms: N_27  and  C_28 
REMARK    8  A    between atoms: C_28  and  C_29 
REMARK    9  A    between atoms: C_29  and  O_32 
ROOT
HETATM    1  C   UNL     1     -41.503  57.169 -53.413  1.00  0.00     0.252 C 
HETATM    2  O   UNL     1     -40.637  58.019 -53.589  1.00  0.00    -0.268 OA
HETATM    3  N   UNL     1     -42.842  57.470 -53.290  1.00  0.00    -0.353 N 
HETATM    4  H   UNL     1     -43.525  56.735 -53.411  1.00  0.00     0.163 HD
ENDROOT
BRANCH   3   5
HETATM    5  C   UNL     1     -43.306  58.830 -53.442  1.00  0.00     0.161 C 
BRANCH   5   6
HETATM    6  C   UNL     1     -43.896  59.037 -54.813  1.00  0.00    -0.040 A 
HETATM    7  C   UNL     1     -44.846  60.042 -55.043  1.00  0.00     0.009 A 
HETATM    8  C   UNL     1     -45.377  60.234 -56.320  1.00  0.00     0.002 A 
HETATM    9  C   UNL     1     -44.968  59.420 -57.376  1.00  0.00     0.017 A 
HETATM   10  C   UNL     1     -44.034  58.400 -57.160  1.00  0.00     0.032 A 
HETATM   11  C   UNL     1     -43.493  58.219 -55.882  1.00  0.00     0.026 A 
BRANCH  10  12
HETATM   12  C   UNL     1     -43.634  57.556 -58.318  1.00  0.00     0.251 C 
HETATM   13  O   UNL     1     -42.538  57.005 -58.328  1.00  0.00    -0.268 OA
HETATM   14  N   UNL     1     -44.532  57.468 -59.360  1.00  0.00    -0.354 N 
HETATM   15  H   UNL     1     -45.375  58.024 -59.360  1.00  0.00     0.162 HD
BRANCH  14  16
HETATM   16  C   UNL     1     -44.240  56.706 -60.567  1.00  0.00     0.159 C 
BRANCH  16  17
HETATM   17  C   UNL     1     -45.163  55.480 -60.750  1.00  0.00     0.066 C 
HETATM   18  C   UNL     1     -44.826  54.332 -59.796  1.00  0.00     0.047 C 
HETATM   19  C   UNL     1     -46.621  55.902 -60.556  1.00  0.00     0.047 C 
BRANCH  17  20
HETATM   20  O   UNL     1     -45.037  55.003 -62.098  1.00  0.00    -0.389 OA
HETATM   21  H   UNL     1     -45.403  55.698 -62.675  1.00  0.00     0.210 HD
ENDBRANCH  17  20
ENDBRANCH  16  17
ENDBRANCH  14  16
ENDBRANCH  10  12
ENDBRANCH   5   6
ENDBRANCH   3   5
BRANCH   1  22
HETATM   22  C   UNL     1     -41.138  55.728 -53.357  1.00  0.00     0.034 A 
HETATM   23  C   UNL     1     -41.247  54.979 -52.177  1.00  0.00     0.054 A 
HETATM   24  C   UNL     1     -40.893  53.621 -52.160  1.00  0.00     0.080 A 
HETATM   25  C   UNL     1     -40.438  52.998 -53.345  1.00  0.00     0.010 A 
HETATM   26  C   UNL     1     -40.307  53.773 -54.511  1.00  0.00     0.016 A 
HETATM   27  C   UNL     1     -40.648  55.126 -54.517  1.00  0.00     0.018 A 
BRANCH  24  28
HETATM   28  O   UNL     1     -41.013  52.834 -51.041  1.00  0.00    -0.355 OA
HETATM   29  C   UNL     1     -40.430  53.313 -49.835  1.00  0.00     0.210 C 
ENDBRANCH  24  28
BRANCH  25  30
HETATM   30  C   UNL     1     -40.071  51.586 -53.389  1.00  0.00     0.013 A 
HETATM   31  C   UNL     1     -40.219  50.611 -54.403  1.00  0.00     0.152 A 
HETATM   32  N   UNL     1     -39.753  49.410 -54.045  1.00  0.00    -0.187 NA
HETATM   33  N   UNL     1     -39.289  49.615 -52.803  1.00  0.00    -0.289 N 
HETATM   34  H   UNL     1     -38.868  48.832 -52.314  1.00  0.00     0.188 HD
HETATM   35  C   UNL     1     -39.458  50.895 -52.363  1.00  0.00     0.123 A 
ENDBRANCH  25  30
ENDBRANCH   1  22
TORSDOF 9
ENDMDL
MODEL 2
REMARK VINA RESULT:      -8.3      1.422      1.485
REMARK  9 active torsions:
REMARK  status: ('A' for Active; 'I' for Inactive)
REMARK    1  A    between atoms: O_2  and  C_3 
REMARK    2  A    between atoms: C_5  and  C_15 
REMARK    3  A    between atoms: C_8  and  C_9 
REMARK       I    between atoms: C_15  and  N_17 
REMARK    4  A    between atoms: N_17  and  C_18 
REMARK    5  A    between atoms: C_18  and  C_19 
REMARK    6  A    between atoms: C_23  and  C_25 
REMARK       I    between atoms: C_25  and  N_27 
REMARK    7  A    between atoms: N_27  and  C_28 
REMARK    8  A    between atoms: C_28  and  C_29 
REMARK    9  A    between atoms: C_29  and  O_32 
ROOT
HETATM    1  C   UNL     1     -41.368  57.263 -53.312  1.00  0.00     0.252 C 
HETATM    2  O   UNL     1     -41.144  57.947 -52.320  1.00  0.00    -0.268 OA
HETATM    3  N   UNL     1     -41.891  57.775 -54.479  1.00  0.00    -0.353 N 
HETATM    4  H   UNL     1     -41.809  57.238 -55.332  1.00  0.00     0.163 HD
ENDROOT
BRANCH   3   5
HETATM    5  C   UNL     1     -42.134  59.192 -54.616  1.00  0.00     0.161 C 
BRANCH   5   6
HETATM    6  C   UNL     1     -42.194  59.581 -56.071  1.00  0.00    -0.040 A 
HETATM    7  C   UNL     1     -42.238  60.928 -56.455  1.00  0.00     0.009 A 
HETATM    8  C   UNL     1     -42.281  61.277 -57.806  1.00  0.00     0.002 A 
HETATM    9  C   UNL     1     -42.285  60.284 -58.785  1.00  0.00     0.017 A 
HETATM   10  C   UNL     1     -42.260  58.933 -58.418  1.00  0.00     0.032 A 
HETATM   11  C   UNL     1     -42.203  58.586 -57.063  1.00  0.00     0.026 A 
BRANCH  10  12
HETATM   12  C   UNL     1     -42.272  57.911 -59.500  1.00  0.00     0.251 C 
HETATM   13  O   UNL     1     -41.511  58.019 -60.456  1.00  0.00    -0.268 OA
HETATM   14  N   UNL     1     -43.190  56.891 -59.378  1.00  0.00    -0.354 N 
HETATM   15  H   UNL     1     -43.871  56.898 -58.632  1.00  0.00     0.162 HD
BRANCH  14  16
HETATM   16  C   UNL     1     -43.328  55.853 -60.390  1.00  0.00     0.159 C 
BRANCH  16  17
HETATM   17  C   UNL     1     -44.755  55.264 -60.467  1.00  0.00     0.066 C 
HETATM   18  C   UNL     1     -44.894  53.938 -59.716  1.00  0.00     0.047 C 
HETATM   19  C   UNL     1     -45.759  56.279 -59.914  1.00  0.00     0.047 C 
BRANCH  17  20
HETATM   20  O   UNL     1     -45.092  55.045 -61.845  1.00  0.00    -0.389 OA
HETATM   21  H   UNL     1     -44.464  54.383 -62.184  1.00  0.00     0.210 HD
ENDBRANCH  17  20
ENDBRANCH  16  17
ENDBRANCH  14  16
ENDBRANCH  10  12
ENDBRANCH   5   6
ENDBRANCH   3   5
BRANCH   1  22
HETATM   22  C   UNL     1     -41.044  55.811 -53.308  1.00  0.00     0.034 A 
HETATM   23  C   UNL     1     -41.135  55.031 -52.147  1.00  0.00     0.054 A 
HETATM   24  C   UNL     1     -40.821  53.664 -52.180  1.00  0.00     0.080 A 
HETATM   25  C   UNL     1     -40.427  53.062 -53.397  1.00  0.00     0.010 A 
HETATM   26  C   UNL     1     -40.313  53.866 -54.545  1.00  0.00     0.016 A 
HETATM   27  C   UNL     1     -40.613  55.228 -54.501  1.00  0.00     0.018 A 
BRANCH  24  28
HETATM   28  O   UNL     1     -40.926  52.848 -51.080  1.00  0.00    -0.355 OA
HETATM   29  C   UNL     1     -40.582  53.404 -49.816  1.00  0.00     0.210 C 
ENDBRANCH  24  28
BRANCH  25  30
HETATM   30  C   UNL     1     -40.104  51.642 -53.494  1.00  0.00     0.013 A 
HETATM   31  C   UNL     1     -40.275  50.712 -54.546  1.00  0.00     0.152 A 
HETATM   32  N   UNL     1     -39.850  49.484 -54.231  1.00  0.00    -0.187 NA
HETATM   33  N   UNL     1     -39.389  49.626 -52.980  1.00  0.00    -0.289 N 
HETATM   34  H   UNL     1     -38.997  48.812 -52.518  1.00  0.00     0.188 HD
HETATM   35  C   UNL     1     -39.521  50.893 -52.491  1.00  0.00     0.123 A 
ENDBRANCH  25  30
ENDBRANCH   1  22
TORSDOF 9
ENDMDL
MODEL 3
REMARK VINA RESULT:      -8.2      2.166      3.509
REMARK  9 active torsions:
REMARK  status: ('A' for Active; 'I' for Inactive)
REMARK    1  A    between atoms: O_2  and  C_3 
REMARK    2  A    between atoms: C_5  and  C_15 
REMARK    3  A    between atoms: C_8  and  C_9 
REMARK       I    between atoms: C_15  and  N_17 
REMARK    4  A    between atoms: N_17  and  C_18 
REMARK    5  A    between atoms: C_18  and  C_19 
REMARK    6  A    between atoms: C_23  and  C_25 
REMARK       I    between atoms: C_25  and  N_27 
REMARK    7  A    between atoms: N_27  and  C_28 
REMARK    8  A    between atoms: C_28  and  C_29 
REMARK    9  A    between atoms: C_29  and  O_32 
ROOT
HETATM    1  C   UNL     1     -41.018  56.332 -50.416  1.00  0.00     0.252 C 
HETATM    2  O   UNL     1     -41.301  56.435 -49.229  1.00  0.00    -0.268 OA
HETATM    3  N   UNL     1     -40.921  57.413 -51.266  1.00  0.00    -0.353 N 
HETATM    4  H   UNL     1     -40.437  57.304 -52.147  1.00  0.00     0.163 HD
ENDROOT
BRANCH   3   5
HETATM    5  C   UNL     1     -41.077  58.758 -50.763  1.00  0.00     0.161 C 
BRANCH   5   6
HETATM    6  C   UNL     1     -41.793  59.620 -51.771  1.00  0.00    -0.040 A 
HETATM    7  C   UNL     1     -42.471  60.780 -51.373  1.00  0.00     0.009 A 
HETATM    8  C   UNL     1     -43.121  61.578 -52.317  1.00  0.00     0.002 A 
HETATM    9  C   UNL     1     -43.104  61.220 -53.665  1.00  0.00     0.017 A 
HETATM   10  C   UNL     1     -42.448  60.055 -54.077  1.00  0.00     0.032 A 
HETATM   11  C   UNL     1     -41.785  59.264 -53.130  1.00  0.00     0.026 A 
BRANCH  10  12
HETATM   12  C   UNL     1     -42.463  59.713 -55.525  1.00  0.00     0.251 C 
HETATM   13  O   UNL     1     -41.566  60.112 -56.260  1.00  0.00    -0.268 OA
HETATM   14  N   UNL     1     -43.537  58.977 -55.976  1.00  0.00    -0.354 N 
HETATM   15  H   UNL     1     -44.309  58.762 -55.361  1.00  0.00     0.162 HD
BRANCH  14  16
HETATM   16  C   UNL     1     -43.688  58.615 -57.379  1.00  0.00     0.159 C 
BRANCH  16  17
HETATM   17  C   UNL     1     -42.975  57.293 -57.746  1.00  0.00     0.066 C 
HETATM   18  C   UNL     1     -42.856  56.331 -56.561  1.00  0.00     0.047 C 
HETATM   19  C   UNL     1     -43.721  56.609 -58.894  1.00  0.00     0.047 C 
BRANCH  17  20
HETATM   20  O   UNL     1     -41.655  57.595 -58.221  1.00  0.00    -0.389 OA
HETATM   21  H   UNL     1     -41.348  58.371 -57.719  1.00  0.00     0.210 HD
ENDBRANCH  17  20
ENDBRANCH  16  17
ENDBRANCH  14  16
ENDBRANCH  10  12
ENDBRANCH   5   6
ENDBRANCH   3   5
BRANCH   1  22
HETATM   22  C   UNL     1     -40.727  54.996 -51.004  1.00  0.00     0.034 A 
HETATM   23  C   UNL     1     -40.875  54.738 -52.374  1.00  0.00     0.054 A 
HETATM   24  C   UNL     1     -40.592  53.466 -52.894  1.00  0.00     0.080 A 
HETATM   25  C   UNL     1     -40.136  52.440 -52.034  1.00  0.00     0.010 A 
HETATM   26  C   UNL     1     -40.021  52.710 -50.658  1.00  0.00     0.016 A 
HETATM   27  C   UNL     1     -40.318  53.974 -50.147  1.00  0.00     0.018 A 
BRANCH  24  28
HETATM   28  O   UNL     1     -40.688  53.169 -54.231  1.00  0.00    -0.355 OA
HETATM   29  C   UNL     1     -40.182  54.126 -55.154  1.00  0.00     0.210 C 
ENDBRANCH  24  28
BRANCH  25  30
HETATM   30  C   UNL     1     -39.811  51.103 -52.522  1.00  0.00     0.013 A 
HETATM   31  C   UNL     1     -39.717  50.583 -53.834  1.00  0.00     0.152 A 
HETATM   32  N   UNL     1     -39.397  49.285 -53.858  1.00  0.00    -0.187 NA
HETATM   33  N   UNL     1     -39.268  48.972 -52.560  1.00  0.00    -0.289 N 
HETATM   34  H   UNL     1     -39.013  48.020 -52.319  1.00  0.00     0.188 HD
HETATM   35  C   UNL     1     -39.509  50.020 -51.721  1.00  0.00     0.123 A 
ENDBRANCH  25  30
ENDBRANCH   1  22
TORSDOF 9
ENDMDL
MODEL 4
REMARK VINA RESULT:      -8.1      2.285      3.402
REMARK  9 active torsions:
REMARK  status: ('A' for Active; 'I' for Inactive)
REMARK    1  A    between atoms: O_2  and  C_3 
REMARK    2  A    between atoms: C_5  and  C_15 
REMARK    3  A    between atoms: C_8  and  C_9 
REMARK       I    between atoms: C_15  and  N_17 
REMARK    4  A    between atoms: N_17  and  C_18 
REMARK    5  A    between atoms: C_18  and  C_19 
REMARK    6  A    between atoms: C_23  and  C_25 
REMARK       I    between atoms: C_25  and  N_27 
REMARK    7  A    between atoms: N_27  and  C_28 
REMARK    8  A    between atoms: C_28  and  C_29 
REMARK    9  A    between atoms: C_29  and  O_32 
ROOT
HETATM    1  C   UNL     1     -41.550  56.219 -54.981  1.00  0.00     0.252 C 
HETATM    2  O   UNL     1     -41.433  57.296 -54.407  1.00  0.00    -0.268 OA
HETATM    3  N   UNL     1     -42.028  56.098 -56.267  1.00  0.00    -0.353 N 
HETATM    4  H   UNL     1     -41.858  55.241 -56.777  1.00  0.00     0.163 HD
ENDROOT
BRANCH   3   5
HETATM    5  C   UNL     1     -42.349  57.272 -57.045  1.00  0.00     0.161 C 
BRANCH   5   6
HETATM    6  C   UNL     1     -43.183  56.900 -58.244  1.00  0.00    -0.040 A 
HETATM    7  C   UNL     1     -43.096  55.623 -58.815  1.00  0.00     0.009 A 
HETATM    8  C   UNL     1     -43.882  55.285 -59.918  1.00  0.00     0.002 A 
HETATM    9  C   UNL     1     -44.759  56.223 -60.464  1.00  0.00     0.017 A 
HETATM   10  C   UNL     1     -44.846  57.509 -59.918  1.00  0.00     0.032 A 
HETATM   11  C   UNL     1     -44.066  57.840 -58.804  1.00  0.00     0.026 A 
BRANCH  10  12
HETATM   12  C   UNL     1     -45.792  58.475 -60.541  1.00  0.00     0.251 C 
HETATM   13  O   UNL     1     -45.458  59.644 -60.703  1.00  0.00    -0.268 OA
HETATM   14  N   UNL     1     -47.038  57.992 -60.876  1.00  0.00    -0.354 N 
HETATM   15  H   UNL     1     -47.310  57.052 -60.625  1.00  0.00     0.162 HD
BRANCH  14  16
HETATM   16  C   UNL     1     -48.066  58.847 -61.452  1.00  0.00     0.159 C 
BRANCH  16  17
HETATM   17  C   UNL     1     -48.668  58.278 -62.758  1.00  0.00     0.066 C 
HETATM   18  C   UNL     1     -48.627  56.750 -62.816  1.00  0.00     0.047 C 
HETATM   19  C   UNL     1     -50.111  58.764 -62.911  1.00  0.00     0.047 C 
BRANCH  17  20
HETATM   20  O   UNL     1     -47.927  58.797 -63.874  1.00  0.00    -0.389 OA
HETATM   21  H   UNL     1     -47.249  58.132 -64.090  1.00  0.00     0.210 HD
ENDBRANCH  17  20
ENDBRANCH  16  17
ENDBRANCH  14  16
ENDBRANCH  10  12
ENDBRANCH   5   6
ENDBRANCH   3   5
BRANCH   1  22
HETATM   22  C   UNL     1     -41.137  54.961 -54.303  1.00  0.00     0.034 A 
HETATM   23  C   UNL     1     -41.344  54.751 -52.933  1.00  0.00     0.054 A 
HETATM   24  C   UNL     1     -40.942  53.552 -52.326  1.00  0.00     0.080 A 
HETATM   25  C   UNL     1     -40.338  52.538 -53.105  1.00  0.00     0.010 A 
HETATM   26  C   UNL     1     -40.113  52.777 -54.472  1.00  0.00     0.016 A 
HETATM   27  C   UNL     1     -40.503  53.978 -55.066  1.00  0.00     0.018 A 
BRANCH  24  28
HETATM   28  O   UNL     1     -41.151  53.282 -50.996  1.00  0.00    -0.355 OA
HETATM   29  C   UNL     1     -40.673  54.232 -50.051  1.00  0.00     0.210 C 
ENDBRANCH  24  28
BRANCH  25  30
HETATM   30  C   UNL     1     -39.915  51.264 -52.531  1.00  0.00     0.013 A 
HETATM   31  C   UNL     1     -39.595  50.896 -51.203  1.00  0.00     0.152 A 
HETATM   32  N   UNL     1     -39.239  49.613 -51.089  1.00  0.00    -0.187 NA
HETATM   33  N   UNL     1     -39.345  49.148 -52.342  1.00  0.00    -0.289 N 
HETATM   34  H   UNL     1     -39.130  48.171 -52.511  1.00  0.00     0.188 HD
HETATM   35  C   UNL     1     -39.740  50.094 -53.242  1.00  0.00     0.123 A 
ENDBRANCH  25  30
ENDBRANCH   1  22
TORSDOF 9
ENDMDL
MODEL 5
REMARK VINA RESULT:      -8.1      4.371      7.608
REMARK  9 active torsions:
REMARK  status: ('A' for Active; 'I' for Inactive)
REMARK    1  A    between atoms: O_2  and  C_3 
REMARK    2  A    between atoms: C_5  and  C_15 
REMARK    3  A    between atoms: C_8  and  C_9 
REMARK       I    between atoms: C_15  and  N_17 
REMARK    4  A    between atoms: N_17  and  C_18 
REMARK    5  A    between atoms: C_18  and  C_19 
REMARK    6  A    between atoms: C_23  and  C_25 
REMARK       I    between atoms: C_25  and  N_27 
REMARK    7  A    between atoms: N_27  and  C_28 
REMARK    8  A    between atoms: C_28  and  C_29 
REMARK    9  A    between atoms: C_29  and  O_32 
ROOT
HETATM    1  C   UNL     1     -41.365  56.977 -53.766  1.00  0.00     0.252 C 
HETATM    2  O   UNL     1     -41.716  57.400 -54.861  1.00  0.00    -0.268 OA
HETATM    3  N   UNL     1     -41.311  57.761 -52.635  1.00  0.00    -0.353 N 
HETATM    4  H   UNL     1     -41.273  57.315 -51.728  1.00  0.00     0.163 HD
ENDROOT
BRANCH   3   5
HETATM    5  C   UNL     1     -41.750  59.137 -52.673  1.00  0.00     0.161 C 
BRANCH   5   6
HETATM    6  C   UNL     1     -43.017  59.310 -51.876  1.00  0.00    -0.040 A 
HETATM    7  C   UNL     1     -44.075  58.399 -51.998  1.00  0.00     0.009 A 
HETATM    8  C   UNL     1     -45.239  58.562 -51.245  1.00  0.00     0.002 A 
HETATM    9  C   UNL     1     -45.359  59.640 -50.368  1.00  0.00     0.017 A 
HETATM   10  C   UNL     1     -44.320  60.570 -50.248  1.00  0.00     0.032 A 
HETATM   11  C   UNL     1     -43.148  60.396 -50.994  1.00  0.00     0.026 A 
BRANCH  10  12
HETATM   12  C   UNL     1     -44.499  61.706 -49.304  1.00  0.00     0.251 C 
HETATM   13  O   UNL     1     -43.843  62.733 -49.447  1.00  0.00    -0.268 OA
HETATM   14  N   UNL     1     -45.393  61.519 -48.272  1.00  0.00    -0.354 N 
HETATM   15  H   UNL     1     -45.830  60.620 -48.127  1.00  0.00     0.162 HD
BRANCH  14  16
HETATM   16  C   UNL     1     -45.625  62.540 -47.259  1.00  0.00     0.159 C 
BRANCH  16  17
HETATM   17  C   UNL     1     -47.121  62.734 -46.925  1.00  0.00     0.066 C 
HETATM   18  C   UNL     1     -47.351  63.683 -45.746  1.00  0.00     0.047 C 
HETATM   19  C   UNL     1     -47.859  63.256 -48.160  1.00  0.00     0.047 C 
BRANCH  17  20
HETATM   20  O   UNL     1     -47.693  61.458 -46.599  1.00  0.00    -0.389 OA
HETATM   21  H   UNL     1     -47.430  61.261 -45.682  1.00  0.00     0.210 HD
ENDBRANCH  17  20
ENDBRANCH  16  17
ENDBRANCH  14  16
ENDBRANCH  10  12
ENDBRANCH   5   6
ENDBRANCH   3   5
BRANCH   1  22
HETATM   22  C   UNL     1     -41.001  55.543 -53.600  1.00  0.00     0.034 A 
HETATM   23  C   UNL     1     -41.112  54.886 -52.366  1.00  0.00     0.054 A 
HETATM   24  C   UNL     1     -40.760  53.533 -52.246  1.00  0.00     0.080 A 
HETATM   25  C   UNL     1     -40.305  52.821 -53.379  1.00  0.00     0.010 A 
HETATM   26  C   UNL     1     -40.173  53.505 -54.601  1.00  0.00     0.016 A 
HETATM   27  C   UNL     1     -40.512  54.854 -54.710  1.00  0.00     0.018 A 
BRANCH  24  28
HETATM   28  O   UNL     1     -40.881  52.834 -51.070  1.00  0.00    -0.355 OA
HETATM   29  C   UNL     1     -40.451  53.477 -49.876  1.00  0.00     0.210 C 
ENDBRANCH  24  28
BRANCH  25  30
HETATM   30  C   UNL     1     -39.940  51.409 -53.315  1.00  0.00     0.013 A 
HETATM   31  C   UNL     1     -39.888  50.410 -54.314  1.00  0.00     0.152 A 
HETATM   32  N   UNL     1     -39.505  49.219 -53.842  1.00  0.00    -0.187 NA
HETATM   33  N   UNL     1     -39.293  49.455 -52.539  1.00  0.00    -0.289 N 
HETATM   34  H   UNL     1     -38.979  48.686 -51.957  1.00  0.00     0.188 HD
HETATM   35  C   UNL     1     -39.542  50.745 -52.172  1.00  0.00     0.123 A 
ENDBRANCH  25  30
ENDBRANCH   1  22
TORSDOF 9
ENDMDL
MODEL 6
REMARK VINA RESULT:      -8.1      1.874      2.815
REMARK  9 active torsions:
REMARK  status: ('A' for Active; 'I' for Inactive)
REMARK    1  A    between atoms: O_2  and  C_3 
REMARK    2  A    between atoms: C_5  and  C_15 
REMARK    3  A    between atoms: C_8  and  C_9 
REMARK       I    between atoms: C_15  and  N_17 
REMARK    4  A    between atoms: N_17  and  C_18 
REMARK    5  A    between atoms: C_18  and  C_19 
REMARK    6  A    between atoms: C_23  and  C_25 
REMARK       I    between atoms: C_25  and  N_27 
REMARK    7  A    between atoms: N_27  and  C_28 
REMARK    8  A    between atoms: C_28  and  C_29 
REMARK    9  A    between atoms: C_29  and  O_32 
ROOT
HETATM    1  C   UNL     1     -41.352  56.791 -51.022  1.00  0.00     0.252 C 
HETATM    2  O   UNL     1     -40.549  57.497 -50.422  1.00  0.00    -0.268 OA
HETATM    3  N   UNL     1     -42.586  57.239 -51.439  1.00  0.00    -0.353 N 
HETATM    4  H   UNL     1     -43.088  56.714 -52.142  1.00  0.00     0.163 HD
ENDROOT
BRANCH   3   5
HETATM    5  C   UNL     1     -42.969  58.619 -51.250  1.00  0.00     0.161 C 
BRANCH   5   6
HETATM    6  C   UNL     1     -43.815  59.096 -52.402  1.00  0.00    -0.040 A 
HETATM    7  C   UNL     1     -44.949  59.889 -52.183  1.00  0.00     0.009 A 
HETATM    8  C   UNL     1     -45.719  60.336 -53.258  1.00  0.00     0.002 A 
HETATM    9  C   UNL     1     -45.364  59.990 -54.562  1.00  0.00     0.017 A 
HETATM   10  C   UNL     1     -44.245  59.183 -54.798  1.00  0.00     0.032 A 
HETATM   11  C   UNL     1     -43.468  58.748 -53.719  1.00  0.00     0.026 A 
BRANCH  10  12
HETATM   12  C   UNL     1     -43.913  58.837 -56.207  1.00  0.00     0.251 C 
HETATM   13  O   UNL     1     -43.124  59.531 -56.841  1.00  0.00    -0.268 OA
HETATM   14  N   UNL     1     -44.556  57.744 -56.745  1.00  0.00    -0.354 N 
HETATM   15  H   UNL     1     -45.279  57.265 -56.225  1.00  0.00     0.162 HD
BRANCH  14  16
HETATM   16  C   UNL     1     -44.347  57.328 -58.125  1.00  0.00     0.159 C 
BRANCH  16  17
HETATM   17  C   UNL     1     -43.133  56.387 -58.299  1.00  0.00     0.066 C 
HETATM   18  C   UNL     1     -42.954  55.422 -57.125  1.00  0.00     0.047 C 
HETATM   19  C   UNL     1     -43.279  55.597 -59.601  1.00  0.00     0.047 C 
BRANCH  17  20
HETATM   20  O   UNL     1     -41.944  57.183 -58.419  1.00  0.00    -0.389 OA
HETATM   21  H   UNL     1     -41.931  57.782 -57.651  1.00  0.00     0.210 HD
ENDBRANCH  17  20
ENDBRANCH  16  17
ENDBRANCH  14  16
ENDBRANCH  10  12
ENDBRANCH   5   6
ENDBRANCH   3   5
BRANCH   1  22
HETATM   22  C   UNL     1     -41.003  55.386 -51.365  1.00  0.00     0.034 A 
HETATM   23  C   UNL     1     -41.150  54.878 -52.663  1.00  0.00     0.054 A 
HETATM   24  C   UNL     1     -40.812  53.547 -52.950  1.00  0.00     0.080 A 
HETATM   25  C   UNL     1     -40.303  52.714 -51.928  1.00  0.00     0.010 A 
HETATM   26  C   UNL     1     -40.190  53.232 -50.625  1.00  0.00     0.016 A 
HETATM   27  C   UNL     1     -40.542  54.553 -50.344  1.00  0.00     0.018 A 
BRANCH  24  28
HETATM   28  O   UNL     1     -40.905  53.010 -54.211  1.00  0.00    -0.355 OA
HETATM   29  C   UNL     1     -40.286  53.723 -55.275  1.00  0.00     0.210 C 
ENDBRANCH  24  28
BRANCH  25  30
HETATM   30  C   UNL     1     -39.921  51.327 -52.172  1.00  0.00     0.013 A 
HETATM   31  C   UNL     1     -39.740  50.604 -53.375  1.00  0.00     0.152 A 
HETATM   32  N   UNL     1     -39.390  49.330 -53.169  1.00  0.00    -0.187 NA
HETATM   33  N   UNL     1     -39.328  49.236 -51.833  1.00  0.00    -0.289 N 
HETATM   34  H   UNL     1     -39.066  48.344 -51.427  1.00  0.00     0.188 HD
HETATM   35  C   UNL     1     -39.640  50.398 -51.190  1.00  0.00     0.123 A 
ENDBRANCH  25  30
ENDBRANCH   1  22
TORSDOF 9
ENDMDL
MODEL 7
REMARK VINA RESULT:      -8.1      2.057      2.963
REMARK  9 active torsions:
REMARK  status: ('A' for Active; 'I' for Inactive)
REMARK    1  A    between atoms: O_2  and  C_3 
REMARK    2  A    between atoms: C_5  and  C_15 
REMARK    3  A    between atoms: C_8  and  C_9 
REMARK       I    between atoms: C_15  and  N_17 
REMARK    4  A    between atoms: N_17  and  C_18 
REMARK    5  A    between atoms: C_18  and  C_19 
REMARK    6  A    between atoms: C_23  and  C_25 
REMARK       I    between atoms: C_25  and  N_27 
REMARK    7  A    between atoms: N_27  and  C_28 
REMARK    8  A    between atoms: C_28  and  C_29 
REMARK    9  A    between atoms: C_29  and  O_32 
ROOT
HETATM    1  C   UNL     1     -41.438  56.666 -54.562  1.00  0.00     0.252 C 
HETATM    2  O   UNL     1     -41.028  57.646 -53.950  1.00  0.00    -0.268 OA
HETATM    3  N   UNL     1     -42.235  56.753 -55.682  1.00  0.00    -0.353 N 
HETATM    4  H   UNL     1     -42.322  55.949 -56.288  1.00  0.00     0.163 HD
ENDROOT
BRANCH   3   5
HETATM    5  C   UNL     1     -42.568  58.040 -56.247  1.00  0.00     0.161 C 
BRANCH   5   6
HETATM    6  C   UNL     1     -43.001  57.892 -57.683  1.00  0.00    -0.040 A 
HETATM    7  C   UNL     1     -42.068  57.964 -58.727  1.00  0.00     0.009 A 
HETATM    8  C   UNL     1     -42.478  57.814 -60.053  1.00  0.00     0.002 A 
HETATM    9  C   UNL     1     -43.823  57.595 -60.348  1.00  0.00     0.017 A 
HETATM   10  C   UNL     1     -44.771  57.538 -59.319  1.00  0.00     0.032 A 
HETATM   11  C   UNL     1     -44.355  57.676 -57.989  1.00  0.00     0.026 A 
BRANCH  10  12
HETATM   12  C   UNL     1     -46.195  57.309 -59.686  1.00  0.00     0.251 C 
HETATM   13  O   UNL     1     -47.015  57.027 -58.819  1.00  0.00    -0.268 OA
HETATM   14  N   UNL     1     -46.511  57.395 -61.024  1.00  0.00    -0.354 N 
HETATM   15  H   UNL     1     -45.786  57.521 -61.717  1.00  0.00     0.162 HD
BRANCH  14  16
HETATM   16  C   UNL     1     -47.860  57.150 -61.514  1.00  0.00     0.159 C 
BRANCH  16  17
HETATM   17  C   UNL     1     -48.459  58.357 -62.272  1.00  0.00     0.066 C 
HETATM   18  C   UNL     1     -49.952  58.194 -62.568  1.00  0.00     0.047 C 
HETATM   19  C   UNL     1     -48.228  59.636 -61.465  1.00  0.00     0.047 C 
BRANCH  17  20
HETATM   20  O   UNL     1     -47.763  58.512 -63.519  1.00  0.00    -0.389 OA
HETATM   21  H   UNL     1     -48.398  58.286 -64.222  1.00  0.00     0.210 HD
ENDBRANCH  17  20
ENDBRANCH  16  17
ENDBRANCH  14  16
ENDBRANCH  10  12
ENDBRANCH   5   6
ENDBRANCH   3   5
BRANCH   1  22
HETATM   22  C   UNL     1     -41.054  55.296 -54.124  1.00  0.00     0.034 A 
HETATM   23  C   UNL     1     -41.259  54.850 -52.811  1.00  0.00     0.054 A 
HETATM   24  C   UNL     1     -40.884  53.551 -52.433  1.00  0.00     0.080 A 
HETATM   25  C   UNL     1     -40.312  52.679 -53.387  1.00  0.00     0.010 A 
HETATM   26  C   UNL     1     -40.087  53.154 -54.691  1.00  0.00     0.016 A 
HETATM   27  C   UNL     1     -40.449  54.451 -55.056  1.00  0.00     0.018 A 
BRANCH  24  28
HETATM   28  O   UNL     1     -41.094  53.053 -51.170  1.00  0.00    -0.355 OA
HETATM   29  C   UNL     1     -40.828  53.917 -50.072  1.00  0.00     0.210 C 
ENDBRANCH  24  28
BRANCH  25  30
HETATM   30  C   UNL     1     -39.917  51.314 -53.054  1.00  0.00     0.013 A 
HETATM   31  C   UNL     1     -39.857  50.139 -53.839  1.00  0.00     0.152 A 
HETATM   32  N   UNL     1     -39.445  49.071 -53.149  1.00  0.00    -0.187 NA
HETATM   33  N   UNL     1     -39.223  49.561 -51.920  1.00  0.00    -0.289 N 
HETATM   34  H   UNL     1     -38.888  48.926 -51.204  1.00  0.00     0.188 HD
HETATM   35  C   UNL     1     -39.494  50.893 -51.809  1.00  0.00     0.123 A 
ENDBRANCH  25  30
ENDBRANCH   1  22
TORSDOF 9
ENDMDL
MODEL 8
REMARK VINA RESULT:      -7.9      1.798      2.187
REMARK  9 active torsions:
REMARK  status: ('A' for Active; 'I' for Inactive)
REMARK    1  A    between atoms: O_2  and  C_3 
REMARK    2  A    between atoms: C_5  and  C_15 
REMARK    3  A    between atoms: C_8  and  C_9 
REMARK       I    between atoms: C_15  and  N_17 
REMARK    4  A    between atoms: N_17  and  C_18 
REMARK    5  A    between atoms: C_18  and  C_19 
REMARK    6  A    between atoms: C_23  and  C_25 
REMARK       I    between atoms: C_25  and  N_27 
REMARK    7  A    between atoms: N_27  and  C_28 
REMARK    8  A    between atoms: C_28  and  C_29 
REMARK    9  A    between atoms: C_29  and  O_32 
ROOT
HETATM    1  C   UNL     1     -42.720  57.429 -51.334  1.00  0.00     0.252 C 
HETATM    2  O   UNL     1     -42.103  58.436 -51.005  1.00  0.00    -0.268 OA
HETATM    3  N   UNL     1     -44.010  57.458 -51.817  1.00  0.00    -0.353 N 
HETATM    4  H   UNL     1     -44.369  56.653 -52.311  1.00  0.00     0.163 HD
ENDROOT
BRANCH   3   5
HETATM    5  C   UNL     1     -44.685  58.717 -52.034  1.00  0.00     0.161 C 
BRANCH   5   6
HETATM    6  C   UNL     1     -44.696  59.065 -53.501  1.00  0.00    -0.040 A 
HETATM    7  C   UNL     1     -45.386  60.192 -53.968  1.00  0.00     0.009 A 
HETATM    8  C   UNL     1     -45.379  60.511 -55.327  1.00  0.00     0.002 A 
HETATM    9  C   UNL     1     -44.688  59.705 -56.232  1.00  0.00     0.017 A 
HETATM   10  C   UNL     1     -44.009  58.565 -55.784  1.00  0.00     0.032 A 
HETATM   11  C   UNL     1     -44.006  58.255 -54.419  1.00  0.00     0.026 A 
BRANCH  10  12
HETATM   12  C   UNL     1     -43.292  57.735 -56.789  1.00  0.00     0.251 C 
HETATM   13  O   UNL     1     -42.202  58.096 -57.220  1.00  0.00    -0.268 OA
HETATM   14  N   UNL     1     -43.931  56.591 -57.217  1.00  0.00    -0.354 N 
HETATM   15  H   UNL     1     -44.875  56.388 -56.920  1.00  0.00     0.162 HD
BRANCH  14  16
HETATM   16  C   UNL     1     -43.352  55.717 -58.228  1.00  0.00     0.159 C 
BRANCH  16  17
HETATM   17  C   UNL     1     -44.137  55.725 -59.560  1.00  0.00     0.066 C 
HETATM   18  C   UNL     1     -44.655  54.340 -59.954  1.00  0.00     0.047 C 
HETATM   19  C   UNL     1     -45.307  56.706 -59.460  1.00  0.00     0.047 C 
BRANCH  17  20
HETATM   20  O   UNL     1     -43.273  56.202 -60.603  1.00  0.00    -0.389 OA
HETATM   21  H   UNL     1     -42.527  55.578 -60.655  1.00  0.00     0.210 HD
ENDBRANCH  17  20
ENDBRANCH  16  17
ENDBRANCH  14  16
ENDBRANCH  10  12
ENDBRANCH   5   6
ENDBRANCH   3   5
BRANCH   1  22
HETATM   22  C   UNL     1     -42.070  56.093 -51.254  1.00  0.00     0.034 A 
HETATM   23  C   UNL     1     -41.174  55.762 -50.228  1.00  0.00     0.054 A 
HETATM   24  C   UNL     1     -40.579  54.492 -50.184  1.00  0.00     0.080 A 
HETATM   25  C   UNL     1     -40.897  53.531 -51.170  1.00  0.00     0.010 A 
HETATM   26  C   UNL     1     -41.776  53.891 -52.208  1.00  0.00     0.016 A 
HETATM   27  C   UNL     1     -42.353  55.161 -52.253  1.00  0.00     0.018 A 
BRANCH  24  28
HETATM   28  O   UNL     1     -39.721  54.106 -49.183  1.00  0.00    -0.355 OA
HETATM   29  C   UNL     1     -40.252  54.000 -47.867  1.00  0.00     0.210 C 
ENDBRANCH  24  28
BRANCH  25  30
HETATM   30  C   UNL     1     -40.321  52.190 -51.165  1.00  0.00     0.013 A 
HETATM   31  C   UNL     1     -40.380  51.150 -50.208  1.00  0.00     0.152 A 
HETATM   32  N   UNL     1     -39.702  50.060 -50.581  1.00  0.00    -0.187 NA
HETATM   33  N   UNL     1     -39.218  50.392 -51.788  1.00  0.00    -0.289 N 
HETATM   34  H   UNL     1     -38.664  49.705 -52.287  1.00  0.00     0.188 HD
HETATM   35  C   UNL     1     -39.555  51.654 -52.181  1.00  0.00     0.123 A 
ENDBRANCH  25  30
ENDBRANCH   1  22
TORSDOF 9
ENDMDL
MODEL 9
REMARK VINA RESULT:      -7.9     15.689     20.070
REMARK  9 active torsions:
REMARK  status: ('A' for Active; 'I' for Inactive)
REMARK    1  A    between atoms: O_2  and  C_3 
REMARK    2  A    between atoms: C_5  and  C_15 
REMARK    3  A    between atoms: C_8  and  C_9 
REMARK       I    between atoms: C_15  and  N_17 
REMARK    4  A    between atoms: N_17  and  C_18 
REMARK    5  A    between atoms: C_18  and  C_19 
REMARK    6  A    between atoms: C_23  and  C_25 
REMARK       I    between atoms: C_25  and  N_27 
REMARK    7  A    between atoms: N_27  and  C_28 
REMARK    8  A    between atoms: C_28  and  C_29 
REMARK    9  A    between atoms: C_29  and  O_32 
ROOT
HETATM    1  C   UNL     1     -35.559  41.959 -53.485  1.00  0.00     0.252 C 
HETATM    2  O   UNL     1     -36.341  42.730 -52.943  1.00  0.00    -0.268 OA
HETATM    3  N   UNL     1     -34.427  41.473 -52.868  1.00  0.00    -0.353 N 
HETATM    4  H   UNL     1     -33.970  40.656 -53.249  1.00  0.00     0.163 HD
ENDROOT
BRANCH   3   5
HETATM    5  C   UNL     1     -34.144  41.801 -51.489  1.00  0.00     0.161 C 
BRANCH   5   6
HETATM    6  C   UNL     1     -34.325  40.591 -50.610  1.00  0.00    -0.040 A 
HETATM    7  C   UNL     1     -35.583  39.991 -50.460  1.00  0.00     0.009 A 
HETATM    8  C   UNL     1     -35.737  38.863 -49.652  1.00  0.00     0.002 A 
HETATM    9  C   UNL     1     -34.637  38.327 -48.983  1.00  0.00     0.017 A 
HETATM   10  C   UNL     1     -33.377  38.924 -49.108  1.00  0.00     0.032 A 
HETATM   11  C   UNL     1     -33.223  40.047 -49.929  1.00  0.00     0.026 A 
BRANCH  10  12
HETATM   12  C   UNL     1     -32.236  38.317 -48.370  1.00  0.00     0.251 C 
HETATM   13  O   UNL     1     -31.866  37.179 -48.637  1.00  0.00    -0.268 OA
HETATM   14  N   UNL     1     -31.666  39.081 -47.374  1.00  0.00    -0.354 N 
HETATM   15  H   UNL     1     -32.070  39.969 -47.112  1.00  0.00     0.162 HD
BRANCH  14  16
HETATM   16  C   UNL     1     -30.571  38.584 -46.553  1.00  0.00     0.159 C 
BRANCH  16  17
HETATM   17  C   UNL     1     -29.385  39.572 -46.459  1.00  0.00     0.066 C 
HETATM   18  C   UNL     1     -29.800  40.954 -45.949  1.00  0.00     0.047 C 
HETATM   19  C   UNL     1     -28.303  38.989 -45.548  1.00  0.00     0.047 C 
BRANCH  17  20
HETATM   20  O   UNL     1     -28.804  39.723 -47.763  1.00  0.00    -0.389 OA
HETATM   21  H   UNL     1     -28.150  40.442 -47.695  1.00  0.00     0.210 HD
ENDBRANCH  17  20
ENDBRANCH  16  17
ENDBRANCH  14  16
ENDBRANCH  10  12
ENDBRANCH   5   6
ENDBRANCH   3   5
BRANCH   1  22
HETATM   22  C   UNL     1     -35.823  41.472 -54.866  1.00  0.00     0.034 A 
HETATM   23  C   UNL     1     -36.423  40.230 -55.116  1.00  0.00     0.054 A 
HETATM   24  C   UNL     1     -36.657  39.803 -56.432  1.00  0.00     0.080 A 
HETATM   25  C   UNL     1     -36.302  40.638 -57.516  1.00  0.00     0.010 A 
HETATM   26  C   UNL     1     -35.675  41.868 -57.247  1.00  0.00     0.016 A 
HETATM   27  C   UNL     1     -35.433  42.280 -55.936  1.00  0.00     0.018 A 
BRANCH  24  28
HETATM   28  O   UNL     1     -37.271  38.611 -56.730  1.00  0.00    -0.355 OA
HETATM   29  C   UNL     1     -36.580  37.414 -56.394  1.00  0.00     0.210 C 
ENDBRANCH  24  28
BRANCH  25  30
HETATM   30  C   UNL     1     -36.536  40.252 -58.904  1.00  0.00     0.013 A 
HETATM   31  C   UNL     1     -36.063  39.157 -59.664  1.00  0.00     0.152 A 
HETATM   32  N   UNL     1     -36.510  39.165 -60.924  1.00  0.00    -0.187 NA
HETATM   33  N   UNL     1     -37.285  40.258 -60.973  1.00  0.00    -0.289 N 
HETATM   34  H   UNL     1     -37.753  40.476 -61.846  1.00  0.00     0.188 HD
HETATM   35  C   UNL     1     -37.331  40.945 -59.795  1.00  0.00     0.123 A 
ENDBRANCH  25  30
ENDBRANCH   1  22
TORSDOF 9
ENDMDL
MODEL 10
REMARK VINA RESULT:      -7.9      2.766      8.913
REMARK  9 active torsions:
REMARK  status: ('A' for Active; 'I' for Inactive)
REMARK    1  A    between atoms: O_2  and  C_3 
REMARK    2  A    between atoms: C_5  and  C_15 
REMARK    3  A    between atoms: C_8  and  C_9 
REMARK       I    between atoms: C_15  and  N_17 
REMARK    4  A    between atoms: N_17  and  C_18 
REMARK    5  A    between atoms: C_18  and  C_19 
REMARK    6  A    between atoms: C_23  and  C_25 
REMARK       I    between atoms: C_25  and  N_27 
REMARK    7  A    between atoms: N_27  and  C_28 
REMARK    8  A    between atoms: C_28  and  C_29 
REMARK    9  A    between atoms: C_29  and  O_32 
ROOT
HETATM    1  C   UNL     1     -42.677  54.676 -55.846  1.00  0.00     0.252 C 
HETATM    2  O   UNL     1     -43.603  53.898 -55.647  1.00  0.00    -0.268 OA
HETATM    3  N   UNL     1     -41.517  54.676 -55.102  1.00  0.00    -0.353 N 
HETATM    4  H   UNL     1     -40.699  55.144 -55.467  1.00  0.00     0.163 HD
ENDROOT
BRANCH   3   5
HETATM    5  C   UNL     1     -41.303  53.681 -54.077  1.00  0.00     0.161 C 
BRANCH   5   6
HETATM    6  C   UNL     1     -41.151  54.336 -52.728  1.00  0.00    -0.040 A 
HETATM    7  C   UNL     1     -40.714  53.603 -51.616  1.00  0.00     0.009 A 
HETATM    8  C   UNL     1     -40.566  54.222 -50.374  1.00  0.00     0.002 A 
HETATM    9  C   UNL     1     -40.857  55.579 -50.231  1.00  0.00     0.017 A 
HETATM   10  C   UNL     1     -41.313  56.322 -51.326  1.00  0.00     0.032 A 
HETATM   11  C   UNL     1     -41.448  55.701 -52.573  1.00  0.00     0.026 A 
BRANCH  10  12
HETATM   12  C   UNL     1     -41.616  57.764 -51.120  1.00  0.00     0.251 C 
HETATM   13  O   UNL     1     -40.704  58.564 -50.940  1.00  0.00    -0.268 OA
HETATM   14  N   UNL     1     -42.947  58.121 -51.107  1.00  0.00    -0.354 N 
HETATM   15  H   UNL     1     -43.669  57.416 -51.149  1.00  0.00     0.162 HD
BRANCH  14  16
HETATM   16  C   UNL     1     -43.374  59.494 -50.873  1.00  0.00     0.159 C 
BRANCH  16  17
HETATM   17  C   UNL     1     -44.906  59.636 -50.718  1.00  0.00     0.066 C 
HETATM   18  C   UNL     1     -45.310  60.853 -49.883  1.00  0.00     0.047 C 
HETATM   19  C   UNL     1     -45.556  59.718 -52.101  1.00  0.00     0.047 C 
BRANCH  17  20
HETATM   20  O   UNL     1     -45.418  58.455 -50.080  1.00  0.00    -0.389 OA
HETATM   21  H   UNL     1     -45.321  58.593 -49.121  1.00  0.00     0.210 HD
ENDBRANCH  17  20
ENDBRANCH  16  17
ENDBRANCH  14  16
ENDBRANCH  10  12
ENDBRANCH   5   6
ENDBRANCH   3   5
BRANCH   1  22
HETATM   22  C   UNL     1     -42.755  55.664 -56.956  1.00  0.00     0.034 A 
HETATM   23  C   UNL     1     -43.111  55.292 -58.260  1.00  0.00     0.054 A 
HETATM   24  C   UNL     1     -43.174  56.252 -59.282  1.00  0.00     0.080 A 
HETATM   25  C   UNL     1     -42.894  57.607 -58.993  1.00  0.00     0.010 A 
HETATM   26  C   UNL     1     -42.512  57.956 -57.685  1.00  0.00     0.016 A 
HETATM   27  C   UNL     1     -42.437  56.995 -56.677  1.00  0.00     0.018 A 
BRANCH  24  28
HETATM   28  O   UNL     1     -43.549  55.947 -60.568  1.00  0.00    -0.355 OA
HETATM   29  C   UNL     1     -44.753  55.209 -60.743  1.00  0.00     0.210 C 
ENDBRANCH  24  28
BRANCH  25  30
HETATM   30  C   UNL     1     -42.960  58.649 -60.013  1.00  0.00     0.013 A 
HETATM   31  C   UNL     1     -41.953  59.251 -60.803  1.00  0.00     0.152 A 
HETATM   32  N   UNL     1     -42.428  60.188 -61.629  1.00  0.00    -0.187 NA
HETATM   33  N   UNL     1     -43.747  60.180 -61.383  1.00  0.00    -0.289 N 
HETATM   34  H   UNL     1     -44.337  60.816 -61.909  1.00  0.00     0.188 HD
HETATM   35  C   UNL     1     -44.116  59.282 -60.424  1.00  0.00     0.123 A 
ENDBRANCH  25  30
ENDBRANCH   1  22
TORSDOF 9
ENDMDL
